@<TRIPOS>MOLECULE
tmp/4rhgA00.pdb
 182 176 0 0 0
SMALL
GASTEIGER

@<TRIPOS>ATOM
      1  N         -1.2180   23.0750   -4.6870 N.3    45  LEU45      -0.1231
      2  CA        -2.2670   23.3020   -5.6830 C.3    45  LEU45       0.1693
      3  C         -1.8440   22.9190   -7.1060 C.2    45  LEU45       0.2592
      4  O         -2.6140   22.2690   -7.8330 O.2    45  LEU45      -0.2718
      5  CB        -2.7270   24.7570   -5.6460 C.3    45  LEU45       0.0284
      6  CG        -3.6240   25.1490   -4.4850 C.3    45  LEU45       0.0019
      7  CD1       -3.7620   26.6660   -4.4640 C.3    45  LEU45       0.0001
      8  CD2       -4.9650   24.4660   -4.5740 C.3    45  LEU45       0.0001
      9  N         -0.6430   23.2860   -7.5370 N.am   46  ASP46      -0.1974
     10  CA        -0.2820   22.9820   -8.9140 C.3    46  ASP46       0.1709
     11  C          0.2900   21.5810   -9.0580 C.2    46  ASP46       0.2293
     12  O          0.7230   21.2110  -10.1500 O.2    46  ASP46      -0.2864
     13  CB         0.6650   24.0460   -9.4870 C.3    46  ASP46       0.1436
     14  CG         2.0850   23.9650   -8.9710 C.2    46  ASP46       0.3671
     15  OD1        2.5040   23.0000   -8.3200 O.co2  46  ASP46      -0.2456
     16  OD2        2.8460   24.9260   -9.2360 O.co2  46  ASP46      -0.2456
     17  N         -1.8030   19.1550   -8.5990 N.3    48  ASN48      -0.1225
     18  CA        -3.0310   18.5010   -9.0120 C.3    48  ASN48       0.1785
     19  C         -3.2730   18.8550  -10.4630 C.2    48  ASN48       0.2597
     20  O         -3.2950   20.0360  -10.8130 O.2    48  ASN48      -0.2718
     21  CB        -4.2120   18.9650   -8.1680 C.3    48  ASN48       0.1169
     22  CG        -3.9760   18.7600   -6.6950 C.2    48  ASN48       0.2627
     23  OD1       -3.6520   17.6770   -6.2430 O.2    48  ASN48      -0.2716
     24  ND2       -4.1000   19.8470   -5.9320 N.am   48  ASN48      -0.0877
     25  N         -3.4500   17.8440  -11.2960 N.am   49  ARG49      -0.1966
     26  CA        -3.6690   18.1260  -12.7100 C.3    49  ARG49       0.1729
     27  C         -5.0080   18.8150  -12.9330 C.2    49  ARG49       0.2616
     28  O         -5.1110   19.6900  -13.8210 O.2    49  ARG49      -0.2715
     29  CB        -3.5540   16.8360  -13.5070 C.3    49  ARG49       0.0348
     30  CG        -3.8420   17.0070  -14.9690 C.3    49  ARG49       0.0492
     31  CD        -3.6230   15.7320  -15.7170 C.3    49  ARG49       0.2205
     32  NE        -2.2130   15.4240  -15.8500 N.pl3  49  ARG49      -0.0865
     33  CZ        -1.3820   16.0040  -16.7080 C.cat  49  ARG49       0.5346
     34  NH1       -1.8140   16.9240  -17.5630 N.pl3  49  ARG49       0.1354
     35  NH2       -0.1240   15.6710  -16.7350 N.pl3  49  ARG49       0.1354
     36  N         -6.0210   18.4820  -12.1150 N.am   50  TYR50      -0.1960
     37  CA        -7.3680   19.0430  -12.2040 C.3    50  TYR50       0.1771
     38  C         -7.7870   19.5430  -10.8380 C.2    50  TYR50       0.2619
     39  O         -7.6060   18.8480   -9.8290 O.2    50  TYR50      -0.2715
     40  CB        -8.3760   18.0200  -12.7440 C.3    50  TYR50       0.0574
     41  CG        -8.0090   17.5150  -14.1080 C.ar   50  TYR50      -0.0198
     42  CD1       -8.1290   18.3300  -15.2320 C.ar   50  TYR50      -0.0009
     43  CD2       -7.5340   16.2250  -14.2870 C.ar   50  TYR50      -0.0009
     44  CE1       -7.8010   17.8720  -16.4810 C.ar   50  TYR50       0.0417
     45  CE2       -7.1770   15.7520  -15.5510 C.ar   50  TYR50       0.0417
     46  CZ        -7.2930   16.5960  -16.6360 C.ar   50  TYR50       0.1957
     47  OH        -6.9560   16.1630  -17.9130 O.3    50  TYR50      -0.2866
     48  N         -8.3690   20.7430  -10.8310 N.am   51  LYS51      -0.1963
     49  CA        -8.6560   21.4450   -9.5930 C.3    51  LYS51       0.1728
     50  C         -9.6170   20.6800   -8.7100 C.2    51  LYS51       0.2616
     51  O         -9.5840   20.8230   -7.4770 O.2    51  LYS51      -0.2715
     52  CB        -9.2580   22.8190   -9.9240 C.3    51  LYS51       0.0311
     53  CG        -9.3200   23.7080   -8.7300 C.3    51  LYS51       0.0038
     54  CD        -9.9730   25.0210   -9.0300 C.3    51  LYS51       0.0206
     55  CE       -10.1930   25.7570   -7.7240 C.3    51  LYS51       0.1093
     56  NZ       -10.6530   27.1200   -8.0080 N.3    51  LYS51      -0.1314
     57  N        -10.5020   19.9100   -9.3200 N.am   52  ASP52      -0.1957
     58  CA       -11.5820   19.2590   -8.6160 C.3    52  ASP52       0.1840
     59  C        -11.3530   17.7730   -8.3970 C.2    52  ASP52       0.2621
     60  O        -12.2900   17.0760   -7.9760 O.2    52  ASP52      -0.2715
     61  CB       -12.8920   19.4680   -9.3720 C.3    52  ASP52       0.1450
     62  CG       -12.9000   18.8280  -10.7460 C.2    52  ASP52       0.3671
     63  OD1      -11.8310   18.6990  -11.3690 O.co2  52  ASP52      -0.2456
     64  OD2      -14.0020   18.4840  -11.2290 O.co2  52  ASP52      -0.2456
     65  N        -10.1610   17.2510   -8.6770 N.am   53  VAL53      -0.1977
     66  CA        -9.8890   15.8270   -8.4960 C.3    53  VAL53       0.1596
     67  C         -8.7500   15.7450   -7.4930 C.2    53  VAL53       0.2287
     68  O         -7.5820   15.8870   -7.8660 O.2    53  VAL53      -0.2864
     69  CB        -9.5360   15.1340   -9.8130 C.3    53  VAL53       0.0276
     70  CG1       -9.1370   13.7140   -9.5710 C.3    53  VAL53       0.0022
     71  CG2      -10.7010   15.2220  -10.7640 C.3    53  VAL53       0.0022
     72  N         -2.3790   15.4660  -21.6650 N.3   127  LYS127     -0.1245
     73  CA        -3.1560   14.7830  -20.6470 C.3   127  LYS127      0.1561
     74  C         -2.3110   14.0490  -19.6210 C.2   127  LYS127      0.2260
     75  O         -2.8330   13.6480  -18.5730 O.2   127  LYS127     -0.2867
     76  CB        -4.0910   13.7630  -21.3080 C.3   127  LYS127      0.0271
     77  CG        -5.0320   14.4190  -22.3200 C.3   127  LYS127      0.0035
     78  CD        -5.9490   15.3880  -21.5900 C.3   127  LYS127      0.0206
     79  CE        -6.8810   16.0830  -22.5350 C.3   127  LYS127      0.1093
     80  NZ        -7.6370   17.1400  -21.8010 N.3   127  LYS127     -0.1314
     81  N        -10.6070   10.0170  -23.0050 N.3   185  GLU185     -0.1231
     82  CA       -11.0630   10.6800  -21.7990 C.3   185  GLU185      0.1699
     83  C        -12.5710   10.8560  -21.8520 C.2   185  GLU185      0.2592
     84  O        -13.1430   11.1180  -22.9080 O.2   185  GLU185     -0.2718
     85  CB       -10.3780   12.0360  -21.6700 C.3   185  GLU185      0.0402
     86  CG       -10.3120   12.5960  -20.2520 C.3   185  GLU185      0.1161
     87  CD        -9.5760   13.9540  -20.2070 C.2   185  GLU185      0.3649
     88  OE1      -10.0830   14.9730  -20.7200 O.co2 185  GLU185     -0.2457
     89  OE2       -8.4520   13.9830  -19.6740 O.co2 185  GLU185     -0.2457
     90  N        -13.1830   10.6600  -20.6930 N.am  186  HIS186     -0.1976
     91  CA       -14.6320   10.7710  -20.5020 C.3   186  HIS186      0.1656
     92  C        -15.4280    9.8360  -21.4060 C.2   186  HIS186      0.2291
     93  O        -16.6330   10.0440  -21.5930 O.2   186  HIS186     -0.2864
     94  CB       -15.1470   12.2040  -20.7110 C.3   186  HIS186      0.0771
     95  CG       -14.0900   13.2590  -20.6750 C.ar  186  HIS186      0.0820
     96  ND1      -13.5190   13.7140  -19.5060 N.ar  186  HIS186     -0.2267
     97  CD2      -13.5250   13.9760  -21.6730 C.ar  186  HIS186      0.1154
     98  CE1      -12.6250   14.6430  -19.7930 C.ar  186  HIS186      0.1986
     99  NE2      -12.6100   14.8230  -21.0990 N.ar  186  HIS186     -0.2212
    100  N         -4.9180    7.4430  -15.0500 N.3   216  SER216     -0.1202
    101  CA        -5.3660    7.9210  -16.3500 C.3   216  SER216      0.2020
    102  C         -4.8710    9.3570  -16.4440 C.2   216  SER216      0.2619
    103  O         -3.6800    9.5960  -16.2160 O.2   216  SER216     -0.2717
    104  CB        -6.8690    7.7230  -16.4840 C.3   216  SER216      0.2103
    105  OG        -7.5140    8.1930  -15.3070 O.3   216  SER216     -0.2182
    106  N         -5.7200   10.3130  -16.8470 N.am  217  SER217     -0.1937
    107  CA        -5.3190   11.7090  -16.7630 C.3   217  SER217      0.2055
    108  C         -5.6300   12.2530  -15.3740 C.2   217  SER217      0.2643
    109  O         -4.7320   12.7110  -14.6760 O.2   217  SER217     -0.2714
    110  CB        -5.9870   12.5290  -17.8740 C.3   217  SER217      0.2130
    111  OG        -5.4740   13.8500  -17.9130 O.3   217  SER217     -0.2179
    112  N         -6.8730   12.1670  -14.9520 N.am  218  ALA218     -0.1963
    113  CA        -7.2580   12.5570  -13.6120 C.3   218  ALA218      0.1728
    114  C         -7.1190   11.4220  -12.6230 C.2   218  ALA218      0.2617
    115  O         -7.0040   11.6690  -11.4340 O.2   218  ALA218     -0.2715
    116  CB        -8.7070   13.0470  -13.6170 C.3   218  ALA218      0.0334
    117  N         -7.1330   10.1880  -13.0870 N.am  219  GLY219     -0.1940
    118  CA        -7.0760    9.0330  -12.2120 C.3   219  GLY219      0.2014
    119  C         -8.3710    8.6710  -11.5430 C.2   219  GLY219      0.2639
    120  O         -8.3420    8.0210  -10.4850 O.2   219  GLY219     -0.2714
    121  N         -9.5180    9.0110  -12.1520 N.am  220  ILE220     -0.1963
    122  CA       -10.8020    8.6230  -11.5500 C.3   220  ILE220      0.1727
    123  C        -11.7670    7.9600  -12.5240 C.2   220  ILE220      0.2617
    124  O        -12.5340    7.0910  -12.1220 O.2   220  ILE220     -0.2715
    125  CB       -11.4900    9.8360  -10.8630 C.3   220  ILE220      0.0290
    126  CG1      -11.6540   11.0220  -11.8050 C.3   220  ILE220      0.0022
    127  CG2      -10.6790   10.2800   -9.6750 C.3   220  ILE220      0.0023
    128  CD1      -12.5090   12.0970  -11.3090 C.3   220  ILE220      0.0001
    129  N        -11.8060    8.3980  -13.7730 N.am  221  GLY221     -0.1940
    130  CA       -12.8510    7.9190  -14.6600 C.3   221  GLY221      0.2014
    131  C        -12.5560    6.5390  -15.2170 C.2   221  GLY221      0.2638
    132  O        -13.2300    5.5450  -14.8980 O.2   221  GLY221     -0.2714
    133  N        -11.5410    6.4980  -16.0650 N.am  222  ARG222     -0.1977
    134  CA       -11.1510    5.2340  -16.6690 C.3   222  ARG222      0.1597
    135  C        -10.5950    4.2920  -15.6110 C.2   222  ARG222      0.2287
    136  O        -10.8330    3.0750  -15.6540 O.2   222  ARG222     -0.2864
    137  CB       -10.1650    5.5040  -17.8130 C.3   222  ARG222      0.0334
    138  CG       -10.8360    6.2160  -18.9910 C.3   222  ARG222      0.0492
    139  CD        -9.8700    6.8240  -19.9690 C.3   222  ARG222      0.2205
    140  NE        -9.2750    8.0430  -19.4370 N.pl3 222  ARG222     -0.0865
    141  CZ        -8.4680    8.8340  -20.1210 C.cat 222  ARG222      0.5346
    142  NH1       -8.1330    8.5030  -21.3860 N.pl3 222  ARG222      0.1354
    143  NH2       -7.9660    9.9280  -19.5540 N.pl3 222  ARG222      0.1354
    144  N        -15.0690   10.4830   -6.9570 N.3   257  MET257     -0.1245
    145  CA       -15.4640   10.6440   -8.3610 C.3   257  MET257      0.1570
    146  C        -15.1940    9.4070   -9.2100 C.2   257  MET257      0.2261
    147  O        -15.4990    9.4370  -10.3850 O.2   257  MET257     -0.2867
    148  CB       -14.8090   11.8840   -8.9970 C.3   257  MET257      0.0387
    149  CG       -15.2550   13.1740   -8.3490 C.3   257  MET257      0.0595
    150  SD       -14.1770   14.5600   -8.7650 S.3   257  MET257     -0.1393
    151  CE       -14.5630   14.8440  -10.4760 C.3   257  MET257      0.0692
    152  N        -16.5140    8.2280  -13.9930 N.3   260  GLN260     -0.1231
    153  CA       -16.8610    9.6260  -14.1830 C.3   260  GLN260      0.1698
    154  C        -18.2800    9.7940  -14.7340 C.2   260  GLN260      0.2592
    155  O        -19.0490   10.6350  -14.2390 O.2   260  GLN260     -0.2718
    156  CB       -15.8330   10.2900  -15.1160 C.3   260  GLN260      0.0381
    157  CG       -16.1140   11.7680  -15.3160 C.3   260  GLN260      0.0905
    158  CD       -15.2640   12.4000  -16.3740 C.2   260  GLN260      0.2608
    159  OE1      -14.6400   11.7100  -17.1720 O.2   260  GLN260     -0.2717
    160  NE2      -15.1850   13.7140  -16.3560 N.am  260  GLN260     -0.0878
    161  N        -18.6150    9.0890  -15.8090 N.am  261  THR261     -0.1953
    162  CA       -19.8620    9.3510  -16.5320 C.3   261  THR261      0.1897
    163  C        -20.8540    8.2060  -16.4060 C.2   261  THR261      0.2313
    164  O        -20.4980    7.0720  -16.1210 O.2   261  THR261     -0.2863
    165  CB       -19.5940    9.5830  -18.0180 C.3   261  THR261      0.1794
    166  OG1      -19.2860    8.3160  -18.6150 O.3   261  THR261     -0.2208
    167  CG2      -18.4940   10.6010  -18.2430 C.3   261  THR261      0.0378
    168  N        -22.4600    6.9890  -18.9330 N.3   263  SER263     -0.1202
    169  CA       -22.1110    6.0730  -20.0170 C.3   263  SER263      0.2020
    170  C        -21.0350    5.0840  -19.5930 C.2   263  SER263      0.2618
    171  O        -21.0580    3.9040  -19.9890 O.2   263  SER263     -0.2717
    172  CB       -21.6230    6.8510  -21.2240 C.3   263  SER263      0.2103
    173  OG       -22.6770    7.6250  -21.7470 O.3   263  SER263     -0.2182
    174  N        -20.0580    5.5520  -18.8150 N.am  264  GLN264     -0.1979
    175  CA       -19.0320    4.6410  -18.3150 C.3   264  GLN264      0.1601
    176  C        -19.6230    3.6200  -17.3620 C.2   264  GLN264      0.2287
    177  O        -19.2630    2.4450  -17.3940 O.2   264  GLN264     -0.2864
    178  CB       -17.9200    5.4310  -17.6160 C.3   264  GLN264      0.0394
    179  CG       -17.0170    6.1140  -18.5560 C.3   264  GLN264      0.0908
    180  CD       -15.9950    7.0040  -17.8750 C.2   264  GLN264      0.2608
    181  OE1      -16.1650    7.3990  -16.7220 O.2   264  GLN264     -0.2717
    182  NE2      -14.9380    7.3480  -18.6020 N.am  264  GLN264     -0.0878
@<TRIPOS>BOND
     1    81    82    1
     2    84    83    2
     3    79    80    1
     4    79    78    1
     5    77    78    1
     6    77    76    1
     7    83    82    1
     8    83    90   am
     9    82    85    1
    10   173   172    1
    11    97    99   ar
    12    97    95   ar
    13    85    86    1
    14    72    73    1
    15    93    92    2
    16    92    91    1
    17   142   141    1
    18    76    73    1
    19   172   169    1
    20    99    98   ar
    21    88    87   ar
    22    94    95    1
    23    94    91    1
    24    90    91    1
    25    95    96   ar
    26    73    74    1
    27    86    87    1
    28    87    89   ar
    29   141   143    1
    30   141   140    2
    31   169   170    1
    32   169   168    1
    33   171   170    2
    34   139   140    1
    35   139   138    1
    36    98    96   ar
    37    74    75    2
    38   170   174   am
    39   138   137    1
    40   174   175    1
    41   166   165    1
    42   182   180   am
    43   179   180    1
    44   179   178    1
    45   175   178    1
    46   175   176    1
    47   167   165    1
    48   165   162    1
    49   111   110    1
    50    47    46    1
    51   180   181    2
    52   110   107    1
    53   137   134    1
    54    34    33    1
    55   177   176    2
    56   159   158    2
    57   106   107    1
    58   106   102   am
    59   107   108    1
    60    35    33    1
    61    33    32    2
    62   134   133    1
    63   134   135    1
    64    46    44   ar
    65    46    45   ar
    66   162   163    1
    67   162   161    1
    68   104   101    1
    69   104   105    1
    70    44    42   ar
    71   102   101    1
    72   102   103    2
    73   163   164    2
    74   158   160   am
    75   158   157    1
    76   101   100    1
    77   133   131   am
    78    32    31    1
    79   161   154   am
    80    31    30    1
    81   136   135    2
    82    45    43   ar
    83   108   112   am
    84   108   109    2
    85   157   156    1
    86    42    41   ar
    87   131   132    2
    88   131   130    1
    89   156   153    1
    90    30    29    1
    91   112   113    1
    92   154   155    2
    93   154   153    1
    94   130   129    1
    95    43    41   ar
    96   153   152    1
    97    41    40    1
    98    28    27    2
    99   129   123   am
   100   116   113    1
   101   113   114    1
   102    29    26    1
   103   117   114   am
   104   117   118    1
   105    27    26    1
   106    27    36   am
   107    40    37    1
   108    26    25    1
   109   114   115    2
   110   123   124    2
   111   123   122    1
   112   118   119    1
   113    37    36    1
   114    37    38    1
   115   121   122    1
   116   121   119   am
   117   126   128    1
   118   126   125    1
   119   122   125    1
   120   119   120    2
   121    63    62   ar
   122    25    19   am
   123    64    62   ar
   124   125   127    1
   125    38    48   am
   126    38    39    2
   127    48    49    1
   128    20    19    2
   129    71    69    1
   130    62    61    1
   131   151   150    1
   132    19    18    1
   133   147   146    2
   134    12    11    2
   135    52    49    1
   136    52    53    1
   137    69    70    1
   138    69    66    1
   139    49    50    1
   140    13    14    1
   141    13    10    1
   142    61    58    1
   143    57    50   am
   144    57    58    1
   145    16    14   ar
   146   146   145    1
   147    11    10    1
   148    54    53    1
   149    54    55    1
   150    18    17    1
   151    18    21    1
   152   148   145    1
   153   148   149    1
   154    14    15   ar
   155    10     9    1
   156   150   149    1
   157    50    51    2
   158    65    66    1
   159    65    59   am
   160    58    59    1
   161    66    67    1
   162    59    60    2
   163   145   144    1
   164    21    22    1
   165    56    55    1
   166    68    67    2
   167     4     3    2
   168     9     3   am
   169     3     2    1
   170    22    23    2
   171    22    24   am
   172     2     5    1
   173     2     1    1
   174     5     6    1
   175     8     6    1
   176     6     7    1
