@<TRIPOS>MOLECULE
tmp/4rhnA00.pdb
 111 107 0 0 0
SMALL
GASTEIGER

@<TRIPOS>ATOM
      1  N         18.5140   14.8120   17.7710 N.3     7  ILE7       -0.1231
      2  CA        17.9370   14.7170   16.4220 C.3     7  ILE7        0.1692
      3  C         18.9870   14.2000   15.4280 C.2     7  ILE7        0.2592
      4  O         18.6430   13.5890   14.4070 O.2     7  ILE7       -0.2718
      5  CB        17.4450   16.0610   15.8670 C.3     7  ILE7        0.0266
      6  CG1       18.3930   17.1770   16.2830 C.3     7  ILE7        0.0019
      7  CG2       15.9730   16.2590   16.1510 C.3     7  ILE7        0.0020
      8  CD1       18.2750   18.4150   15.4090 C.3     7  ILE7        0.0001
      9  N         20.2590   14.4720   15.7170 N.am    8  PHE8       -0.1976
     10  CA        21.3280   14.0280   14.8480 C.3     8  PHE8        0.1639
     11  C         21.3240   12.5090   14.7900 C.2     8  PHE8        0.2290
     12  O         21.5840   11.9240   13.7340 O.2     8  PHE8       -0.2864
     13  CB        22.6710   14.5580   15.3330 C.3     8  PHE8        0.0560
     14  CG        22.8530   16.0330   15.1300 C.ar    8  PHE8       -0.0200
     15  CD1       21.9430   16.7760   14.3940 C.ar    8  PHE8       -0.0042
     16  CD2       23.9500   16.6830   15.6720 C.ar    8  PHE8       -0.0042
     17  CE1       22.1260   18.1430   14.2040 C.ar    8  PHE8       -0.0003
     18  CE2       24.1390   18.0450   15.4850 C.ar    8  PHE8       -0.0003
     19  CZ        23.2340   18.7800   14.7580 C.ar    8  PHE8       -0.0000
     20  N         25.2250   17.1980    6.0140 N.3    30  PHE30      -0.1241
     21  CA        23.8790   17.5240    5.5350 C.3    30  PHE30       0.1605
     22  C         23.6240   19.0160    5.6780 C.2    30  PHE30       0.2264
     23  O         24.2680   19.6770    6.4980 O.2    30  PHE30      -0.2867
     24  CB        22.7920   16.6760    6.2440 C.3    30  PHE30       0.0534
     25  CG        22.6680   16.9430    7.7240 C.ar   30  PHE30      -0.0203
     26  CD1       23.5290   16.3390    8.6340 C.ar   30  PHE30      -0.0042
     27  CD2       21.7300   17.8490    8.1940 C.ar   30  PHE30      -0.0042
     28  CE1       23.4650   16.6490    9.9880 C.ar   30  PHE30      -0.0003
     29  CE2       21.6580   18.1660    9.5420 C.ar   30  PHE30      -0.0003
     30  CZ        22.5290   17.5690   10.4430 C.ar   30  PHE30      -0.0000
     31  N         22.0470   22.6100    6.6400 N.3    32  ASP32      -0.1225
     32  CA        21.4420   23.1880    7.8300 C.3    32  ASP32       0.1805
     33  C         20.0780   23.7300    7.4080 C.2    32  ASP32       0.2598
     34  O         19.9790   24.5380    6.4930 O.2    32  ASP32      -0.2718
     35  CB        22.3220   24.3330    8.3570 C.3    32  ASP32       0.1424
     36  CG        21.9170   24.8140    9.7490 C.2    32  ASP32       0.3668
     37  OD1       20.8410   25.4030    9.8960 O.co2  32  ASP32      -0.2456
     38  OD2       22.6970   24.6390   10.7050 O.co2  32  ASP32      -0.2456
     39  N         19.0460   23.3350    8.1410 N.am   33  ILE33      -0.1966
     40  CA        17.6750   23.7360    7.8720 C.3    33  ILE33       0.1727
     41  C         17.3910   25.2210    8.1200 C.2    33  ILE33       0.2616
     42  O         16.3310   25.7140    7.7450 O.2    33  ILE33      -0.2715
     43  CB        16.7050   22.8250    8.6640 C.3    33  ILE33       0.0290
     44  CG1       15.3410   22.7710    7.9770 C.3    33  ILE33       0.0022
     45  CG2       16.6050   23.2710   10.1240 C.3    33  ILE33       0.0023
     46  CD1       14.5900   21.4740    8.2370 C.3    33  ILE33       0.0001
     47  N         18.3170   25.9100    8.7900 N.am   34  SER34      -0.1950
     48  CA        18.2180   27.3550    9.0630 C.3    34  SER34       0.1924
     49  C         19.5590   27.9710    8.6550 C.2    34  SER34       0.2314
     50  O         20.3030   28.4800    9.5020 O.2    34  SER34      -0.2863
     51  CB        17.9790   27.6320   10.5550 C.3    34  SER34       0.2116
     52  OG        16.7320   27.1320   10.9910 O.3    34  SER34      -0.2180
     53  N         25.3060   26.5330    3.7570 N.3    40  HIS40      -0.1241
     54  CA        25.5040   26.3030    5.1910 C.3    40  HIS40       0.1621
     55  C         25.1490   24.8590    5.4890 C.2    40  HIS40       0.2264
     56  O         23.9790   24.4810    5.4300 O.2    40  HIS40      -0.2867
     57  CB        24.6130   27.2480    6.0050 C.3    40  HIS40       0.0745
     58  CG        24.7600   27.1030    7.4880 C.ar   40  HIS40       0.0817
     59  ND1       24.1120   27.8970    8.4040 N.ar   40  HIS40      -0.2268
     60  CD2       25.4910   26.2200    8.2140 C.ar   40  HIS40       0.1154
     61  CE1       24.4620   27.4820    9.6280 C.ar   40  HIS40       0.1986
     62  NE2       25.2990   26.4640    9.5610 N.ar   40  HIS40      -0.2212
     63  N         26.3830   21.0330    7.7900 N.3    42  LEU42      -0.1245
     64  CA        27.0190   20.5380    9.0030 C.3    42  LEU42       0.1561
     65  C         27.6730   19.2020    8.7280 C.2    42  LEU42       0.2260
     66  O         27.1890   18.4280    7.9010 O.2    42  LEU42      -0.2867
     67  CB        25.9530   20.3120   10.0840 C.3    42  LEU42       0.0270
     68  CG        25.0730   21.4900   10.4970 C.3    42  LEU42       0.0019
     69  CD1       23.7890   20.9670   11.0330 C.3    42  LEU42       0.0001
     70  CD2       25.7640   22.3330   11.5360 C.3    42  LEU42       0.0001
     71  N         30.7150   25.2170   17.9710 N.3    88  ASN88      -0.1240
     72  CA        30.1500   25.9140   19.1390 C.3    88  ASN88       0.1653
     73  C         30.1840   24.9970   20.3640 C.2    88  ASN88       0.2266
     74  O         29.7560   23.8320   20.3040 O.2    88  ASN88      -0.2867
     75  CB        28.7010   26.3010   18.8830 C.3    88  ASN88       0.1155
     76  CG        28.5660   27.3210   17.7860 C.2    88  ASN88       0.2627
     77  OD1       29.4640   28.1160   17.5780 O.2    88  ASN88      -0.2716
     78  ND2       27.4450   27.3050   17.0800 N.am   88  ASN88      -0.0877
     79  N         23.4910   24.4980   20.3230 N.3    96  SER96      -0.1202
     80  CA        22.0860   24.1320   20.4760 C.3    96  SER96       0.2020
     81  C         21.7980   22.6320   20.5240 C.2    96  SER96       0.2618
     82  O         20.8050   22.2110   21.1040 O.2    96  SER96      -0.2717
     83  CB        21.2280   24.8320   19.4070 C.3    96  SER96       0.2103
     84  OG        21.8190   24.7410   18.1190 O.3    96  SER96      -0.2182
     85  N         22.6700   21.8270   19.9340 N.am   97  VAL97      -0.1979
     86  CA        22.4860   20.3830   19.9390 C.3    97  VAL97       0.1595
     87  C         23.6990   19.7550   20.6190 C.2    97  VAL97       0.2287
     88  O         24.8510   20.0470   20.2510 O.2    97  VAL97      -0.2864
     89  CB        22.3250   19.8410   18.5040 C.3    97  VAL97       0.0276
     90  CG1       22.1250   18.3370   18.5280 C.3    97  VAL97       0.0022
     91  CG2       21.1360   20.5180   17.8240 C.3    97  VAL97       0.0022
     92  N         29.1800   19.0220   16.3650 N.3   101  HIS101     -0.1241
     93  CA        28.9370   19.3150   14.9470 C.3   101  HIS101      0.1621
     94  C         29.7920   20.4790   14.4210 C.2   101  HIS101      0.2264
     95  O         30.0840   21.4430   15.1320 O.2   101  HIS101     -0.2867
     96  CB        27.4440   19.5410   14.6330 C.3   101  HIS101      0.0745
     97  CG        26.7910   20.5760   15.4850 C.ar  101  HIS101      0.0817
     98  ND1       26.4900   20.3620   16.8120 N.ar  101  HIS101     -0.2268
     99  CD2       26.3690   21.8310   15.2030 C.ar  101  HIS101      0.1154
    100  CE1       25.9150   21.4410   17.3140 C.ar  101  HIS101      0.1986
    101  NE2       25.8290   22.3470   16.3570 N.ar  101  HIS101     -0.2212
    102  N         30.0890   23.4350   11.6470 N.3   103  HIS103     -0.1241
    103  CA        29.3510   24.2610   10.6900 C.3   103  HIS103      0.1621
    104  C         30.3150   24.6860    9.5730 C.2   103  HIS103      0.2264
    105  O         31.5010   24.9230    9.8120 O.2   103  HIS103     -0.2867
    106  CB        28.7840   25.5500   11.3350 C.3   103  HIS103      0.0745
    107  CG        27.6400   25.3300   12.2820 C.ar  103  HIS103      0.0817
    108  ND1       26.3370   25.5400   11.8970 N.ar  103  HIS103     -0.2268
    109  CD2       27.6700   24.9920   13.5990 C.ar  103  HIS103      0.1154
    110  CE1       25.6010   25.3250   12.9730 C.ar  103  HIS103      0.1986
    111  NE2       26.3590   24.9900   14.0300 N.ar  103  HIS103     -0.2212
@<TRIPOS>BOND
     1    53    54    1
     2    54    55    1
     3    54    57    1
     4    56    55    2
     5    21    22    1
     6    21    20    1
     7    21    24    1
     8    22    23    2
     9    57    58    1
    10    24    25    1
    11    34    33    2
    12    31    32    1
    13    33    32    1
    14    33    39   am
    15    58    60   ar
    16    58    59   ar
    17    25    27   ar
    18    25    26   ar
    19    42    41    2
    20    63    64    1
    21    32    35    1
    22    40    41    1
    23    40    39    1
    24    40    43    1
    25    66    65    2
    26    44    46    1
    27    44    43    1
    28    41    47   am
    29    27    29   ar
    30    60    62   ar
    31    35    36    1
    32    59    61   ar
    33    26    28   ar
    34    49    48    1
    35    49    50    2
    36    43    45    1
    37    65    64    1
    38    47    48    1
    39    64    67    1
    40    48    51    1
    41    29    30   ar
    42    62    61   ar
    43   104   105    2
    44   104   103    1
    45    36    37   ar
    46    36    38   ar
    47    28    30   ar
    48    67    68    1
    49    68    69    1
    50    68    70    1
    51    51    52    1
    52   103   106    1
    53   103   102    1
    54   106   107    1
    55   108   107   ar
    56   108   110   ar
    57   107   109   ar
    58   110   111   ar
    59   109   111   ar
    60    12    11    2
    61    17    15   ar
    62    17    19   ar
    63    15    14   ar
    64     4     3    2
    65    94    93    1
    66    94    95    2
    67    96    93    1
    68    96    97    1
    69    19    18   ar
    70    11    10    1
    71    10    13    1
    72    10     9    1
    73    93    92    1
    74    14    13    1
    75    14    16   ar
    76    99    97   ar
    77    99   101   ar
    78     8     6    1
    79     3     9   am
    80     3     2    1
    81    97    98   ar
    82    18    16   ar
    83     5     7    1
    84     5     6    1
    85     5     2    1
    86   101   100   ar
    87     2     1    1
    88    98   100   ar
    89    78    76   am
    90    77    76    2
    91    76    75    1
    92    91    89    1
    93    71    72    1
    94    84    83    1
    95    89    90    1
    96    89    86    1
    97    75    72    1
    98    72    73    1
    99    83    80    1
   100    85    86    1
   101    85    81   am
   102    86    87    1
   103    88    87    2
   104    74    73    2
   105    79    80    1
   106    80    81    1
   107    81    82    2
