@<TRIPOS>MOLECULE
tmp/4rhoA00.pdb
 120 117 0 0 0
SMALL
GASTEIGER

@<TRIPOS>ATOM
      1  N          2.7300   12.2500   39.9410 N.3    44  LEU44      -0.1245
      2  CA         3.8390   13.2080   39.9230 C.3    44  LEU44       0.1561
      3  C          3.3340   14.6320   40.1390 C.2    44  LEU44       0.2260
      4  O          3.9710   15.4070   40.8430 O.2    44  LEU44      -0.2867
      5  CB         4.5990   13.1170   38.5900 C.3    44  LEU44       0.0270
      6  CG         5.3450   11.8100   38.3380 C.3    44  LEU44       0.0019
      7  CD1        5.8100   11.7200   36.8990 C.3    44  LEU44       0.0001
      8  CD2        6.5220   11.6550   39.2970 C.3    44  LEU44       0.0001
      9  N          2.9230   15.8300   43.6400 N.3    47  LYS47      -0.1231
     10  CA         4.1730   16.1110   44.3460 C.3    47  LYS47       0.1693
     11  C          4.7880   17.4470   43.8860 C.2    47  LYS47       0.2592
     12  O          5.4250   18.1350   44.6860 O.2    47  LYS47      -0.2718
     13  CB         5.1910   14.9600   44.1290 C.3    47  LYS47       0.0285
     14  CG         4.6420   13.5580   44.4530 C.3    47  LYS47       0.0035
     15  CD         4.3140   13.3930   45.9430 C.3    47  LYS47       0.0206
     16  CE         3.8370   11.9980   46.2600 C.3    47  LYS47       0.1093
     17  NZ         3.3620   11.8850   47.6610 N.3    47  LYS47      -0.1314
     18  N          4.6580   17.7750   42.5750 N.am   48  SER48      -0.1952
     19  CA         5.2780   18.9760   42.0060 C.3    48  SER48       0.1924
     20  C          4.3560   19.6510   40.9660 C.2    48  SER48       0.2314
     21  O          3.7940   18.9730   40.0990 O.2    48  SER48      -0.2863
     22  CB         6.6170   18.6280   41.3630 C.3    48  SER48       0.2116
     23  OG         7.2160   19.7650   40.7620 O.3    48  SER48      -0.2180
     24  N         13.0090   11.0150   36.0010 N.3   131  LEU131     -0.1231
     25  CA        12.5410   12.1610   36.7980 C.3   131  LEU131      0.1693
     26  C         13.6610   13.2050   37.0810 C.2   131  LEU131      0.2593
     27  O         13.3730   14.4020   37.1770 O.2   131  LEU131     -0.2718
     28  CB        11.9470   11.6700   38.1280 C.3   131  LEU131      0.0284
     29  CG        10.7890   10.6650   38.0050 C.3   131  LEU131      0.0019
     30  CD1       10.3780   10.1400   39.3630 C.3   131  LEU131      0.0001
     31  CD2        9.5950   11.2840   37.2850 C.3   131  LEU131      0.0001
     32  N         14.8750   12.7320   37.3240 N.am  132  GLY132     -0.1942
     33  CA        15.9940   13.6130   37.6530 C.3   132  GLY132      0.2014
     34  C         16.6640   13.2690   38.9710 C.2   132  GLY132      0.2639
     35  O         16.2000   12.3830   39.6920 O.2   132  GLY132     -0.2714
     36  N         17.7970   13.9410   39.2780 N.am  133  VAL133     -0.1963
     37  CA        18.5710   13.6630   40.5000 C.3   133  VAL133      0.1712
     38  C         17.7540   14.0600   41.7620 C.2   133  VAL133      0.2458
     39  O         17.3220   15.2140   41.8920 O.2   133  VAL133     -0.2730
     40  CB        19.9550   14.3790   40.4790 C.3   133  VAL133      0.0289
     41  CG1       20.7290   14.1170   41.7720 C.3   133  VAL133      0.0023
     42  CG2       20.7720   13.9520   39.2650 C.3   133  VAL133      0.0023
     43  N         17.5580   13.1120   42.7160 N.am  134  PRO134     -0.2716
     44  CA        16.8240   13.4590   43.9450 C.3   134  PRO134      0.1536
     45  C         17.6380   14.3860   44.8590 C.2   134  PRO134      0.2598
     46  O         18.8290   14.1470   45.0860 O.2   134  PRO134     -0.2715
     47  CB        16.5770   12.0990   44.6020 C.3   134  PRO134      0.0310
     48  CG        17.6860   11.2430   44.1230 C.3   134  PRO134      0.0237
     49  CD        17.9950   11.6970   42.7210 C.3   134  PRO134      0.0939
     50  N         17.0040   15.4590   45.3620 N.am  135  ASP135     -0.1972
     51  CA        17.6650   16.4020   46.2650 C.3   135  ASP135      0.1709
     52  C         17.4490   15.9800   47.7400 C.2   135  ASP135      0.2293
     53  O         16.9620   14.8800   47.9960 O.2   135  ASP135     -0.2864
     54  CB        17.1550   17.8380   46.0200 C.3   135  ASP135      0.1436
     55  CG        15.6700   18.0080   46.2500 C.2   135  ASP135      0.3671
     56  OD1       14.8920   17.8140   45.2860 O.co2 135  ASP135     -0.2456
     57  OD2       15.2920   18.4060   47.3570 O.co2 135  ASP135     -0.2456
     58  N         15.2910   17.1100   49.7960 N.3   137  TYR137     -0.1227
     59  CA        13.8500   17.0910   50.0940 C.3   137  TYR137      0.1736
     60  C         13.1290   15.9360   49.3300 C.2   137  TYR137      0.2595
     61  O         11.9260   16.0340   49.0500 O.2   137  TYR137     -0.2718
     62  CB        13.2070   18.4490   49.7450 C.3   137  TYR137      0.0548
     63  CG        13.6960   19.6370   50.5910 C.ar  137  TYR137     -0.0200
     64  CD1       13.7820   19.5580   51.9760 C.ar  137  TYR137     -0.0009
     65  CD2       14.0630   20.7910   49.9300 C.ar  137  TYR137     -0.0009
     66  CE1       14.2450   20.6500   52.6980 C.ar  137  TYR137      0.0417
     67  CE2       14.5250   21.8870   50.6310 C.ar  137  TYR137      0.0417
     68  CZ        14.6190   21.8290   52.0100 C.ar  137  TYR137      0.1957
     69  OH        15.0140   22.9670   52.6910 O.3   137  TYR137     -0.2866
     70  N         13.8590   14.8370   49.0360 N.am  138  ALA138     -0.1966
     71  CA        13.2710   13.6770   48.3580 C.3   138  ALA138      0.1728
     72  C         12.9600   12.5590   49.3570 C.2   138  ALA138      0.2616
     73  O         13.8600   11.8220   49.7640 O.2   138  ALA138     -0.2715
     74  CB        14.2100   13.1670   47.2730 C.3   138  ALA138      0.0334
     75  N         11.6860   12.4560   49.7770 N.am  139  LYS139     -0.1977
     76  CA        11.2460   11.4220   50.7180 C.3   139  LYS139      0.1596
     77  C         11.0550   10.0910   50.0030 C.2   139  LYS139      0.2287
     78  O         10.6170   10.0700   48.8530 O.2   139  LYS139     -0.2864
     79  CB         9.9330   11.8400   51.4080 C.3   139  LYS139      0.0298
     80  CG        10.0350   13.1380   52.2020 C.3   139  LYS139      0.0038
     81  CD         8.6900   13.5270   52.7950 C.3   139  LYS139      0.0206
     82  CE         8.7550   14.8280   53.5440 C.3   139  LYS139      0.1093
     83  NZ         7.4310   15.2040   54.1020 N.3   139  LYS139     -0.1314
     84  N          7.3630    9.4310   48.9690 N.3   142  ASP142     -0.1225
     85  CA         6.9580   10.0670   47.7120 C.3   142  ASP142      0.1805
     86  C          7.2270    9.1380   46.5150 C.2   142  ASP142      0.2597
     87  O          6.3700    9.0020   45.6440 O.2   142  ASP142     -0.2718
     88  CB         7.6860   11.4110   47.5210 C.3   142  ASP142      0.1424
     89  CG         7.2940   12.4750   48.5420 C.2   142  ASP142      0.3668
     90  OD1        6.1710   12.3880   49.0910 O.co2 142  ASP142     -0.2456
     91  OD2        8.0670   13.4380   48.7180 O.co2 142  ASP142     -0.2456
     92  N          8.4060    8.4520   46.5040 N.am  143  LEU143     -0.1979
     93  CA         8.7420    7.4940   45.4400 C.3   143  LEU143      0.1596
     94  C          7.8500    6.2510   45.5270 C.2   143  LEU143      0.2287
     95  O          7.4200    5.7250   44.4960 O.2   143  LEU143     -0.2864
     96  CB        10.2240    7.0880   45.5200 C.3   143  LEU143      0.0297
     97  CG        10.7230    6.2010   44.3650 C.3   143  LEU143      0.0022
     98  CD1       10.6580    6.9470   43.0310 C.3   143  LEU143      0.0001
     99  CD2       12.1230    5.7050   44.6280 C.3   143  LEU143      0.0001
    100  N          4.6000    6.9130   43.8090 N.3   146  VAL146     -0.1245
    101  CA         4.7090    6.8740   42.3480 C.3   146  VAL146      0.1561
    102  C          4.7820    5.4070   41.8640 C.2   146  VAL146      0.2260
    103  O          4.0750    5.0400   40.9250 O.2   146  VAL146     -0.2867
    104  CB         5.9200    7.7040   41.8410 C.3   146  VAL146      0.0252
    105  CG1        6.0560    7.6030   40.3190 C.3   146  VAL146      0.0019
    106  CG2        5.7960    9.1660   42.2760 C.3   146  VAL146      0.0019
    107  N         17.0790    1.7720   45.0410 N.3   180  TRP180     -0.1241
    108  CA        16.3170    2.4310   46.1050 C.3   180  TRP180      0.1605
    109  C         15.1300    1.5570   46.5120 C.2   180  TRP180      0.2264
    110  O         14.9590    1.2550   47.6980 O.2   180  TRP180     -0.2867
    111  CB        15.8260    3.8280   45.6490 C.3   180  TRP180      0.0550
    112  CG        15.3750    4.7230   46.7850 C.ar  180  TRP180      0.0003
    113  CD1       15.1610    4.3600   48.0850 C.ar  180  TRP180      0.0946
    114  CD2       15.1270    6.1340   46.7160 C.ar  180  TRP180      0.0152
    115  NE1       14.8060    5.4590   48.8310 N.ar  180  TRP180     -0.2442
    116  CE2       14.7750    6.5620   48.0150 C.ar  180  TRP180      0.0810
    117  CE3       15.2080    7.0910   45.6890 C.ar  180  TRP180      0.0012
    118  CZ2       14.4680    7.8990   48.3060 C.ar  180  TRP180      0.0191
    119  CZ3       14.8860    8.4100   45.9750 C.ar  180  TRP180      0.0001
    120  CH2       14.5190    8.8010   47.2670 C.ar  180  TRP180      0.0015
@<TRIPOS>BOND
     1    24    25    1
     2    25    26    1
     3    25    28    1
     4     7     6    1
     5    26    27    2
     6    26    32   am
     7    31    29    1
     8    32    33    1
     9    33    34    1
    10    29    28    1
    11    29    30    1
    12     6     5    1
    13     6     8    1
    14     5     2    1
    15    34    36   am
    16    34    35    2
    17    42    40    1
    18    36    37    1
    19     2     1    1
    20     2     3    1
    21    21    20    2
    22     3     4    2
    23   105   104    1
    24    40    37    1
    25    40    41    1
    26    37    38    1
    27    23    22    1
    28   103   102    2
    29    20    19    1
    30    22    19    1
    31    38    39    2
    32    38    43   am
    33   104   106    1
    34   104   101    1
    35   102   101    1
    36    19    18    1
    37   101   100    1
    38    18    11   am
    39    43    49    1
    40    43    44    1
    41    49    48    1
    42    98    97    1
    43     9    10    1
    44    11    10    1
    45    11    12    2
    46    44    47    1
    47    44    45    1
    48    48    47    1
    49    13    10    1
    50    13    14    1
    51    97    99    1
    52    97    96    1
    53    14    15    1
    54    95    94    2
    55    45    46    2
    56    45    50   am
    57   107   108    1
    58    56    55   ar
    59    50    51    1
    60    93    96    1
    61    93    94    1
    62    93    92    1
    63    87    86    2
    64   111   108    1
    65   111   112    1
    66   117   119   ar
    67   117   114   ar
    68    15    16    1
    69   119   120   ar
    70    54    55    1
    71    54    51    1
    72   108   109    1
    73    55    57   ar
    74    16    17    1
    75    51    52    1
    76    92    86   am
    77   109   110    2
    78    86    85    1
    79   114   112   ar
    80   114   116   ar
    81   112   113   ar
    82   120   118   ar
    83    74    71    1
    84    88    85    1
    85    88    89    1
    86    85    84    1
    87    52    53    2
    88   116   118   ar
    89   116   115   ar
    90   113   115   ar
    91    71    70    1
    92    71    72    1
    93    89    91   ar
    94    89    90   ar
    95    78    77    2
    96    70    60   am
    97    61    60    2
    98    60    59    1
    99    72    73    2
   100    72    75   am
   101    62    59    1
   102    62    63    1
   103    75    76    1
   104    58    59    1
   105    65    63   ar
   106    65    67   ar
   107    77    76    1
   108    63    64   ar
   109    67    68   ar
   110    76    79    1
   111    79    80    1
   112    64    66   ar
   113    68    69    1
   114    68    66   ar
   115    80    81    1
   116    81    82    1
   117    82    83    1
