@<TRIPOS>MOLECULE
tmp/4rhoB00.pdb
 102 98 0 0 0
SMALL
GASTEIGER

@<TRIPOS>ATOM
      1  N         21.7170  -12.0520   -1.0740 N.3    45  LEU45      -0.1245
      2  CA        22.8390  -12.9930   -1.0590 C.3    45  LEU45       0.1561
      3  C         22.3550  -14.4220   -1.2820 C.2    45  LEU45       0.2260
      4  O         23.0030  -15.1840   -1.9890 O.2    45  LEU45      -0.2867
      5  CB        23.5970  -12.8970    0.2760 C.3    45  LEU45       0.0270
      6  CG        24.3230  -11.5800    0.5380 C.3    45  LEU45       0.0019
      7  CD1       24.7780  -11.4910    1.9700 C.3    45  LEU45       0.0001
      8  CD2       25.5020  -11.4080   -0.4080 C.3    45  LEU45       0.0001
      9  N         21.9400  -15.6640   -4.8000 N.3    48  LYS48      -0.1245
     10  CA        23.1710  -15.9380   -5.5420 C.3    48  LYS48       0.1561
     11  C         23.8370  -17.2370   -5.0530 C.2    48  LYS48       0.2260
     12  O         24.5060  -17.9140   -5.8350 O.2    48  LYS48      -0.2867
     13  CB        24.1590  -14.7530   -5.4100 C.3    48  LYS48       0.0271
     14  CG        23.5180  -13.3640   -5.6410 C.3    48  LYS48       0.0035
     15  CD        23.0290  -13.1780   -7.0820 C.3    48  LYS48       0.0206
     16  CE        22.4130  -11.8170   -7.2910 C.3    48  LYS48       0.1093
     17  NZ        21.8350  -11.6800   -8.6480 N.3    48  LYS48      -0.1314
     18  N         32.0480  -10.7640    2.9980 N.3   132  LEU132     -0.1231
     19  CA        31.6020  -11.9000    2.1660 C.3   132  LEU132      0.1693
     20  C         32.7290  -12.9260    1.8800 C.2   132  LEU132      0.2593
     21  O         32.4390  -14.0990    1.6110 O.2   132  LEU132     -0.2718
     22  CB        31.0330  -11.3870    0.8330 C.3   132  LEU132      0.0284
     23  CG        29.9120  -10.3470    0.9470 C.3   132  LEU132      0.0019
     24  CD1       29.5260   -9.8160   -0.4100 C.3   132  LEU132      0.0001
     25  CD2       28.6940  -10.9230    1.6730 C.3   132  LEU132      0.0001
     26  N         33.9640  -12.4590    1.8280 N.am  133  GLY133     -0.1942
     27  CA        35.0920  -13.3120    1.4700 C.3   133  GLY133      0.2014
     28  C         35.6930  -12.9630    0.1180 C.2   133  GLY133      0.2639
     29  O         35.1500  -12.1260   -0.6090 O.2   133  GLY133     -0.2714
     30  N         36.8540  -13.5750   -0.2120 N.am  134  VAL134     -0.1963
     31  CA        37.5880  -13.2730   -1.4530 C.3   134  VAL134      0.1712
     32  C         36.7560  -13.6930   -2.6910 C.2   134  VAL134      0.2458
     33  O         36.3410  -14.8490   -2.8000 O.2   134  VAL134     -0.2730
     34  CB        38.9960  -13.9510   -1.4640 C.3   134  VAL134      0.0289
     35  CG1       39.7320  -13.6710   -2.7730 C.3   134  VAL134      0.0023
     36  CG2       39.8280  -13.4990   -0.2710 C.3   134  VAL134      0.0023
     37  N         36.5150  -12.7560   -3.6460 N.am  135  PRO135     -0.2716
     38  CA        35.7540  -13.1230   -4.8510 C.3   135  PRO135      0.1536
     39  C         36.5460  -14.0640   -5.7680 C.2   135  PRO135      0.2598
     40  O         37.7340  -13.8330   -6.0250 O.2   135  PRO135     -0.2715
     41  CB        35.4890  -11.7740   -5.5250 C.3   135  PRO135      0.0310
     42  CG        36.5950  -10.9090   -5.0790 C.3   135  PRO135      0.0237
     43  CD        36.9310  -11.3400   -3.6750 C.3   135  PRO135      0.0939
     44  N         35.9000  -15.1370   -6.2330 N.am  136  ASP136     -0.1972
     45  CA        36.5320  -16.1050   -7.1250 C.3   136  ASP136      0.1709
     46  C         36.2960  -15.7130   -8.6070 C.2   136  ASP136      0.2293
     47  O         35.8200  -14.6110   -8.8820 O.2   136  ASP136     -0.2864
     48  CB        36.0010  -17.5300   -6.8390 C.3   136  ASP136      0.1436
     49  CG        34.4920  -17.6780   -7.0070 C.2   136  ASP136      0.3671
     50  OD1       34.0580  -18.7190   -7.5160 O.co2 136  ASP136     -0.2456
     51  OD2       33.7530  -16.7520   -6.6020 O.co2 136  ASP136     -0.2456
     52  N         32.6960  -14.5630   -9.8650 N.3   139  ALA139     -0.1231
     53  CA        32.1360  -13.3770   -9.2140 C.3   139  ALA139      0.1694
     54  C         31.8340  -12.2840  -10.2430 C.2   139  ALA139      0.2591
     55  O         32.7440  -11.5700  -10.6800 O.2   139  ALA139     -0.2718
     56  CB        33.0930  -12.8560   -8.1530 C.3   139  ALA139      0.0304
     57  N         30.5670  -12.1980  -10.6800 N.am  140  LYS140     -0.1980
     58  CA        30.1360  -11.1960  -11.6580 C.3   140  LYS140      0.1596
     59  C         29.9360   -9.8540  -10.9850 C.2   140  LYS140      0.2287
     60  O         29.4800   -9.8040   -9.8410 O.2   140  LYS140     -0.2864
     61  CB        28.8320  -11.6390  -12.3490 C.3   140  LYS140      0.0298
     62  CG        28.9340  -12.9830  -13.0620 C.3   140  LYS140      0.0038
     63  CD        27.5910  -13.4010  -13.6490 C.3   140  LYS140      0.0206
     64  CE        27.6600  -14.7450  -14.3240 C.3   140  LYS140      0.1093
     65  NZ        26.3460  -15.1400  -14.8940 N.3   140  LYS140     -0.1314
     66  N         26.2640   -9.2250  -10.0320 N.3   143  ASP143     -0.1225
     67  CA        25.8760   -9.8480   -8.7590 C.3   143  ASP143      0.1805
     68  C         26.1190   -8.8840   -7.5810 C.2   143  ASP143      0.2597
     69  O         25.2400   -8.7140   -6.7400 O.2   143  ASP143     -0.2718
     70  CB        26.6510  -11.1660   -8.5380 C.3   143  ASP143      0.1424
     71  CG        26.3660  -12.2400   -9.5830 C.2   143  ASP143      0.3668
     72  OD1       25.2660  -12.2120  -10.1790 O.co2 143  ASP143     -0.2456
     73  OD2       27.2000  -13.1610   -9.7290 O.co2 143  ASP143     -0.2456
     74  N         27.3080   -8.2150   -7.5520 N.am  144  LEU144     -0.1979
     75  CA        27.6320   -7.2430   -6.4970 C.3   144  LEU144      0.1596
     76  C         26.7350   -6.0050   -6.5990 C.2   144  LEU144      0.2287
     77  O         26.2970   -5.4750   -5.5770 O.2   144  LEU144     -0.2864
     78  CB        29.1090   -6.8300   -6.5680 C.3   144  LEU144      0.0297
     79  CG        29.6000   -5.9350   -5.4060 C.3   144  LEU144      0.0022
     80  CD1       29.5450   -6.6810   -4.0810 C.3   144  LEU144      0.0001
     81  CD2       30.9940   -5.4300   -5.6620 C.3   144  LEU144      0.0001
     82  N         23.4910   -6.6830   -4.8960 N.3   147  VAL147     -0.1245
     83  CA        23.5970   -6.6390   -3.4390 C.3   147  VAL147      0.1561
     84  C         23.6550   -5.1720   -2.9620 C.2   147  VAL147      0.2260
     85  O         22.9490   -4.8090   -2.0260 O.2   147  VAL147     -0.2867
     86  CB        24.8140   -7.4560   -2.9260 C.3   147  VAL147      0.0252
     87  CG1       24.9480   -7.3510   -1.4050 C.3   147  VAL147      0.0019
     88  CG2       24.7070   -8.9170   -3.3590 C.3   147  VAL147      0.0019
     89  N         35.9410   -1.4590   -6.0970 N.3   181  TRP181     -0.1241
     90  CA        35.1840   -2.1340   -7.1540 C.3   181  TRP181      0.1605
     91  C         33.9930   -1.2740   -7.5660 C.2   181  TRP181      0.2264
     92  O         33.8200   -0.9810   -8.7550 O.2   181  TRP181     -0.2867
     93  CB        34.7030   -3.5330   -6.6830 C.3   181  TRP181      0.0550
     94  CG        34.2530   -4.4400   -7.8070 C.ar  181  TRP181      0.0003
     95  CD1       34.0400   -4.0930   -9.1110 C.ar  181  TRP181      0.0946
     96  CD2       34.0090   -5.8480   -7.7220 C.ar  181  TRP181      0.0152
     97  NE1       33.6900   -5.2020   -9.8450 N.ar  181  TRP181     -0.2442
     98  CE2       33.6620   -6.2940   -9.0170 C.ar  181  TRP181      0.0810
     99  CE3       34.0990   -6.7910   -6.6850 C.ar  181  TRP181      0.0012
    100  CZ2       33.3570   -7.6300   -9.2920 C.ar  181  TRP181      0.0191
    101  CZ3       33.7840   -8.1130   -6.9560 C.ar  181  TRP181      0.0001
    102  CH2       33.4140   -8.5190   -8.2440 C.ar  181  TRP181      0.0015
@<TRIPOS>BOND
     1    65    64    1
     2    64    63    1
     3    63    62    1
     4    62    61    1
     5    61    58    1
     6    58    59    1
     7    58    57    1
     8    59    60    2
     9    55    54    2
    10    57    54   am
    11    54    53    1
    12    72    71   ar
    13    66    67    1
    14    52    53    1
    15    97    95   ar
    16    97    98   ar
    17    73    71   ar
    18    71    70    1
    19   100    98   ar
    20   100   102   ar
    21    53    56    1
    22    95    94   ar
    23    98    96   ar
    24    47    46    2
    25    67    70    1
    26    67    68    1
    27    92    91    2
    28    17    16    1
    29    46    45    1
    30   102   101   ar
    31    94    96   ar
    32    94    93    1
    33    96    99   ar
    34    68    74   am
    35    68    69    2
    36    91    90    1
    37    74    75    1
    38    50    49   ar
    39    16    15    1
    40    90    93    1
    41    90    89    1
    42    45    48    1
    43    45    44    1
    44    15    14    1
    45    49    48    1
    46    49    51   ar
    47   101    99   ar
    48    76    75    1
    49    76    77    2
    50    78    75    1
    51    78    79    1
    52    44    39   am
    53    40    39    2
    54    12    11    2
    55    39    38    1
    56    81    79    1
    57    14    13    1
    58    10    13    1
    59    10    11    1
    60    10     9    1
    61    41    42    1
    62    41    38    1
    63    79    80    1
    64    42    43    1
    65    82    83    1
    66    38    37    1
    67    43    37    1
    68    37    32   am
    69    83    84    1
    70    83    86    1
    71    88    86    1
    72    84    85    2
    73    86    87    1
    74    33    32    2
    75    35    34    1
    76    32    31    1
    77     4     3    2
    78    34    31    1
    79    34    36    1
    80    31    30    1
    81     3     2    1
    82     1     2    1
    83     2     5    1
    84    29    28    2
    85    24    23    1
    86     8     6    1
    87    30    28   am
    88    28    27    1
    89     5     6    1
    90     6     7    1
    91    22    23    1
    92    22    19    1
    93    23    25    1
    94    27    26    1
    95    21    20    2
    96    26    20   am
    97    20    19    1
    98    19    18    1
