@<TRIPOS>MOLECULE
tmp/4rhsC00.pdb
 112 107 0 0 0
SMALL
GASTEIGER

@<TRIPOS>ATOM
      1  N        -20.7460   -0.6990  -22.8350 N.3     9  ALA9       -0.1231
      2  CA       -21.2250   -1.2240  -21.5630 C.3     9  ALA9        0.1694
      3  C        -21.4260   -0.0730  -20.6030 C.2     9  ALA9        0.2592
      4  O        -20.7180    0.9110  -20.6790 O.2     9  ALA9       -0.2718
      5  CB       -20.2440   -2.2210  -20.9860 C.3     9  ALA9        0.0304
      6  N        -22.3890   -0.1820  -19.7060 N.am   10  TYR10      -0.1962
      7  CA       -22.5410    0.8730  -18.7230 C.3    10  TYR10       0.1771
      8  C        -22.8710    0.2900  -17.3610 C.2    10  TYR10       0.2620
      9  O        -23.2780   -0.8650  -17.2470 O.2    10  TYR10      -0.2715
     10  CB       -23.5970    1.8820  -19.1740 C.3    10  TYR10       0.0574
     11  CG       -24.9690    1.3100  -19.3720 C.ar   10  TYR10      -0.0198
     12  CD1      -25.8640    1.2200  -18.3120 C.ar   10  TYR10      -0.0009
     13  CD2      -25.3840    0.8760  -20.6210 C.ar   10  TYR10      -0.0009
     14  CE1      -27.1320    0.6950  -18.4900 C.ar   10  TYR10       0.0417
     15  CE2      -26.6460    0.3550  -20.8080 C.ar   10  TYR10       0.0417
     16  CZ       -27.5150    0.2690  -19.7390 C.ar   10  TYR10       0.1957
     17  OH       -28.7700   -0.2520  -19.9200 O.3    10  TYR10      -0.2866
     18  N        -22.6480    1.0920  -16.3290 N.am   11  TYR11      -0.1960
     19  CA       -22.8610    0.6780  -14.9470 C.3    11  TYR11       0.1771
     20  C        -23.5440    1.8190  -14.2100 C.2    11  TYR11       0.2620
     21  O        -23.0690    2.9530  -14.2520 O.2    11  TYR11      -0.2715
     22  CB       -21.5330    0.3320  -14.2670 C.3    11  TYR11       0.0574
     23  CG       -20.7000   -0.6910  -15.0200 C.ar   11  TYR11      -0.0198
     24  CD1      -19.8090   -0.2960  -16.0110 C.ar   11  TYR11      -0.0009
     25  CD2      -20.8130   -2.0500  -14.7420 C.ar   11  TYR11      -0.0009
     26  CE1      -19.0420   -1.2300  -16.7040 C.ar   11  TYR11       0.0417
     27  CE2      -20.0530   -2.9940  -15.4340 C.ar   11  TYR11       0.0417
     28  CZ       -19.1730   -2.5730  -16.4100 C.ar   11  TYR11       0.1957
     29  OH       -18.4090   -3.4890  -17.1030 O.3    11  TYR11      -0.2866
     30  N        -24.6490    1.5190  -13.5380 N.am   12  SER12      -0.1936
     31  CA       -25.4670    2.5550  -12.9120 C.3    12  SER12       0.2055
     32  C        -25.2720    2.6400  -11.4010 C.2    12  SER12       0.2643
     33  O        -24.7700    1.7010  -10.7750 O.2    12  SER12      -0.2714
     34  CB       -26.9470    2.2990  -13.2030 C.3    12  SER12       0.2130
     35  OG       -27.1680    2.1120  -14.5840 O.3    12  SER12      -0.2179
     36  N        -25.6870    3.7640  -10.8220 N.am   13  ASP13      -0.1971
     37  CA       -25.6690    3.9400   -9.3750 C.3    13  ASP13       0.1709
     38  C        -24.2490    3.7710   -8.8540 C.2    13  ASP13       0.2293
     39  O        -24.0250    3.1570   -7.8160 O.2    13  ASP13      -0.2864
     40  CB       -26.6250    2.9420   -8.7000 C.3    13  ASP13       0.1436
     41  CG       -27.9680    2.8450   -9.4160 C.2    13  ASP13       0.3671
     42  OD1      -28.7330    3.8300   -9.3700 O.co2  13  ASP13      -0.2456
     43  OD2      -28.2640    1.7820  -10.0170 O.co2  13  ASP13      -0.2456
     44  N        -20.1200    1.0630   -6.5090 N.3    36  LYS36      -0.1245
     45  CA       -21.5350    1.2210   -6.2170 C.3    36  LYS36       0.1561
     46  C        -21.7330    2.1550   -5.0370 C.2    36  LYS36       0.2260
     47  O        -21.0050    2.0900   -4.0410 O.2    36  LYS36      -0.2867
     48  CB       -22.1900   -0.1350   -5.9370 C.3    36  LYS36       0.0271
     49  CG       -22.2450   -1.0380   -7.1450 C.3    36  LYS36       0.0035
     50  CD       -23.2850   -0.5600   -8.1350 C.3    36  LYS36       0.0206
     51  CE       -23.3250   -1.4680   -9.3470 C.3    36  LYS36       0.1093
     52  NZ       -24.4770   -1.1660  -10.2320 N.3    36  LYS36      -0.1314
     53  N        -24.0410    2.0310   -2.9020 N.3    38  ASN38      -0.1240
     54  CA       -24.4160    1.2750   -1.7070 C.3    38  ASN38       0.1653
     55  C        -23.3630    0.2590   -1.2570 C.2    38  ASN38       0.2266
     56  O        -23.6150   -0.5380   -0.3510 O.2    38  ASN38      -0.2867
     57  CB       -25.7610    0.5670   -1.9140 C.3    38  ASN38       0.1155
     58  CG       -25.7440   -0.4100   -3.0700 C.2    38  ASN38       0.2627
     59  OD1      -24.6880   -0.8490   -3.5200 O.2    38  ASN38      -0.2716
     60  ND2      -26.9280   -0.7570   -3.5590 N.am   38  ASN38      -0.0877
     61  N        -21.8380   -2.4060   -2.6690 N.3    40  SER40      -0.1202
     62  CA       -21.7180   -3.7430   -3.2440 C.3    40  SER40       0.2020
     63  C        -20.7990   -3.7610   -4.4640 C.2    40  SER40       0.2619
     64  O        -20.0830   -2.7980   -4.7330 O.2    40  SER40      -0.2717
     65  CB       -23.0910   -4.2760   -3.6480 C.3    40  SER40       0.2103
     66  OG       -23.5120   -3.6890   -4.8690 O.3    40  SER40      -0.2182
     67  N        -20.8260   -4.8720   -5.1950 N.am   41  GLY41      -0.1942
     68  CA       -20.1700   -4.9670   -6.4860 C.3    41  GLY41       0.2014
     69  C        -18.6600   -4.8260   -6.5120 C.2    41  GLY41       0.2639
     70  O        -17.9990   -4.7260   -5.4760 O.2    41  GLY41      -0.2714
     71  N        -18.1250   -4.8250   -7.7300 N.am   42  THR42      -0.1950
     72  CA       -16.6960   -4.7220   -7.9820 C.3    42  THR42       0.1897
     73  C        -16.4350   -3.3800   -8.6580 C.2    42  THR42       0.2313
     74  O        -17.2430   -2.9450   -9.4770 O.2    42  THR42      -0.2863
     75  CB       -16.2050   -5.8800   -8.8760 C.3    42  THR42       0.1794
     76  OG1      -16.7390   -7.1180   -8.3930 O.3    42  THR42      -0.2208
     77  CG2      -14.6860   -5.9650   -8.8930 C.3    42  THR42       0.0378
     78  N        -24.0880    7.1130  -13.7350 N.3    77  ARG77      -0.1245
     79  CA       -23.9210    5.9890  -14.6310 C.3    77  ARG77       0.1563
     80  C        -22.6800    6.2290  -15.4760 C.2    77  ARG77       0.2260
     81  O        -22.5380    7.2760  -16.1160 O.2    77  ARG77      -0.2867
     82  CB       -25.1430    5.7900  -15.5310 C.3    77  ARG77       0.0307
     83  CG       -24.9330    4.7170  -16.5970 C.3    77  ARG77       0.0489
     84  CD       -26.1620    4.5630  -17.4770 C.3    77  ARG77       0.2205
     85  NE       -27.2430    3.8910  -16.7700 N.pl3  77  ARG77      -0.0865
     86  CZ       -28.4920    3.8070  -17.2180 C.cat  77  ARG77       0.5346
     87  NH1      -28.8180    4.3780  -18.3700 N.pl3  77  ARG77       0.1354
     88  NH2      -29.4180    3.1730  -16.5070 N.pl3  77  ARG77       0.1354
     89  N        -15.1840   -1.4780  -23.9200 N.3    82  LYS82      -0.1245
     90  CA       -14.1760   -2.4100  -23.4240 C.3    82  LYS82       0.1561
     91  C        -13.0360   -2.6140  -24.4190 C.2    82  LYS82       0.2260
     92  O        -13.1960   -2.3890  -25.6200 O.2    82  LYS82      -0.2867
     93  CB       -14.8290   -3.7590  -23.0760 C.3    82  LYS82       0.0271
     94  CG       -15.7070   -3.6950  -21.8150 C.3    82  LYS82       0.0035
     95  CD       -16.3860   -5.0200  -21.5000 C.3    82  LYS82       0.0206
     96  CE       -17.2330   -4.9080  -20.2340 C.3    82  LYS82       0.1093
     97  NZ       -18.2040   -6.0340  -20.0880 N.3    82  LYS82      -0.1314
     98  N        -34.0900    8.0000  -12.3820 N.3   109  GLN109     -0.1231
     99  CA       -33.2310    6.9370  -12.8710 C.3   109  GLN109      0.1698
    100  C        -31.9370    7.5800  -13.3220 C.2   109  GLN109      0.2592
    101  O        -31.6280    8.7110  -12.9360 O.2   109  GLN109     -0.2718
    102  CB       -33.8910    6.1810  -14.0290 C.3   109  GLN109      0.0381
    103  CG       -34.3040    7.0890  -15.1880 C.3   109  GLN109      0.0905
    104  CD       -35.2470    6.4160  -16.1730 C.2   109  GLN109      0.2608
    105  OE1      -35.1480    5.2140  -16.4310 O.2   109  GLN109     -0.2717
    106  NE2      -36.1740    7.1950  -16.7260 N.am  109  GLN109     -0.0878
    107  N        -31.1870    6.8730  -14.1550 N.am  110  CYS110     -0.1970
    108  CA       -30.0180    7.4710  -14.7690 C.3   110  CYS110      0.1712
    109  C        -30.3980    8.1340  -16.0860 C.2   110  CYS110      0.2296
    110  O        -31.1270    7.5630  -16.8990 O.2   110  CYS110     -0.2864
    111  CB       -28.9340    6.4260  -14.9720 C.3   110  CYS110      0.0983
    112  SG       -28.4570    5.6720  -13.4220 S.3   110  CYS110     -0.0798
@<TRIPOS>BOND
     1    92    91    2
     2    91    90    1
     3    89    90    1
     4    90    93    1
     5    93    94    1
     6     1     2    1
     7    94    95    1
     8     2     5    1
     9     2     3    1
    10    95    96    1
    11    15    13   ar
    12    15    16   ar
    13     4     3    2
    14    13    11   ar
    15     3     6   am
    16    96    97    1
    17    17    16    1
    18    16    14   ar
    19     6     7    1
    20    11    10    1
    21    11    12   ar
    22    10     7    1
    23     7     8    1
    24    14    12   ar
    25    87    86    1
    26    84    85    1
    27    84    83    1
    28     8     9    2
    29     8    18   am
    30    86    85    2
    31    86    88    1
    32    29    28    1
    33   110   109    2
    34   106   104   am
    35    26    28   ar
    36    26    24   ar
    37    83    82    1
    38   105   104    2
    39    28    27   ar
    40    18    19    1
    41   104   103    1
    42    81    80    2
    43   109   108    1
    44    24    23   ar
    45    82    79    1
    46    80    79    1
    47    27    25   ar
    48   103   102    1
    49    23    25   ar
    50    23    22    1
    51   111   108    1
    52   111   112    1
    53    19    22    1
    54    19    20    1
    55   108   107    1
    56    79    78    1
    57    35    34    1
    58    21    20    2
    59    20    30   am
    60   107   100   am
    61   102    99    1
    62    30    31    1
    63   100   101    2
    64   100    99    1
    65    34    31    1
    66    31    32    1
    67    99    98    1
    68    32    36   am
    69    32    33    2
    70    36    37    1
    71    52    51    1
    72    43    41   ar
    73    74    73    2
    74    41    42   ar
    75    41    40    1
    76    37    38    1
    77    37    40    1
    78    51    50    1
    79    77    75    1
    80    75    76    1
    81    75    72    1
    82    38    39    2
    83    73    72    1
    84    50    49    1
    85    72    71    1
    86    71    69   am
    87    49    48    1
    88    69    68    1
    89    69    70    2
    90    44    45    1
    91    68    67    1
    92    45    48    1
    93    45    46    1
    94    67    63   am
    95    46    47    2
    96    66    65    1
    97    64    63    2
    98    63    62    1
    99    65    62    1
   100    60    58   am
   101    59    58    2
   102    62    61    1
   103    58    57    1
   104    53    54    1
   105    57    54    1
   106    54    55    1
   107    55    56    2
