@<TRIPOS>MOLECULE
tmp/4rhtC01.pdb
 94 89 0 0 0
SMALL
GASTEIGER

@<TRIPOS>ATOM
      1  N         35.7910   80.5070   -8.5400 N.3    89  ASP89      -0.1225
      2  CA        36.2390   81.4310   -9.5780 C.3    89  ASP89       0.1805
      3  C         37.6810   81.1510  -10.0000 C.2    89  ASP89       0.2597
      4  O         37.9530   80.9040  -11.1740 O.2    89  ASP89      -0.2718
      5  CB        36.0920   82.8830   -9.1030 C.3    89  ASP89       0.1424
      6  CG        36.6340   83.1030   -7.7000 C.2    89  ASP89       0.3668
      7  OD1       36.6000   82.1550   -6.8880 O.co2  89  ASP89      -0.2456
      8  OD2       37.0900   84.2290   -7.4090 O.co2  89  ASP89      -0.2456
      9  N         38.6010   81.1830   -9.0400 N.am   90  VAL90      -0.1980
     10  CA        40.0100   80.9390   -9.3240 C.3    90  VAL90       0.1595
     11  C         40.6800   80.1970   -8.1660 C.2    90  VAL90       0.2287
     12  O         40.4730   80.5290   -6.9990 O.2    90  VAL90      -0.2864
     13  CB        40.7580   82.2620   -9.6160 C.3    90  VAL90       0.0276
     14  CG1       40.5030   83.2860   -8.5190 C.3    90  VAL90       0.0022
     15  CG2       42.2490   82.0150   -9.7960 C.3    90  VAL90       0.0022
     16  N         44.2020   78.9990   -6.4160 N.3    92  ASP92      -0.1225
     17  CA        45.6230   79.2960   -6.3910 C.3    92  ASP92       0.1805
     18  C         46.3050   78.7570   -5.1440 C.2    92  ASP92       0.2598
     19  O         46.6190   77.5730   -5.0520 O.2    92  ASP92      -0.2718
     20  CB        45.8450   80.7980   -6.5040 C.3    92  ASP92       0.1424
     21  CG        45.4290   82.1260   -6.0350 C.2    92  ASP92       0.3668
     22  OD1       45.2870   82.5910   -4.8710 O.co2  92  ASP92      -0.2456
     23  OD2       45.2720   82.9690   -7.0560 O.co2  92  ASP92      -0.2456
     24  N         46.5440   79.6440   -4.1910 N.am   93  SER93      -0.1952
     25  CA        47.4390   79.3610   -3.0840 C.3    93  SER93       0.1924
     26  C         46.6290   79.0380   -1.8490 C.2    93  SER93       0.2314
     27  O         47.0770   78.3070   -0.9590 O.2    93  SER93      -0.2863
     28  CB        48.3590   80.5610   -2.8210 C.3    93  SER93       0.2116
     29  OG        47.6200   81.7570   -2.6180 O.3    93  SER93      -0.2180
     30  N         41.4810   77.8590    1.2430 N.3    96  THR96      -0.1218
     31  CA        40.0670   78.1630    1.4100 C.3    96  THR96       0.1862
     32  C         39.2080   77.0560    0.8150 C.2    96  THR96       0.2287
     33  O         38.2030   76.6560    1.4010 O.2    96  THR96      -0.2866
     34  CB        39.6880   79.5020    0.7410 C.3    96  THR96       0.1770
     35  OG1       40.5850   80.5330    1.1740 O.3    96  THR96      -0.2211
     36  CG2       38.2610   79.8910    1.0970 C.3    96  THR96       0.0375
     37  N         45.2540   78.5160  -11.4530 N.3   120  LYS120     -0.1245
     38  CA        46.6260   79.0030  -11.2620 C.3   120  LYS120      0.1561
     39  C         47.6210   77.8390  -11.3580 C.2   120  LYS120      0.2260
     40  O         47.2030   76.6830  -11.2410 O.2   120  LYS120     -0.2867
     41  CB        46.7260   79.7010   -9.9190 C.3   120  LYS120      0.0271
     42  CG        45.9530   81.0330   -9.8170 C.3   120  LYS120      0.0035
     43  CD        46.4030   82.0240  -10.8830 C.3   120  LYS120      0.0206
     44  CE        45.6650   83.3590  -10.7710 C.3   120  LYS120      0.1093
     45  NZ        46.1930   84.3390  -11.7680 N.3   120  LYS120     -0.1314
     46  N         49.5280   85.1920  -12.7760 N.3   139  ASP139     -0.1225
     47  CA        49.4770   86.6450  -12.8260 C.3   139  ASP139      0.1805
     48  C         48.1290   87.1410  -12.3350 C.2   139  ASP139      0.2598
     49  O         47.0920   86.5820  -12.6900 O.2   139  ASP139     -0.2718
     50  CB        49.7490   87.1400  -14.2370 C.3   139  ASP139      0.1424
     51  CG        48.7700   86.7920  -15.2270 C.2   139  ASP139      0.3668
     52  OD1       47.7440   86.1060  -14.9720 O.co2 139  ASP139     -0.2456
     53  OD2       48.9240   87.2350  -16.4250 O.co2 139  ASP139     -0.2456
     54  N         48.1480   88.1850  -11.5110 N.am  140  PHE140     -0.1962
     55  CA        46.9140   88.7530  -10.9850 C.3   140  PHE140      0.1771
     56  C         46.0590   89.2750  -12.1300 C.2   140  PHE140      0.2619
     57  O         46.5120   90.0820  -12.9410 O.2   140  PHE140     -0.2715
     58  CB        47.2050   89.8690   -9.9820 C.3   140  PHE140      0.0574
     59  CG        46.0150   90.2550   -9.1480 C.ar  140  PHE140     -0.0200
     60  CD1       45.1310   91.2280   -9.5840 C.ar  140  PHE140     -0.0042
     61  CD2       45.7770   89.6370   -7.9310 C.ar  140  PHE140     -0.0042
     62  CE1       44.0350   91.5820   -8.8190 C.ar  140  PHE140     -0.0003
     63  CE2       44.6830   89.9860   -7.1620 C.ar  140  PHE140     -0.0003
     64  CZ        43.8110   90.9600   -7.6060 C.ar  140  PHE140     -0.0000
     65  N         44.8200   88.8030  -12.1910 N.am  141  VAL141     -0.1963
     66  CA        43.9390   89.1170  -13.3030 C.3   141  VAL141      0.1727
     67  C         42.5310   89.4220  -12.7900 C.2   141  VAL141      0.2616
     68  O         42.1130   88.9050  -11.7580 O.2   141  VAL141     -0.2715
     69  CB        43.9090   87.9520  -14.3250 C.3   141  VAL141      0.0290
     70  CG1       43.1330   86.7610  -13.7780 C.3   141  VAL141      0.0023
     71  CG2       43.3360   88.4060  -15.6500 C.3   141  VAL141      0.0023
     72  N         41.8130   90.2860  -13.4980 N.am  142  VAL142     -0.1977
     73  CA        40.4600   90.6600  -13.1040 C.3   142  VAL142      0.1596
     74  C         39.4560   90.2720  -14.1830 C.2   142  VAL142      0.2287
     75  O         39.7360   89.4220  -15.0290 O.2   142  VAL142     -0.2864
     76  CB        40.3500   92.1730  -12.8260 C.3   142  VAL142      0.0276
     77  CG1       41.1400   92.5450  -11.5810 C.3   142  VAL142      0.0022
     78  CG2       40.8320   92.9690  -14.0280 C.3   142  VAL142      0.0022
     79  N         35.9500   88.2460  -11.2280 N.3   146  LEU146     -0.1231
     80  CA        37.1590   88.5680  -10.4780 C.3   146  LEU146      0.1693
     81  C         37.2460   90.0710  -10.2560 C.2   146  LEU146      0.2592
     82  O         36.6870   90.8510  -11.0270 O.2   146  LEU146     -0.2718
     83  CB        38.4050   88.0580  -11.2040 C.3   146  LEU146      0.0284
     84  CG        38.8880   86.6490  -10.8500 C.3   146  LEU146      0.0019
     85  CD1       37.7890   85.6140  -11.0430 C.3   146  LEU146      0.0001
     86  CD2       40.1090   86.2870  -11.6790 C.3   146  LEU146      0.0001
     87  N         37.9500   90.4770   -9.2040 N.am  147  ASP147     -0.1974
     88  CA        37.9610   91.8780   -8.8090 C.3   147  ASP147      0.1709
     89  C         39.2860   92.3320   -8.2070 C.2   147  ASP147      0.2293
     90  O         40.1090   91.5160   -7.7920 O.2   147  ASP147     -0.2864
     91  CB        36.8310   92.1430   -7.8100 C.3   147  ASP147      0.1436
     92  CG        36.9000   91.2320   -6.5970 C.2   147  ASP147      0.3671
     93  OD1       36.2340   90.1730   -6.6040 O.co2 147  ASP147     -0.2456
     94  OD2       37.6200   91.5760   -5.6350 O.co2 147  ASP147     -0.2456
@<TRIPOS>BOND
     1    53    51   ar
     2    71    69    1
     3    51    52   ar
     4    51    50    1
     5    75    74    2
     6    69    70    1
     7    69    66    1
     8    50    47    1
     9    74    73    1
    10    78    76    1
    11    72    73    1
    12    72    67   am
    13    66    67    1
    14    66    65    1
    15    73    76    1
    16    57    56    2
    17    47    46    1
    18    47    48    1
    19    76    77    1
    20    67    68    2
    21    49    48    2
    22    48    54   am
    23    65    56   am
    24    56    55    1
    25    45    44    1
    26    86    84    1
    27    54    55    1
    28    37    38    1
    29    39    38    1
    30    39    40    2
    31    38    41    1
    32    79    80    1
    33    83    84    1
    34    83    80    1
    35     4     3    2
    36    85    84    1
    37    82    81    2
    38    55    58    1
    39    43    44    1
    40    43    42    1
    41    80    81    1
    42    81    87   am
    43     3     2    1
    44     3     9   am
    45    58    59    1
    46    41    42    1
    47    15    13    1
    48    13    10    1
    49    13    14    1
    50    60    59   ar
    51    60    62   ar
    52     2     5    1
    53     2     1    1
    54    10     9    1
    55    10    11    1
    56    87    88    1
    57    59    61   ar
    58     5     6    1
    59    62    64   ar
    60    88    89    1
    61    88    91    1
    62    89    90    2
    63    11    12    2
    64    61    63   ar
    65    91    92    1
    66     6     8   ar
    67     6     7   ar
    68    64    63   ar
    69    23    21   ar
    70    93    92   ar
    71    92    94   ar
    72    20    17    1
    73    20    21    1
    74    16    17    1
    75    17    18    1
    76    21    22   ar
    77    18    19    2
    78    18    24   am
    79    24    25    1
    80    25    28    1
    81    25    26    1
    82    28    29    1
    83    26    27    2
    84    34    36    1
    85    34    35    1
    86    34    31    1
    87    32    33    2
    88    32    31    1
    89    30    31    1
