@<TRIPOS>MOLECULE
tmp/4rhuA00.pdb
 156 150 0 0 0
SMALL
GASTEIGER

@<TRIPOS>ATOM
      1  N         40.9630    8.4020   -9.4110 N.3    49  LEU49      -0.1231
      2  CA        40.1140    9.4720   -8.9020 C.3    49  LEU49       0.1693
      3  C         38.6410    9.0620   -8.9010 C.2    49  LEU49       0.2592
      4  O         38.1870    8.3680   -9.8080 O.2    49  LEU49      -0.2718
      5  CB        40.3140   10.7430   -9.7340 C.3    49  LEU49       0.0284
      6  CG        41.2880   11.7890   -9.1850 C.3    49  LEU49       0.0019
      7  CD1       42.6080   11.1550   -8.7880 C.3    49  LEU49       0.0001
      8  CD2       41.5150   12.8940  -10.2080 C.3    49  LEU49       0.0001
      9  N         37.8970    9.4770   -7.8790 N.am   50  LYS50      -0.1966
     10  CA        38.4390   10.2530   -6.7670 C.3    50  LYS50       0.1728
     11  C         37.8930    9.7660   -5.4290 C.2    50  LYS50       0.2616
     12  O         37.6620   10.5590   -4.5190 O.2    50  LYS50      -0.2715
     13  CB        38.1260   11.7390   -6.9510 C.3    50  LYS50       0.0311
     14  CG        36.6710   12.0270   -7.2600 C.3    50  LYS50       0.0038
     15  CD        36.4310   13.5140   -7.4080 C.3    50  LYS50       0.0206
     16  CE        35.0300   13.7930   -7.9120 C.3    50  LYS50       0.1093
     17  NZ        34.7630   15.2520   -7.9990 N.3    50  LYS50      -0.1314
     18  N         37.6920    8.4580   -5.3160 N.am   51  GLY51      -0.1955
     19  CA        37.1290    7.8780   -4.1110 C.3    51  GLY51       0.1869
     20  C         38.1650    7.5440   -3.0570 C.2    51  GLY51       0.2309
     21  O         37.9340    7.7430   -1.8640 O.2    51  GLY51      -0.2863
     22  N         42.8400    1.3240   -3.3970 N.3   100  GLU100     -0.1231
     23  CA        41.4290    1.4130   -3.7570 C.3   100  GLU100      0.1699
     24  C         40.5450    1.6970   -2.5470 C.2   100  GLU100      0.2592
     25  O         40.9210    1.4230   -1.4050 O.2   100  GLU100     -0.2718
     26  CB        40.9740    0.1230   -4.4450 C.3   100  GLU100      0.0402
     27  CG        40.7790    0.2600   -5.9500 C.3   100  GLU100      0.1161
     28  CD        39.6140    1.1650   -6.3040 C.2   100  GLU100      0.3649
     29  OE1       38.6470    1.2270   -5.5160 O.co2 100  GLU100     -0.2457
     30  OE2       39.6650    1.8190   -7.3660 O.co2 100  GLU100     -0.2457
     31  N         39.3640    2.2480   -2.8080 N.am  101  ASP101     -0.1960
     32  CA        38.4070    2.5580   -1.7550 C.3   101  ASP101      0.1840
     33  C         37.4830    1.3750   -1.4740 C.2   101  ASP101      0.2622
     34  O         37.3730    0.9210   -0.3340 O.2   101  ASP101     -0.2715
     35  CB        37.5880    3.7980   -2.1270 C.3   101  ASP101      0.1450
     36  CG        37.1360    3.7890   -3.5780 C.2   101  ASP101      0.3671
     37  OD1       37.7910    3.1200   -4.4060 O.co2 101  ASP101     -0.2456
     38  OD2       36.1290    4.4580   -3.8930 O.co2 101  ASP101     -0.2456
     39  N         36.8190    0.8800   -2.5140 N.am  102  VAL102     -0.1963
     40  CA        35.9090   -0.2530   -2.3780 C.3   102  VAL102      0.1727
     41  C         36.0740   -1.2500   -3.5250 C.2   102  VAL102      0.2616
     42  O         36.0810   -0.8690   -4.6960 O.2   102  VAL102     -0.2715
     43  CB        34.4340    0.2040   -2.3290 C.3   102  VAL102      0.0290
     44  CG1       33.5000   -0.9910   -2.4150 C.3   102  VAL102      0.0023
     45  CG2       34.1600    1.0010   -1.0660 C.3   102  VAL102      0.0023
     46  N         36.2100   -2.5260   -3.1790 N.am  103  VAL103     -0.1963
     47  CA        36.2320   -3.5930   -4.1700 C.3   103  VAL103      0.1727
     48  C         34.9810   -4.4600   -4.0330 C.2   103  VAL103      0.2616
     49  O         34.8120   -5.1690   -3.0390 O.2   103  VAL103     -0.2715
     50  CB        37.4920   -4.4690   -4.0290 C.3   103  VAL103      0.0290
     51  CG1       37.4580   -5.6160   -5.0260 C.3   103  VAL103      0.0023
     52  CG2       38.7450   -3.6280   -4.2190 C.3   103  VAL103      0.0023
     53  N         34.0980   -4.3920   -5.0260 N.am  104  ASP104     -0.1957
     54  CA        32.8570   -5.1610   -4.9890 C.3   104  ASP104      0.1840
     55  C         32.8380   -6.2030   -6.1050 C.2   104  ASP104      0.2623
     56  O         33.1270   -7.3720   -5.8690 O.2   104  ASP104     -0.2715
     57  CB        31.6390   -4.2360   -5.1000 C.3   104  ASP104      0.1450
     58  CG        30.3210   -4.9690   -4.8850 C.2   104  ASP104      0.3671
     59  OD1       30.3450   -6.1760   -4.5610 O.co2 104  ASP104     -0.2456
     60  OD2       29.2550   -4.3350   -5.0360 O.co2 104  ASP104     -0.2456
     61  N         32.4920   -5.7830   -7.3180 N.am  105  SER105     -0.1936
     62  CA        32.4520   -6.7050   -8.4490 C.3   105  SER105      0.2055
     63  C         33.8610   -7.1570   -8.8200 C.2   105  SER105      0.2644
     64  O         34.0810   -8.3170   -9.1650 O.2   105  SER105     -0.2714
     65  CB        31.7690   -6.0600   -9.6570 C.3   105  SER105      0.2130
     66  OG        32.5760   -5.0410  -10.2200 O.3   105  SER105     -0.2179
     67  N         34.8120   -6.2330   -8.7370 N.am  106  GLY106     -0.1939
     68  CA        36.1920   -6.5270   -9.0710 C.3   106  GLY106      0.2014
     69  C         36.5480   -6.0780  -10.4750 C.2   106  GLY106      0.2639
     70  O         37.7150   -6.1170  -10.8630 O.2   106  GLY106     -0.2714
     71  N         35.5400   -5.6500  -11.2310 N.am  107  LEU107     -0.1963
     72  CA        35.7310   -5.2370  -12.6200 C.3   107  LEU107      0.1728
     73  C         36.6830   -4.0510  -12.7380 C.2   107  LEU107      0.2617
     74  O         37.5000   -3.9950  -13.6540 O.2   107  LEU107     -0.2715
     75  CB        34.3880   -4.8920  -13.2670 C.3   107  LEU107      0.0311
     76  CG        33.4610   -6.0630  -13.5970 C.3   107  LEU107      0.0022
     77  CD1       32.1280   -5.5590  -14.1290 C.3   107  LEU107      0.0001
     78  CD2       34.1200   -7.0000  -14.6000 C.3   107  LEU107      0.0001
     79  N         36.5710   -3.1070  -11.8080 N.am  108  THR108     -0.1937
     80  CA        37.4510   -1.9440  -11.7880 C.3   108  THR108      0.2028
     81  C         38.9000   -2.3710  -11.5890 C.2   108  THR108      0.2642
     82  O         39.7790   -2.0180  -12.3770 O.2   108  THR108     -0.2714
     83  CB        37.0660   -0.9550  -10.6700 C.3   108  THR108      0.1808
     84  OG1       35.7020   -0.5460  -10.8330 O.3   108  THR108     -0.2208
     85  CG2       37.9710    0.2680  -10.7060 C.3   108  THR108      0.0379
     86  N         39.1330   -3.1410  -10.5320 N.am  109  LEU109     -0.1977
     87  CA        40.4710   -3.5950  -10.1770 C.3   109  LEU109      0.1596
     88  C         41.0660   -4.5220  -11.2340 C.2   109  LEU109      0.2287
     89  O         42.2730   -4.5080  -11.4720 O.2   109  LEU109     -0.2864
     90  CB        40.4410   -4.3040   -8.8200 C.3   109  LEU109      0.0297
     91  CG        41.7800   -4.7860   -8.2640 C.3   109  LEU109      0.0022
     92  CD1       42.7300   -3.6130   -8.0780 C.3   109  LEU109      0.0001
     93  CD2       41.5750   -5.5290   -6.9560 C.3   109  LEU109      0.0001
     94  N         33.6750   -6.0800   -0.4110 N.3   132  LYS132     -0.1245
     95  CA        32.3410   -6.6600   -0.3360 C.3   132  LYS132      0.1561
     96  C         32.3910   -8.1440   -0.7020 C.2   132  LYS132      0.2260
     97  O         33.3440   -8.5900   -1.3380 O.2   132  LYS132     -0.2867
     98  CB        31.3840   -5.8940   -1.2520 C.3   132  LYS132      0.0271
     99  CG        31.0370   -4.5050   -0.7440 C.3   132  LYS132      0.0035
    100  CD        29.9370   -3.8750   -1.5780 C.3   132  LYS132      0.0206
    101  CE        29.5260   -2.5270   -1.0190 C.3   132  LYS132      0.1093
    102  NZ        28.4330   -1.9130   -1.8240 N.3   132  LYS132     -0.1314
    103  N         25.0410   -0.5790    0.2000 N.3   153  PHE153     -0.1227
    104  CA        25.6840    0.5940   -0.3840 C.3   153  PHE153      0.1736
    105  C         26.0360    1.6110    0.6970 C.2   153  PHE153      0.2595
    106  O         25.1550    2.1190    1.3900 O.2   153  PHE153     -0.2718
    107  CB        24.7740    1.2290   -1.4410 C.3   153  PHE153      0.0547
    108  CG        25.4390    2.3060   -2.2540 C.ar  153  PHE153     -0.0202
    109  CD1       25.3460    3.6370   -1.8800 C.ar  153  PHE153     -0.0042
    110  CD2       26.1490    1.9870   -3.3990 C.ar  153  PHE153     -0.0042
    111  CE1       25.9540    4.6280   -2.6290 C.ar  153  PHE153     -0.0003
    112  CE2       26.7580    2.9720   -4.1530 C.ar  153  PHE153     -0.0003
    113  CZ        26.6620    4.2940   -3.7660 C.ar  153  PHE153     -0.0000
    114  N         27.3250    1.9060    0.8350 N.am  154  VAL154     -0.1980
    115  CA        27.7980    2.7970    1.8900 C.3   154  VAL154      0.1595
    116  C         28.4370    4.0660    1.3310 C.2   154  VAL154      0.2287
    117  O         28.9080    4.0850    0.1990 O.2   154  VAL154     -0.2864
    118  CB        28.8200    2.0910    2.8020 C.3   154  VAL154      0.0276
    119  CG1       28.1510    0.9710    3.5840 C.3   154  VAL154      0.0022
    120  CG2       29.9850    1.5570    1.9810 C.3   154  VAL154      0.0022
    121  N         33.7710    7.8180   -0.3520 N.3   159  LEU159     -0.1231
    122  CA        32.6440    7.1900   -1.0390 C.3   159  LEU159      0.1693
    123  C         31.4900    8.1710   -1.2040 C.2   159  LEU159      0.2592
    124  O         31.1880    8.9460   -0.2930 O.2   159  LEU159     -0.2718
    125  CB        32.1680    5.9440   -0.2880 C.3   159  LEU159      0.0284
    126  CG        33.0630    4.7030   -0.3460 C.3   159  LEU159      0.0019
    127  CD1       33.6350    4.5290   -1.7440 C.3   159  LEU159      0.0001
    128  CD2       34.1710    4.7500    0.7020 C.3   159  LEU159      0.0001
    129  N         30.8390    8.1290   -2.3630 N.am  160  ASP160     -0.1974
    130  CA        29.8340    9.1320   -2.6930 C.3   160  ASP160      0.1709
    131  C         28.5270    8.5690   -3.2310 C.2   160  ASP160      0.2293
    132  O         28.4160    7.3850   -3.5490 O.2   160  ASP160     -0.2864
    133  CB        30.3910   10.1120   -3.7260 C.3   160  ASP160      0.1436
    134  CG        30.3040    9.5780   -5.1460 C.2   160  ASP160      0.3671
    135  OD1       29.7430   10.2810   -6.0130 O.co2 160  ASP160     -0.2456
    136  OD2       30.7980    8.4580   -5.3970 O.co2 160  ASP160     -0.2456
    137  N         28.0830   12.5450   -6.1600 N.3   163  GLU163     -0.1245
    138  CA        29.1470   13.4640   -5.7510 C.3   163  GLU163      0.1567
    139  C         28.9260   14.1220   -4.3890 C.2   163  GLU163      0.2260
    140  O         29.4570   15.1990   -4.1250 O.2   163  GLU163     -0.2867
    141  CB        29.3490   14.5480   -6.8150 C.3   163  GLU163      0.0388
    142  CG        30.0970   14.0630   -8.0400 C.3   163  GLU163      0.1160
    143  CD        31.4860   13.5600   -7.7060 C.2   163  GLU163      0.3649
    144  OE1       32.0930   14.0800   -6.7450 O.co2 163  GLU163     -0.2457
    145  OE2       31.9670   12.6390   -8.3990 O.co2 163  GLU163     -0.2457
    146  N         31.1310   12.7850    0.3940 N.3   166  ARG166     -0.1245
    147  CA        32.5430   12.4230    0.2900 C.3   166  ARG166      0.1563
    148  C         33.3620   12.9320    1.4730 C.2   166  ARG166      0.2260
    149  O         34.3780   12.3360    1.8330 O.2   166  ARG166     -0.2867
    150  CB        33.1490   12.9660   -1.0070 C.3   166  ARG166      0.0307
    151  CG        32.7320   12.2350   -2.2660 C.3   166  ARG166      0.0489
    152  CD        33.5710   12.6940   -3.4500 C.3   166  ARG166      0.2205
    153  NE        33.0860   12.1750   -4.7270 N.pl3 166  ARG166     -0.0865
    154  CZ        33.4870   11.0310   -5.2720 C.cat 166  ARG166      0.5346
    155  NH1       34.3790   10.2740   -4.6490 N.pl3 166  ARG166      0.1354
    156  NH2       32.9930   10.6430   -6.4390 N.pl3 166  ARG166      0.1354
@<TRIPOS>BOND
     1    78    76    1
     2    77    76    1
     3    74    73    2
     4    76    75    1
     5    75    72    1
     6    73    72    1
     7    73    79   am
     8    72    71    1
     9    82    81    2
    10    79    80    1
    11    80    81    1
    12    80    83    1
    13    81    86   am
    14    89    88    2
    15    88    87    1
    16    71    69   am
    17    70    69    2
    18    84    83    1
    19    85    83    1
    20    86    87    1
    21    69    68    1
    22    66    65    1
    23     8     6    1
    24    87    90    1
    25     4     3    2
    26     5     6    1
    27     5     2    1
    28    65    62    1
    29     1     2    1
    30     6     7    1
    31    64    63    2
    32    68    67    1
    33     2     3    1
    34     3     9   am
    35    63    67   am
    36    63    62    1
    37    90    91    1
    38    62    61    1
    39   145   143   ar
    40    91    92    1
    41    91    93    1
    42   142   143    1
    43   142   141    1
    44    17    16    1
    45    16    15    1
    46     9    10    1
    47   143   144   ar
    48    15    14    1
    49    30    28   ar
    50    61    55   am
    51    14    13    1
    52    13    10    1
    53   141   138    1
    54    10    11    1
    55   156   154    1
    56    28    27    1
    57    28    29   ar
    58   137   138    1
    59    55    56    2
    60    55    54    1
    61   135   134   ar
    62    27    26    1
    63   138   139    1
    64    11    18   am
    65    11    12    2
    66   136   134   ar
    67    18    19    1
    68   154   153    2
    69   154   155    1
    70   134   133    1
    71    57    54    1
    72    57    58    1
    73    60    58   ar
    74    51    50    1
    75    53    54    1
    76    53    48   am
    77    58    59   ar
    78   153   152    1
    79    42    41    2
    80    26    23    1
    81    37    36   ar
    82   139   140    2
    83    52    50    1
    84    47    48    1
    85    47    50    1
    86    47    46    1
    87   112   113   ar
    88   112   110   ar
    89    19    20    1
    90    48    49    2
    91    38    36   ar
    92   113   111   ar
    93    23    22    1
    94    23    24    1
    95   133   130    1
    96    36    35    1
    97   132   131    2
    98    41    46   am
    99    41    40    1
   100   152   151    1
   101   110   108   ar
   102   131   130    1
   103    20    21    2
   104    31    24   am
   105    31    32    1
   106   130   129    1
   107   111   109   ar
   108    24    25    2
   109    39    40    1
   110    39    33   am
   111    44    43    1
   112    40    43    1
   113   129   123   am
   114    43    45    1
   115   151   150    1
   116   108   109   ar
   117   108   107    1
   118    35    32    1
   119   102   101    1
   120    32    33    1
   121   127   126    1
   122   100   101    1
   123   100    99    1
   124    33    34    2
   125   107   104    1
   126    97    96    2
   127    98    99    1
   128    98    95    1
   129   123   122    1
   130   123   124    2
   131   122   121    1
   132   122   125    1
   133   150   147    1
   134    96    95    1
   135    94    95    1
   136   104   103    1
   137   104   105    1
   138   126   125    1
   139   126   128    1
   140   117   116    2
   141   147   146    1
   142   147   148    1
   143   105   114   am
   144   105   106    2
   145   114   115    1
   146   116   115    1
   147   148   149    2
   148   115   118    1
   149   120   118    1
   150   118   119    1
