@<TRIPOS>MOLECULE
tmp/4rhxB00.pdb
 190 183 0 0 0
SMALL
GASTEIGER

@<TRIPOS>ATOM
      1  N         -8.7440   -8.9720  120.7990 N.3    47  VAL47      -0.1231
      2  CA        -9.0580   -9.2670  119.4080 C.3    47  VAL47       0.1692
      3  C        -10.3430   -8.5550  119.0020 C.2    47  VAL47       0.2592
      4  O        -11.4430   -8.9790  119.3590 O.2    47  VAL47      -0.2718
      5  CB        -9.2090  -10.7760  119.1650 C.3    47  VAL47       0.0266
      6  CG1       -9.2910  -11.0640  117.6730 C.3    47  VAL47       0.0020
      7  CG2       -8.0430  -11.5230  119.7850 C.3    47  VAL47       0.0020
      8  N        -10.1900   -7.4580  118.2680 N.am   48  LEU48      -0.1966
      9  CA       -11.3260   -6.6940  117.7680 C.3    48  LEU48       0.1728
     10  C        -12.1440   -7.5350  116.7840 C.2    48  LEU48       0.2616
     11  O        -11.5960   -8.4080  116.1130 O.2    48  LEU48      -0.2715
     12  CB       -10.8350   -5.3980  117.1120 C.3    48  LEU48       0.0311
     13  CG       -10.2120   -4.3860  118.0790 C.3    48  LEU48       0.0022
     14  CD1       -9.7600   -3.1420  117.3420 C.3    48  LEU48       0.0001
     15  CD2      -11.1920   -4.0240  119.1830 C.3    48  LEU48       0.0001
     16  N        -13.4520   -7.2900  116.7050 N.am   49  LYS49      -0.1963
     17  CA       -14.1210   -6.2670  117.5040 C.3    49  LYS49       0.1728
     18  C        -14.9270   -6.8630  118.6500 C.2    49  LYS49       0.2616
     19  O        -15.2900   -6.1610  119.5910 O.2    49  LYS49      -0.2715
     20  CB       -15.0370   -5.4170  116.6180 C.3    49  LYS49       0.0311
     21  CG       -14.3010   -4.5990  115.5700 C.3    49  LYS49       0.0038
     22  CD       -15.1740   -3.4760  115.0350 C.3    49  LYS49       0.0206
     23  CE       -16.1070   -3.9590  113.9420 C.3    49  LYS49       0.1093
     24  NZ       -15.3870   -4.2110  112.6630 N.3    49  LYS49      -0.1314
     25  N        -15.1990   -8.1600  118.5690 N.am   50  GLY50      -0.1955
     26  CA       -16.1030   -8.8120  119.5010 C.3    50  GLY50       0.1869
     27  C        -15.6890   -8.8220  120.9600 C.2    50  GLY50       0.2309
     28  O        -16.5310   -8.9600  121.8460 O.2    50  GLY50      -0.2863
     29  N         -7.9100   -9.4940  112.9890 N.3    73  VAL73      -0.1231
     30  CA        -7.5000  -10.4690  111.9850 C.3    73  VAL73       0.1692
     31  C         -8.7030  -10.9180  111.1600 C.2    73  VAL73       0.2593
     32  O         -9.8480  -10.7720  111.5850 O.2    73  VAL73      -0.2718
     33  CB        -6.8240  -11.6990  112.6240 C.3    73  VAL73       0.0266
     34  CG1       -5.6180  -11.2720  113.4470 C.3    73  VAL73       0.0020
     35  CG2       -7.8110  -12.4700  113.4820 C.3    73  VAL73       0.0020
     36  N         -8.4360  -11.4550  109.9740 N.am   74  SER74      -0.1938
     37  CA        -9.5010  -11.8460  109.0570 C.3    74  SER74       0.2055
     38  C         -9.9590  -13.2820  109.2870 C.2    74  SER74       0.2643
     39  O         -9.5740  -13.9200  110.2660 O.2    74  SER74      -0.2714
     40  CB        -9.0410  -11.6740  107.6100 C.3    74  SER74       0.2130
     41  OG        -7.9430  -12.5210  107.3200 O.3    74  SER74      -0.2179
     42  N        -10.7870  -13.7810  108.3740 N.am   75  SER75      -0.1949
     43  CA       -11.3020  -15.1410  108.4650 C.3    75  SER75       0.1924
     44  C        -10.3170  -16.1420  107.8720 C.2    75  SER75       0.2314
     45  O         -9.6700  -15.8670  106.8610 O.2    75  SER75      -0.2863
     46  CB       -12.6530  -15.2500  107.7550 C.3    75  SER75       0.2116
     47  OG       -13.5700  -14.2930  108.2570 O.3    75  SER75      -0.2180
     48  N        -10.3170  -12.9490  123.9680 N.3    95  GLU95      -0.1231
     49  CA       -11.2640  -13.2030  122.8880 C.3    95  GLU95       0.1699
     50  C        -12.7020  -13.2140  123.3920 C.2    95  GLU95       0.2592
     51  O        -12.9530  -13.3480  124.5910 O.2    95  GLU95      -0.2718
     52  CB       -10.9500  -14.5340  122.1970 C.3    95  GLU95       0.0402
     53  CG       -10.0520  -14.4190  120.9700 C.3    95  GLU95       0.1161
     54  CD       -10.8120  -14.0510  119.7020 C.2    95  GLU95       0.3649
     55  OE1      -11.8330  -13.3360  119.7890 O.co2  95  GLU95      -0.2457
     56  OE2      -10.3840  -14.4830  118.6110 O.co2  95  GLU95      -0.2457
     57  N        -13.6450  -13.0720  122.4670 N.am   96  ASP96      -0.1960
     58  CA       -15.0590  -13.1580  122.8020 C.3    96  ASP96       0.1840
     59  C        -15.5380  -14.6030  122.7180 C.2    96  ASP96       0.2622
     60  O        -16.2540  -15.0790  123.5960 O.2    96  ASP96      -0.2715
     61  CB       -15.8900  -12.2620  121.8800 C.3    96  ASP96       0.1450
     62  CG       -15.5660  -12.4710  120.4110 C.2    96  ASP96       0.3671
     63  OD1      -14.4690  -12.9860  120.1050 O.co2  96  ASP96      -0.2456
     64  OD2      -16.4070  -12.1130  119.5610 O.co2  96  ASP96      -0.2456
     65  N        -15.1340  -15.3050  121.6660 N.am   97  VAL97      -0.1963
     66  CA       -15.5570  -16.6880  121.4980 C.3    97  VAL97       0.1727
     67  C        -14.4980  -17.5270  120.7850 C.2    97  VAL97       0.2616
     68  O        -13.8330  -17.0640  119.8560 O.2    97  VAL97      -0.2715
     69  CB       -16.9040  -16.7680  120.7300 C.3    97  VAL97       0.0290
     70  CG1      -16.7870  -16.1330  119.3530 C.3    97  VAL97       0.0023
     71  CG2      -17.3920  -18.2080  120.6290 C.3    97  VAL97       0.0023
     72  N        -14.3250  -18.7550  121.2610 N.am   98  VAL98      -0.1963
     73  CA       -13.5180  -19.7460  120.5690 C.3    98  VAL98       0.1727
     74  C        -14.4410  -20.8450  120.0570 C.2    98  VAL98       0.2616
     75  O        -15.1370  -21.4930  120.8360 O.2    98  VAL98      -0.2715
     76  CB       -12.4350  -20.3490  121.4820 C.3    98  VAL98       0.0290
     77  CG1      -11.6700  -21.4460  120.7510 C.3    98  VAL98       0.0023
     78  CG2      -11.4890  -19.2620  121.9720 C.3    98  VAL98       0.0023
     79  N        -14.4520  -21.0420  118.7450 N.am   99  ASP99      -0.1957
     80  CA       -15.3450  -22.0120  118.1230 C.3    99  ASP99       0.1840
     81  C        -14.5420  -23.1350  117.4710 C.2    99  ASP99       0.2623
     82  O        -14.3560  -24.1960  118.0640 O.2    99  ASP99      -0.2715
     83  CB       -16.2470  -21.3150  117.1010 C.3    99  ASP99       0.1450
     84  CG       -17.2220  -22.2630  116.4260 C.2    99  ASP99       0.3671
     85  OD1      -17.4840  -23.3580  116.9670 O.co2  99  ASP99      -0.2456
     86  OD2      -17.7340  -21.9000  115.3470 O.co2  99  ASP99      -0.2456
     87  N        -14.0650  -22.9010  116.2520 N.am  100  SER100     -0.1936
     88  CA       -13.2220  -23.8770  115.5700 C.3   100  SER100      0.2055
     89  C        -11.8160  -23.8780  116.1630 C.2   100  SER100      0.2644
     90  O        -11.1060  -24.8810  116.1050 O.2   100  SER100     -0.2714
     91  CB       -13.1590  -23.5850  114.0690 C.3   100  SER100      0.2130
     92  OG       -12.4340  -22.3940  113.8140 O.3   100  SER100     -0.2179
     93  N        -11.4230  -22.7460  116.7340 N.am  101  GLY101     -0.1939
     94  CA       -10.0980  -22.6000  117.3080 C.3   101  GLY101      0.2014
     95  C         -9.0700  -22.1450  116.2910 C.2   101  GLY101      0.2639
     96  O         -7.8970  -21.9730  116.6210 O.2   101  GLY101     -0.2714
     97  N         -9.5120  -21.9450  115.0520 N.am  102  LEU102     -0.1963
     98  CA        -8.6180  -21.5500  113.9660 C.3   102  LEU102      0.1728
     99  C         -8.0020  -20.1730  114.1970 C.2   102  LEU102      0.2617
    100  O         -6.8040  -19.9850  113.9960 O.2   102  LEU102     -0.2715
    101  CB        -9.3630  -21.5690  112.6280 C.3   102  LEU102      0.0311
    102  CG        -9.6240  -22.9480  112.0160 C.3   102  LEU102      0.0022
    103  CD1      -10.5250  -22.8410  110.7940 C.3   102  LEU102      0.0001
    104  CD2       -8.3110  -23.6320  111.6540 C.3   102  LEU102      0.0001
    105  N         -8.8220  -19.2150  114.6180 N.am  103  THR103     -0.1937
    106  CA        -8.3400  -17.8650  114.8910 C.3   103  THR103      0.2028
    107  C         -7.3090  -17.8730  116.0160 C.2   103  THR103      0.2642
    108  O         -6.2620  -17.2330  115.9190 O.2   103  THR103     -0.2714
    109  CB        -9.4940  -16.9150  115.2700 C.3   103  THR103      0.1808
    110  OG1      -10.4870  -16.9250  114.2360 O.3   103  THR103     -0.2208
    111  CG2       -8.9800  -15.4950  115.4630 C.3   103  THR103      0.0379
    112  N         -7.6110  -18.6130  117.0780 N.am  104  LEU104     -0.1977
    113  CA        -6.7230  -18.7040  118.2290 C.3   104  LEU104      0.1596
    114  C         -5.4250  -19.4270  117.8840 C.2   104  LEU104      0.2287
    115  O         -4.3450  -19.0190  118.3130 O.2   104  LEU104     -0.2864
    116  CB        -7.4230  -19.4140  119.3870 C.3   104  LEU104      0.0297
    117  CG        -6.6270  -19.5130  120.6860 C.3   104  LEU104      0.0022
    118  CD1       -6.2290  -18.1270  121.1650 C.3   104  LEU104      0.0001
    119  CD2       -7.4320  -20.2470  121.7470 C.3   104  LEU104      0.0001
    120  N        -17.3170  -22.8010  122.4730 N.3   127  LYS127     -0.1245
    121  CA       -18.3230  -23.6470  121.8410 C.3   127  LYS127      0.1561
    122  C        -17.7500  -25.0550  121.6540 C.2   127  LYS127      0.2260
    123  O        -16.5330  -25.2250  121.6840 O.2   127  LYS127     -0.2867
    124  CB       -18.7700  -23.0140  120.5160 C.3   127  LYS127      0.0271
    125  CG       -19.3020  -21.5950  120.6990 C.3   127  LYS127      0.0035
    126  CD       -19.7480  -20.9560  119.3930 C.3   127  LYS127      0.0206
    127  CE       -21.1180  -21.4480  118.9700 C.3   127  LYS127      0.1093
    128  NZ       -21.6200  -20.7030  117.7810 N.3   127  LYS127     -0.1314
    129  N        -25.0730  -23.1630  118.9100 N.3   147  ASP147     -0.1225
    130  CA       -25.9320  -22.1570  118.2850 C.3   147  ASP147      0.1805
    131  C        -25.2490  -20.8000  118.1040 C.2   147  ASP147      0.2598
    132  O        -24.3800  -20.4180  118.8870 O.2   147  ASP147     -0.2718
    133  CB       -27.2120  -21.9810  119.1030 C.3   147  ASP147      0.1424
    134  CG       -27.9810  -23.2760  119.2620 C.2   147  ASP147      0.3668
    135  OD1      -28.7740  -23.6130  118.3570 O.co2 147  ASP147     -0.2456
    136  OD2      -27.7880  -23.9600  120.2890 O.co2 147  ASP147     -0.2456
    137  N        -25.6520  -20.0780  117.0620 N.am  148  PHE148     -0.1962
    138  CA       -25.1060  -18.7530  116.7880 C.3   148  PHE148      0.1771
    139  C        -25.7140  -17.7250  117.7380 C.2   148  PHE148      0.2619
    140  O        -26.9330  -17.5720  117.7980 O.2   148  PHE148     -0.2715
    141  CB       -25.3610  -18.3530  115.3320 C.3   148  PHE148      0.0574
    142  CG       -24.5450  -17.1760  114.8730 C.ar  148  PHE148     -0.0200
    143  CD1      -25.0620  -15.8910  114.9310 C.ar  148  PHE148     -0.0042
    144  CD2      -23.2600  -17.3550  114.3860 C.ar  148  PHE148     -0.0042
    145  CE1      -24.3110  -14.8070  114.5110 C.ar  148  PHE148     -0.0003
    146  CE2      -22.5040  -16.2760  113.9640 C.ar  148  PHE148     -0.0003
    147  CZ       -23.0300  -15.0000  114.0270 C.ar  148  PHE148     -0.0000
    148  N        -24.8630  -17.0260  118.4840 N.am  149  VAL149     -0.1977
    149  CA       -25.3290  -16.0580  119.4690 C.3   149  VAL149      0.1596
    150  C        -24.8400  -14.6490  119.1490 C.2   149  VAL149      0.2287
    151  O        -23.8680  -14.4710  118.4210 O.2   149  VAL149     -0.2864
    152  CB       -24.8670  -16.4370  120.8950 C.3   149  VAL149      0.0276
    153  CG1      -25.4530  -17.7780  121.3020 C.3   149  VAL149      0.0022
    154  CG2      -23.3460  -16.4650  120.9780 C.3   149  VAL149      0.0022
    155  N        -20.5140   -9.5920  120.5280 N.3   154  LEU154     -0.1231
    156  CA       -20.7630  -10.5510  119.4530 C.3   154  LEU154      0.1693
    157  C        -21.7500   -9.9770  118.4440 C.2   154  LEU154      0.2592
    158  O        -22.8240   -9.5030  118.8190 O.2   154  LEU154     -0.2718
    159  CB       -21.3050  -11.8730  120.0090 C.3   154  LEU154      0.0284
    160  CG       -20.3970  -12.8790  120.7290 C.3   154  LEU154      0.0019
    161  CD1      -19.2870  -13.3640  119.8160 C.3   154  LEU154      0.0001
    162  CD2      -19.8310  -12.3230  122.0320 C.3   154  LEU154      0.0001
    163  N        -21.3980  -10.0340  117.1630 N.am  155  ASP155     -0.1974
    164  CA       -22.2180   -9.4050  116.1360 C.3   155  ASP155      0.1709
    165  C        -22.8270  -10.3770  115.1400 C.2   155  ASP155      0.2293
    166  O        -22.3370  -11.4890  114.9470 O.2   155  ASP155     -0.2864
    167  CB       -21.3970   -8.3850  115.3490 C.3   155  ASP155      0.1436
    168  CG       -20.4420   -9.0440  114.3660 C.2   155  ASP155      0.3671
    169  OD1      -20.4770   -8.6910  113.1670 O.co2 155  ASP155     -0.2456
    170  OD2      -19.6590   -9.9180  114.7930 O.co2 155  ASP155     -0.2456
    171  N        -22.2070   -6.9340  111.8980 N.3   158  GLU158     -0.1245
    172  CA       -21.8610   -5.7060  112.6210 C.3   158  GLU158      0.1567
    173  C        -22.9700   -5.1760  113.5310 C.2   158  GLU158      0.2260
    174  O        -22.7990   -4.1420  114.1750 O.2   158  GLU158     -0.2867
    175  CB       -21.4350   -4.6030  111.6420 C.3   158  GLU158      0.0388
    176  CG       -20.3050   -4.9980  110.6980 C.3   158  GLU158      0.1160
    177  CD       -19.0040   -5.3030  111.4200 C.2   158  GLU158      0.3649
    178  OE1      -18.8560   -4.9030  112.5950 O.co2 158  GLU158     -0.2457
    179  OE2      -18.1250   -5.9470  110.8090 O.co2 158  GLU158     -0.2457
    180  N        -23.8820   -5.8140  118.6840 N.3   161  ARG161     -0.1245
    181  CA       -22.7340   -5.7660  119.5910 C.3   161  ARG161      0.1563
    182  C        -23.0550   -5.0060  120.8780 C.2   161  ARG161      0.2260
    183  O        -22.4690   -5.2730  121.9290 O.2   161  ARG161     -0.2867
    184  CB       -21.5260   -5.1090  118.9210 C.3   161  ARG161      0.0307
    185  CG       -20.9290   -5.8650  117.7530 C.3   161  ARG161      0.0489
    186  CD       -19.5020   -5.3930  117.4980 C.3   161  ARG161      0.2205
    187  NE       -19.0390   -5.7030  116.1500 N.pl3 161  ARG161     -0.0865
    188  CZ       -18.4410   -6.8380  115.8050 C.cat 161  ARG161      0.5346
    189  NH1      -18.2460   -7.7850  116.7110 N.pl3 161  ARG161      0.1354
    190  NH2      -18.0500   -7.0300  114.5500 N.pl3 161  ARG161      0.1354
@<TRIPOS>BOND
     1    45    44    2
     2    41    40    1
     3    40    37    1
     4    46    47    1
     5    46    43    1
     6    44    43    1
     7    42    43    1
     8    42    38   am
     9    37    38    1
    10    37    36    1
    11    38    39    2
    12    36    31   am
    13   176   177    1
    14   176   175    1
    15   103   102    1
    16   179   177   ar
    17    31    32    2
    18    31    30    1
    19   177   178   ar
    20   175   172    1
    21   104   102    1
    22   171   172    1
    23    30    33    1
    24    30    29    1
    25   102   101    1
    26   172   173    1
    27    33    34    1
    28    33    35    1
    29   101    98    1
    30    24    23    1
    31   169   168   ar
    32   173   174    2
    33    92    91    1
    34    23    22    1
    35   146   147   ar
    36   146   144   ar
    37    98    99    1
    38    98    97    1
    39   100    99    2
    40   147   145   ar
    41    91    88    1
    42    99   105   am
    43   110   109    1
    44   168   170   ar
    45   168   167    1
    46   144   142   ar
    47   145   143   ar
    48   190   188    1
    49   105   106    1
    50   142   143   ar
    51   142   141    1
    52   106   109    1
    53   106   107    1
    54   166   165    2
    55    22    21    1
    56    97    95   am
    57   165   164    1
    58   109   111    1
    59   141   138    1
    60    86    84   ar
    61   167   164    1
    62    88    89    1
    63    88    87    1
    64    21    20    1
    65   188   187    2
    66   188   189    1
    67   108   107    2
    68   107   112   am
    69    90    89    2
    70    11    10    2
    71   164   163    1
    72   187   186    1
    73    89    93   am
    74    87    81   am
    75    95    96    2
    76    95    94    1
    77    84    85   ar
    78    84    83    1
    79    20    17    1
    80    16    10   am
    81    16    17    1
    82    93    94    1
    83    10     9    1
    84   138   137    1
    85   138   139    1
    86   137   131   am
    87   112   113    1
    88    83    80    1
    89    12     9    1
    90    12    13    1
    91   163   157   am
    92    14    13    1
    93    81    82    2
    94    81    80    1
    95   186   185    1
    96    17    18    1
    97     6     5    1
    98   139   140    2
    99   139   148   am
   100   185   184    1
   101     9     8    1
   102   128   127    1
   103   114   113    1
   104   114   115    2
   105    13    15    1
   106   131   130    1
   107   131   132    2
   108    80    79    1
   109   113   116    1
   110     8     3   am
   111   130   129    1
   112   130   133    1
   113   135   134   ar
   114   151   150    2
   115   157   158    2
   116   157   156    1
   117   148   149    1
   118    25    18   am
   119    25    26    1
   120    56    54   ar
   121    18    19    2
   122   180   181    1
   123    79    74   am
   124   184   181    1
   125   127   126    1
   126     3     4    2
   127     3     2    1
   128   133   134    1
   129   150   149    1
   130     5     2    1
   131     5     7    1
   132   134   136   ar
   133    70    69    1
   134   116   117    1
   135   126   125    1
   136     2     1    1
   137   156   159    1
   138   156   155    1
   139   149   152    1
   140    26    27    1
   141    64    62   ar
   142   181   182    1
   143    54    55   ar
   144    54    53    1
   145   161   160    1
   146    68    67    2
   147   159   160    1
   148    74    73    1
   149    74    75    2
   150    63    62   ar
   151    62    61    1
   152   124   125    1
   153   124   121    1
   154    73    72    1
   155    73    76    1
   156    71    69    1
   157   117   118    1
   158   117   119    1
   159   160   162    1
   160    69    66    1
   161    77    76    1
   162    67    72   am
   163    67    66    1
   164   182   183    2
   165   152   154    1
   166   152   153    1
   167    27    28    2
   168    53    52    1
   169    76    78    1
   170    66    65    1
   171   122   123    2
   172   122   121    1
   173    65    59   am
   174   121   120    1
   175    61    58    1
   176    52    49    1
   177    57    58    1
   178    57    50   am
   179    59    58    1
   180    59    60    2
   181    49    50    1
   182    49    48    1
   183    50    51    2
