@<TRIPOS>MOLECULE
tmp/4rhyB00.pdb
 176 168 0 0 0
SMALL
GASTEIGER

@<TRIPOS>ATOM
      1  N        -27.2220   -7.6330  -22.4540 N.3    42  VAL42      -0.1231
      2  CA       -26.2200   -7.4470  -21.4180 C.3    42  VAL42       0.1692
      3  C        -25.0320   -6.7140  -22.0190 C.2    42  VAL42       0.2592
      4  O        -24.5320   -7.0860  -23.0790 O.2    42  VAL42      -0.2718
      5  CB       -25.7580   -8.7800  -20.7960 C.3    42  VAL42       0.0266
      6  CG1      -24.8160   -8.5190  -19.6350 C.3    42  VAL42       0.0020
      7  CG2      -26.9540   -9.5860  -20.3260 C.3    42  VAL42       0.0020
      8  N        -24.5930   -5.6570  -21.3490 N.am   43  LEU43      -0.1966
      9  CA       -23.4800   -4.8670  -21.8500 C.3    43  LEU43       0.1728
     10  C        -22.2110   -5.7120  -21.8230 C.2    43  LEU43       0.2616
     11  O        -21.9700   -6.4380  -20.8600 O.2    43  LEU43      -0.2715
     12  CB       -23.3110   -3.5870  -21.0280 C.3    43  LEU43       0.0311
     13  CG       -24.5200   -2.6470  -21.0430 C.3    43  LEU43       0.0022
     14  CD1      -24.2500   -1.3940  -20.2120 C.3    43  LEU43       0.0001
     15  CD2      -24.9080   -2.2880  -22.4710 C.3    43  LEU43       0.0001
     16  N        -21.4070   -5.6260  -22.8800 N.am   44  LYS44      -0.1963
     17  CA       -21.6670   -4.7080  -23.9840 C.3    44  LYS44       0.1728
     18  C        -21.3790   -5.3300  -25.3400 C.2    44  LYS44       0.2616
     19  O        -21.4520   -4.6560  -26.3630 O.2    44  LYS44      -0.2715
     20  CB       -20.8340   -3.4320  -23.8070 C.3    44  LYS44       0.0311
     21  CG       -19.3560   -3.6890  -23.5870 C.3    44  LYS44       0.0038
     22  CD       -18.6560   -2.4750  -23.0010 C.3    44  LYS44       0.0206
     23  CE       -17.2200   -2.8130  -22.6440 C.3    44  LYS44       0.1093
     24  NZ       -16.5540   -1.7210  -21.8880 N.3    44  LYS44      -0.1314
     25  N        -21.0670   -6.6220  -25.3470 N.am   45  GLY45      -0.1955
     26  CA       -20.7080   -7.3130  -26.5730 C.3    45  GLY45       0.1869
     27  C        -21.8120   -7.3870  -27.6110 C.2    45  GLY45       0.2309
     28  O        -21.5490   -7.6230  -28.7910 O.2    45  GLY45      -0.2863
     29  N        -23.4910   -6.5610  -15.9330 N.3    68  VAL68      -0.1245
     30  CA       -23.1200   -7.5110  -14.9060 C.3    68  VAL68       0.1561
     31  C        -21.6060   -7.6370  -14.8170 C.2    68  VAL68       0.2260
     32  O        -20.8710   -7.0490  -15.6150 O.2    68  VAL68      -0.2867
     33  CB       -23.7330   -8.9010  -15.1680 C.3    68  VAL68       0.0252
     34  CG1      -25.2260   -8.7790  -15.4570 C.3    68  VAL68       0.0019
     35  CG2      -23.0030   -9.6020  -16.3090 C.3    68  VAL68       0.0019
     36  N        -18.5740  -10.8190  -13.1910 N.3    70  SER70      -0.1217
     37  CA       -18.3760  -12.0880  -12.5140 C.3    70  SER70       0.1889
     38  C        -17.9620  -11.8860  -11.0640 C.2    70  SER70       0.2288
     39  O        -17.0820  -11.0750  -10.7680 O.2    70  SER70      -0.2866
     40  CB       -17.3230  -12.9260  -13.2410 C.3    70  SER70       0.2089
     41  OG       -17.7060  -13.1680  -14.5820 O.3    70  SER70      -0.2183
     42  N        -28.1740  -11.6990  -27.4870 N.3    94  GLU94      -0.1231
     43  CA       -26.7890  -12.0260  -27.1610 C.3    94  GLU94       0.1699
     44  C        -25.8710  -11.9650  -28.3710 C.2    94  GLU94       0.2592
     45  O        -26.3130  -12.0950  -29.5150 O.2    94  GLU94      -0.2718
     46  CB       -26.7060  -13.4240  -26.5390 C.3    94  GLU94       0.0402
     47  CG       -26.9780  -13.4550  -25.0490 C.3    94  GLU94       0.1161
     48  CD       -25.8820  -12.7750  -24.2460 C.2    94  GLU94       0.3649
     49  OE1      -24.7530  -12.6220  -24.7700 O.co2  94  GLU94      -0.2457
     50  OE2      -26.1530  -12.3880  -23.0890 O.co2  94  GLU94      -0.2457
     51  N        -24.5820  -11.7840  -28.1110 N.am   95  ASP95      -0.1960
     52  CA       -23.5840  -11.8000  -29.1710 C.3    95  ASP95       0.1840
     53  C        -23.1690  -13.2390  -29.4970 C.2    95  ASP95       0.2622
     54  O        -23.2340  -13.6730  -30.6490 O.2    95  ASP95      -0.2715
     55  CB       -22.3680  -10.9600  -28.7790 C.3    95  ASP95       0.1450
     56  CG       -21.8830  -11.2520  -27.3690 C.2    95  ASP95       0.3671
     57  OD1      -22.6560  -11.8130  -26.5640 O.co2  95  ASP95      -0.2456
     58  OD2      -20.7230  -10.9080  -27.0580 O.co2  95  ASP95      -0.2456
     59  N        -22.7530  -13.9830  -28.4790 N.am   96  VAL96      -0.1963
     60  CA       -22.3850  -15.3710  -28.6850 C.3    96  VAL96       0.1727
     61  C        -22.7910  -16.2370  -27.5030 C.2    96  VAL96       0.2616
     62  O        -22.5440  -15.8900  -26.3530 O.2    96  VAL96      -0.2715
     63  CB       -20.8670  -15.5240  -28.9390 C.3    96  VAL96       0.0290
     64  CG1      -20.0620  -14.8220  -27.8640 C.3    96  VAL96       0.0023
     65  CG2      -20.4830  -16.9980  -29.0320 C.3    96  VAL96       0.0023
     66  N        -23.4400  -17.3580  -27.7940 N.am   97  VAL97      -0.1963
     67  CA       -23.6670  -18.3800  -26.7840 C.3    97  VAL97       0.1727
     68  C        -22.5960  -19.4620  -26.9180 C.2    97  VAL97       0.2616
     69  O        -22.5460  -20.1800  -27.9170 O.2    97  VAL97      -0.2715
     70  CB       -25.0670  -19.0140  -26.9060 C.3    97  VAL97       0.0290
     71  CG1      -25.2420  -20.1160  -25.8640 C.3    97  VAL97       0.0023
     72  CG2      -26.1510  -17.9580  -26.7530 C.3    97  VAL97       0.0023
     73  N        -21.7330  -19.5640  -25.9140 N.am   98  ASP98      -0.1957
     74  CA       -20.6570  -20.5510  -25.9190 C.3    98  ASP98       0.1840
     75  C        -20.9850  -21.6950  -24.9520 C.2    98  ASP98       0.2623
     76  O        -21.5830  -22.6940  -25.3460 O.2    98  ASP98      -0.2715
     77  CB       -19.3250  -19.8880  -25.5560 C.3    98  ASP98       0.1450
     78  CG       -18.1480  -20.8430  -25.6360 C.2    98  ASP98       0.3671
     79  OD1      -18.2260  -21.8350  -26.3920 O.co2  98  ASP98      -0.2456
     80  OD2      -17.1360  -20.5940  -24.9450 O.co2  98  ASP98      -0.2456
     81  N        -20.6060  -21.5420  -23.6890 N.am   99  SER99      -0.1936
     82  CA       -20.9390  -22.5380  -22.6780 C.3    99  SER99       0.2055
     83  C        -22.4310  -22.5040  -22.3740 C.2    99  SER99       0.2644
     84  O        -23.0400  -23.5280  -22.0610 O.2    99  SER99      -0.2714
     85  CB       -20.1410  -22.3010  -21.3970 C.3    99  SER99       0.2130
     86  OG       -20.6210  -21.1610  -20.7090 O.3    99  SER99      -0.2179
     87  N        -23.0130  -21.3130  -22.4570 N.am  100  GLY100     -0.1939
     88  CA       -24.4280  -21.1330  -22.1970 C.3   100  GLY100      0.2014
     89  C        -24.7090  -20.7340  -20.7610 C.2   100  GLY100      0.2639
     90  O        -25.8620  -20.5680  -20.3710 O.2   100  GLY100     -0.2714
     91  N        -23.6520  -20.5690  -19.9740 N.am  101  LEU101     -0.1963
     92  CA       -23.8050  -20.2750  -18.5540 C.3   101  LEU101      0.1728
     93  C        -24.3440  -18.8620  -18.3220 C.2   101  LEU101      0.2617
     94  O        -25.1950  -18.6540  -17.4590 O.2   101  LEU101     -0.2715
     95  CB       -22.4720  -20.4740  -17.8280 C.3   101  LEU101      0.0311
     96  CG       -22.0280  -21.9410  -17.7290 C.3   101  LEU101      0.0022
     97  CD1      -20.5710  -22.0630  -17.2910 C.3   101  LEU101      0.0001
     98  CD2      -22.9400  -22.7190  -16.7810 C.3   101  LEU101      0.0001
     99  N        -23.8560  -17.9010  -19.1020 N.am  102  THR102     -0.1937
    100  CA       -24.3280  -16.5200  -19.0020 C.3   102  THR102      0.2028
    101  C        -25.8200  -16.4340  -19.2890 C.2   102  THR102      0.2642
    102  O        -26.5970  -15.9240  -18.4800 O.2   102  THR102     -0.2714
    103  CB       -23.5920  -15.5870  -19.9810 C.3   102  THR102      0.1808
    104  OG1      -22.1780  -15.7710  -19.8540 O.3   102  THR102     -0.2208
    105  CG2      -23.9440  -14.1320  -19.6970 C.3   102  THR102      0.0379
    106  N        -26.2050  -16.9400  -20.4550 N.am  103  LEU103     -0.1977
    107  CA       -27.6000  -16.9850  -20.8610 C.3   103  LEU103      0.1596
    108  C        -28.4520  -17.7600  -19.8580 C.2   103  LEU103      0.2287
    109  O        -29.5820  -17.3740  -19.5690 O.2   103  LEU103     -0.2864
    110  CB       -27.7230  -17.6080  -22.2510 C.3   103  LEU103      0.0297
    111  CG       -29.1540  -17.8690  -22.7090 C.3   103  LEU103      0.0022
    112  CD1      -29.9420  -16.5570  -22.7630 C.3   103  LEU103      0.0001
    113  CD2      -29.1610  -18.5870  -24.0530 C.3   103  LEU103      0.0001
    114  N        -21.7230  -21.2070  -30.6760 N.3   126  LYS126     -0.1245
    115  CA       -20.5940  -22.1100  -30.7900 C.3   126  LYS126      0.1561
    116  C        -21.0330  -23.5360  -30.4250 C.2   126  LYS126      0.2260
    117  O        -22.0890  -23.7190  -29.8190 O.2   126  LYS126     -0.2867
    118  CB       -19.4460  -21.6220  -29.9030 C.3   126  LYS126      0.0271
    119  CG       -18.7230  -20.4070  -30.4630 C.3   126  LYS126      0.0035
    120  CD       -17.4680  -20.0910  -29.6630 C.3   126  LYS126      0.0206
    121  CE       -16.6200  -19.0300  -30.3490 C.3   126  LYS126      0.1093
    122  NZ       -15.2850  -18.8850  -29.7060 N.3   126  LYS126     -0.1314
    123  N        -11.6480  -18.7590  -31.4870 N.3   147  PHE147     -0.1227
    124  CA       -11.7960  -17.4350  -30.9060 C.3   147  PHE147      0.1736
    125  C        -11.9020  -16.3710  -31.9910 C.2   147  PHE147      0.2595
    126  O        -11.0300  -16.2500  -32.8490 O.2   147  PHE147     -0.2718
    127  CB       -10.6270  -17.1200  -29.9740 C.3   147  PHE147      0.0547
    128  CG       -10.8980  -15.9820  -29.0460 C.ar  147  PHE147     -0.0202
    129  CD1      -10.5120  -14.6910  -29.3740 C.ar  147  PHE147     -0.0042
    130  CD2      -11.5690  -16.1960  -27.8540 C.ar  147  PHE147     -0.0042
    131  CE1      -10.7800  -13.6370  -28.5210 C.ar  147  PHE147     -0.0003
    132  CE2      -11.8370  -15.1500  -26.9970 C.ar  147  PHE147     -0.0003
    133  CZ       -11.4440  -13.8670  -27.3330 C.ar  147  PHE147     -0.0000
    134  N        -12.9810  -15.6020  -31.9510 N.am  148  VAL148     -0.1980
    135  CA       -13.2070  -14.5660  -32.9480 C.3   148  VAL148      0.1595
    136  C        -13.4410  -13.2200  -32.2860 C.2   148  VAL148      0.2287
    137  O        -13.9820  -13.1460  -31.1850 O.2   148  VAL148     -0.2864
    138  CB       -14.4090  -14.9000  -33.8510 C.3   148  VAL148      0.0276
    139  CG1      -14.0750  -16.0670  -34.7690 C.3   148  VAL148      0.0022
    140  CG2      -15.6430  -15.2030  -33.0120 C.3   148  VAL148      0.0022
    141  N        -17.5390   -8.1990  -30.3020 N.3   153  LEU153     -0.1231
    142  CA       -16.6850   -9.1760  -29.6470 C.3   153  LEU153      0.1693
    143  C        -15.2900   -8.6120  -29.4310 C.2   153  LEU153      0.2592
    144  O        -14.7050   -8.0120  -30.3280 O.2   153  LEU153     -0.2718
    145  CB       -16.6170  -10.4630  -30.4670 C.3   153  LEU153      0.0284
    146  CG       -17.9590  -11.1760  -30.5980 C.3   153  LEU153      0.0019
    147  CD1      -17.8050  -12.4170  -31.4390 C.3   153  LEU153      0.0001
    148  CD2      -18.4860  -11.5190  -29.2230 C.3   153  LEU153      0.0001
    149  N        -14.7530   -8.8250  -28.2400 N.am  154  ASP154     -0.1974
    150  CA       -13.4870   -8.2160  -27.8700 C.3   154  ASP154      0.1709
    151  C        -12.3990   -9.2320  -27.5910 C.2   154  ASP154      0.2293
    152  O        -12.6650  -10.4130  -27.3780 O.2   154  ASP154     -0.2864
    153  CB       -13.6670   -7.3390  -26.6290 C.3   154  ASP154      0.1436
    154  CG       -13.6970   -8.1490  -25.3430 C.2   154  ASP154      0.3671
    155  OD1      -14.7140   -8.8300  -25.0860 O.co2 154  ASP154     -0.2456
    156  OD2      -12.7010   -8.1050  -24.5870 O.co2 154  ASP154     -0.2456
    157  N        -10.9370   -5.9460  -24.4800 N.3   157  GLU157     -0.1245
    158  CA       -11.6110   -4.6960  -24.8440 C.3   157  GLU157      0.1567
    159  C        -11.2550   -4.1160  -26.2180 C.2   157  GLU157      0.2260
    160  O        -11.8280   -3.1120  -26.6290 O.2   157  GLU157     -0.2867
    161  CB       -11.3680   -3.6280  -23.7690 C.3   157  GLU157      0.0388
    162  CG       -12.1170   -3.8830  -22.4710 C.3   157  GLU157      0.1160
    163  CD       -13.6170   -4.0710  -22.6760 C.2   157  GLU157      0.3649
    164  OE1      -14.1790   -3.5170  -23.6480 O.co2 157  GLU157     -0.2457
    165  OE2      -14.2400   -4.7760  -21.8560 O.co2 157  GLU157     -0.2457
    166  N        -13.6890   -4.5390  -30.7350 N.3   160  ARG160     -0.1245
    167  CA       -15.1490   -4.4920  -30.7250 C.3   160  ARG160      0.1563
    168  C        -15.7310   -3.6890  -31.8900 C.2   160  ARG160      0.2260
    169  O        -16.8330   -3.9660  -32.3570 O.2   160  ARG160     -0.2867
    170  CB       -15.6610   -3.8860  -29.4230 C.3   160  ARG160      0.0307
    171  CG       -15.4890   -4.7430  -28.1930 C.3   160  ARG160      0.0489
    172  CD       -16.3850   -4.2110  -27.0900 C.3   160  ARG160      0.2205
    173  NE       -15.9760   -4.6430  -25.7630 N.pl3 160  ARG160     -0.0865
    174  CZ       -16.4000   -5.7530  -25.1670 C.cat 160  ARG160      0.5346
    175  NH1      -17.2450   -6.5690  -25.7890 N.pl3 160  ARG160      0.1354
    176  NH2      -15.9740   -6.0490  -23.9440 N.pl3 160  ARG160      0.1354
@<TRIPOS>BOND
     1   139   138    1
     2   138   140    1
     3   138   135    1
     4   135   136    1
     5   135   134    1
     6   126   125    2
     7   169   168    2
     8   136   137    2
     9   125   134   am
    10   125   124    1
    11   168   167    1
    12   123   124    1
    13   147   146    1
    14   124   127    1
    15   115   114    1
    16   115   116    1
    17   115   118    1
    18   166   167    1
    19   167   170    1
    20    54    53    2
    21   146   145    1
    22   146   148    1
    23   145   142    1
    24   119   118    1
    25   119   120    1
    26   116   117    2
    27   121   122    1
    28   121   120    1
    29   144   143    2
    30   141   142    1
    31   127   128    1
    32   142   143    1
    33    45    44    2
    34    53    52    1
    35    53    59   am
    36   143   149   am
    37   170   171    1
    38   129   128   ar
    39   129   131   ar
    40    52    55    1
    41    52    51    1
    42   128   130   ar
    43    65    63    1
    44    63    60    1
    45    63    64    1
    46    28    27    2
    47    55    56    1
    48    60    59    1
    49    60    61    1
    50   131   133   ar
    51    44    51   am
    52    44    43    1
    53   149   150    1
    54   171   172    1
    55    69    68    2
    56   150   151    1
    57   150   153    1
    58   130   132   ar
    59    66    61   am
    60    66    67    1
    61    27    26    1
    62   151   152    2
    63    61    62    2
    64    42    43    1
    65    56    58   ar
    66    56    57   ar
    67   133   132   ar
    68    43    46    1
    69   172   173    1
    70    68    67    1
    71    68    73   am
    72    70    67    1
    73    70    72    1
    74    70    71    1
    75   153   154    1
    76   160   159    2
    77    26    25    1
    78    46    47    1
    79    79    78   ar
    80    19    18    2
    81   159   158    1
    82    74    73    1
    83    74    77    1
    84    74    75    1
    85   175   174    1
    86   173   174    2
    87    78    77    1
    88    78    80   ar
    89    25    18   am
    90    76    75    2
    91   154   155   ar
    92   154   156   ar
    93    18    17    1
    94   174   176    1
    95    47    48    1
    96    75    81   am
    97   158   157    1
    98   158   161    1
    99    49    48   ar
   100    48    50   ar
   101   113   111    1
   102    17    20    1
   103    17    16    1
   104    20    21    1
   105   161   162    1
   106    81    82    1
   107   164   163   ar
   108    21    22    1
   109     4     3    2
   110    22    23    1
   111    16    10   am
   112   112   111    1
   113   111   110    1
   114    82    83    1
   115    82    85    1
   116   163   162    1
   117   163   165   ar
   118    23    24    1
   119    15    13    1
   120    87    83   am
   121    87    88    1
   122     1     2    1
   123    83    84    2
   124   110   107    1
   125    88    89    1
   126     3     2    1
   127     3     8   am
   128     9    10    1
   129     9     8    1
   130     9    12    1
   131    10    11    2
   132     2     5    1
   133    85    86    1
   134    13    12    1
   135    13    14    1
   136   107   106    1
   137   107   108    1
   138     5     7    1
   139     5     6    1
   140    89    90    2
   141    89    91   am
   142   106   101   am
   143   103   104    1
   144   103   105    1
   145   103   100    1
   146    91    92    1
   147   108   109    2
   148   101   100    1
   149   101   102    2
   150    99   100    1
   151    99    93   am
   152    92    93    1
   153    92    95    1
   154    93    94    2
   155    95    96    1
   156    96    97    1
   157    96    98    1
   158    35    33    1
   159    29    30    1
   160    32    31    2
   161    34    33    1
   162    33    30    1
   163    30    31    1
   164    41    40    1
   165    40    37    1
   166    36    37    1
   167    37    38    1
   168    38    39    2
