@<TRIPOS>MOLECULE
tmp/4ri1B00.pdb
 198 194 0 0 0
SMALL
GASTEIGER

@<TRIPOS>ATOM
      1  N        -35.3820   -1.6990  -13.9410 N.3    33  ASN33      -0.1225
      2  CA       -34.8450   -1.3100  -15.2430 C.3    33  ASN33       0.1785
      3  C        -34.1110   -2.4490  -15.9500 C.2    33  ASN33       0.2597
      4  O        -34.0650   -2.5080  -17.1810 O.2    33  ASN33      -0.2718
      5  CB       -33.9260   -0.1050  -15.0890 C.3    33  ASN33       0.1169
      6  CG       -34.6940    1.1640  -14.7810 C.2    33  ASN33       0.2627
      7  OD1      -34.2740    1.9720  -13.9580 O.2    33  ASN33      -0.2716
      8  ND2      -35.8350    1.3420  -15.4430 N.am   33  ASN33      -0.0877
      9  N        -33.5640   -3.3690  -15.1680 N.am   34  THR34      -0.1953
     10  CA       -32.9730   -4.5770  -15.7250 C.3    34  THR34       0.1897
     11  C        -34.0090   -5.6700  -15.9150 C.2    34  THR34       0.2313
     12  O        -34.1840   -6.1960  -17.0100 O.2    34  THR34      -0.2863
     13  CB       -31.8640   -5.1310  -14.8200 C.3    34  THR34       0.1794
     14  OG1      -30.9280   -4.0950  -14.5160 O.3    34  THR34      -0.2208
     15  CG2      -31.1640   -6.2790  -15.4960 C.3    34  THR34       0.0378
     16  N        -36.5660   -6.5420  -18.8240 N.3    37  TRP37      -0.1227
     17  CA       -36.1390   -7.0360  -20.1220 C.3    37  TRP37       0.1737
     18  C        -35.5970   -8.4620  -20.0710 C.2    37  TRP37       0.2595
     19  O        -35.2990   -9.0550  -21.1020 O.2    37  TRP37      -0.2718
     20  CB       -35.1130   -6.0710  -20.6950 C.3    37  TRP37       0.0564
     21  CG       -35.7070   -4.7110  -20.8210 C.ar   37  TRP37       0.0003
     22  CD1      -35.4050   -3.6030  -20.0810 C.ar   37  TRP37       0.0946
     23  CD2      -36.7550   -4.3240  -21.7150 C.ar   37  TRP37       0.0152
     24  NE1      -36.1900   -2.5400  -20.4780 N.ar   37  TRP37      -0.2442
     25  CE2      -37.0230   -2.9590  -21.4780 C.ar   37  TRP37       0.0810
     26  CE3      -37.4810   -4.9930  -22.6980 C.ar   37  TRP37       0.0012
     27  CZ2      -37.9900   -2.2600  -22.1930 C.ar   37  TRP37       0.0191
     28  CZ3      -38.4440   -4.2910  -23.4090 C.ar   37  TRP37       0.0001
     29  CH2      -38.6840   -2.9400  -23.1540 C.ar   37  TRP37       0.0015
     30  N        -35.5060   -9.0190  -18.8700 N.am   38  MET38      -0.1979
     31  CA       -35.0270  -10.3800  -18.6920 C.3    38  MET38       0.1605
     32  C        -36.1470  -11.3970  -18.8700 C.2    38  MET38       0.2287
     33  O        -37.3140  -11.1010  -18.6080 O.2    38  MET38      -0.2864
     34  CB       -34.3910  -10.5390  -17.3120 C.3    38  MET38       0.0413
     35  CG       -33.2910   -9.5360  -17.0230 C.3    38  MET38       0.0598
     36  SD       -31.8700   -9.7000  -18.1350 S.3    38  MET38      -0.1393
     37  CE       -31.5780  -11.4670  -18.0080 C.3    38  MET38       0.0692
     38  N        -24.0370  -13.1020  -26.4460 N.3    90  LEU90      -0.1231
     39  CA       -23.6940  -11.9780  -25.6000 C.3    90  LEU90       0.1693
     40  C        -24.9400  -11.4670  -24.8490 C.2    90  LEU90       0.2593
     41  O        -26.0550  -11.5430  -25.3620 O.2    90  LEU90      -0.2718
     42  CB       -23.0870  -10.8880  -26.4690 C.3    90  LEU90       0.0284
     43  CG       -22.2180   -9.8060  -25.8640 C.3    90  LEU90       0.0019
     44  CD1      -21.1770   -9.4320  -26.8910 C.3    90  LEU90       0.0001
     45  CD2      -23.0900   -8.6180  -25.5210 C.3    90  LEU90       0.0001
     46  N        -24.7430  -10.9720  -23.6320 N.am   91  GLY91      -0.1942
     47  CA       -25.8080  -10.3640  -22.8560 C.3    91  GLY91       0.2014
     48  C        -25.2330   -9.2970  -21.9470 C.2    91  GLY91       0.2639
     49  O        -24.1270   -9.4560  -21.4280 O.2    91  GLY91      -0.2714
     50  N        -25.9700   -8.2060  -21.7680 N.am   92  ILE92      -0.1963
     51  CA       -25.5180   -7.0900  -20.9380 C.3    92  ILE92       0.1727
     52  C        -26.6440   -6.4410  -20.1290 C.2    92  ILE92       0.2616
     53  O        -27.7520   -6.3010  -20.6190 O.2    92  ILE92      -0.2715
     54  CB       -24.8710   -5.9780  -21.7930 C.3    92  ILE92       0.0290
     55  CG1      -23.5940   -6.4780  -22.4670 C.3    92  ILE92       0.0022
     56  CG2      -24.5320   -4.7690  -20.9290 C.3    92  ILE92       0.0023
     57  CD1      -22.9660   -5.4480  -23.3950 C.3    92  ILE92       0.0001
     58  N        -26.3610   -6.0540  -18.8900 N.am   93  TYR93      -0.1960
     59  CA       -27.1880   -5.0480  -18.2170 C.3    93  TYR93       0.1771
     60  C        -26.2730   -4.1730  -17.3690 C.2    93  TYR93       0.2619
     61  O        -25.4110   -4.6600  -16.6250 O.2    93  TYR93      -0.2715
     62  CB       -28.3280   -5.6740  -17.3780 C.3    93  TYR93       0.0574
     63  CG       -27.9130   -6.6750  -16.3110 C.ar   93  TYR93      -0.0198
     64  CD1      -27.5730   -6.2550  -15.0260 C.ar   93  TYR93      -0.0009
     65  CD2      -27.8970   -8.0410  -16.5770 C.ar   93  TYR93      -0.0009
     66  CE1      -27.2060   -7.1660  -14.0440 C.ar   93  TYR93       0.0417
     67  CE2      -27.5310   -8.9600  -15.6010 C.ar   93  TYR93       0.0417
     68  CZ       -27.1850   -8.5130  -14.3400 C.ar   93  TYR93       0.1957
     69  OH       -26.8200   -9.4170  -13.3760 O.3    93  TYR93      -0.2866
     70  N        -26.4270   -2.8670  -17.5270 N.am   94  LYS94      -0.1977
     71  CA       -25.5870   -1.9280  -16.8010 C.3    94  LYS94       0.1596
     72  C        -26.0950   -1.7030  -15.3860 C.2    94  LYS94       0.2287
     73  O        -27.2460   -2.0070  -15.0620 O.2    94  LYS94      -0.2864
     74  CB       -25.5190   -0.5930  -17.5340 C.3    94  LYS94       0.0298
     75  CG       -26.8500    0.1570  -17.6050 C.3    94  LYS94       0.0038
     76  CD       -26.6550    1.5430  -18.2050 C.3    94  LYS94       0.0206
     77  CE       -27.9330    2.3560  -18.1750 C.3    94  LYS94       0.1093
     78  NZ       -28.3890    2.5890  -16.7700 N.3    94  LYS94      -0.1314
     79  N        -26.1440    6.6780  -15.8950 N.3    99  LYS99      -0.1231
     80  CA       -26.8530    7.1230  -17.0900 C.3    99  LYS99       0.1693
     81  C        -26.2920    6.4760  -18.3510 C.2    99  LYS99       0.2592
     82  O        -26.9060    6.5260  -19.4220 O.2    99  LYS99      -0.2718
     83  CB       -26.8150    8.6480  -17.1980 C.3    99  LYS99       0.0285
     84  CG       -27.8020    9.3380  -16.2570 C.3    99  LYS99       0.0035
     85  CD       -29.1910    8.7010  -16.3640 C.3    99  LYS99       0.0206
     86  CE       -30.1350    9.2160  -15.2860 C.3    99  LYS99       0.1093
     87  NZ       -29.5660    9.0360  -13.9180 N.3    99  LYS99      -0.1314
     88  N        -25.1230    5.8630  -18.2110 N.am  100  ASN100     -0.1960
     89  CA       -24.5200    5.0990  -19.2930 C.3   100  ASN100      0.1819
     90  C        -23.6820    3.9670  -18.7240 C.2   100  ASN100      0.2622
     91  O        -23.8880    3.5500  -17.5840 O.2   100  ASN100     -0.2715
     92  CB       -23.6660    5.9990  -20.1830 C.3   100  ASN100      0.1195
     93  CG       -22.6740    6.8250  -19.3920 C.2   100  ASN100      0.2630
     94  OD1      -22.4940    6.6190  -18.1880 O.2   100  ASN100     -0.2716
     95  ND2      -22.0210    7.7670  -20.0650 N.am  100  ASN100     -0.0877
     96  N        -22.7290    3.4800  -19.5090 N.am  101  GLY101     -0.1940
     97  CA       -21.8400    2.4350  -19.0430 C.3   101  GLY101      0.2014
     98  C        -22.0140    1.1660  -19.8450 C.2   101  GLY101      0.2639
     99  O        -21.1620    0.2760  -19.8070 O.2   101  GLY101     -0.2714
    100  N        -23.1270    1.0820  -20.5690 N.am  102  GLY102     -0.1939
    101  CA       -23.3800   -0.0520  -21.4380 C.3   102  GLY102      0.2014
    102  C        -22.2780   -0.1990  -22.4710 C.2   102  GLY102      0.2638
    103  O        -21.7680   -1.2930  -22.7080 O.2   102  GLY102     -0.2714
    104  N        -21.9070    0.9240  -23.0750 N.am  103  GLU103     -0.1977
    105  CA       -20.9230    0.9420  -24.1430 C.3   103  GLU103      0.1602
    106  C        -19.5690    0.4000  -23.6870 C.2   103  GLU103      0.2287
    107  O        -18.9280   -0.3690  -24.3990 O.2   103  GLU103     -0.2864
    108  CB       -20.7480    2.3560  -24.6760 C.3   103  GLU103      0.0415
    109  CG       -19.8440    2.4240  -25.8720 C.3   103  GLU103      0.1163
    110  CD       -20.4260    1.6780  -27.0510 C.2   103  GLU103      0.3649
    111  OE1      -21.6730    1.7020  -27.2180 O.co2 103  GLU103     -0.2457
    112  OE2      -19.6360    1.0660  -27.8040 O.co2 103  GLU103     -0.2457
    113  N        -26.8480  -12.2880  -30.4600 N.3   124  LEU124     -0.1231
    114  CA       -27.7120  -11.6330  -29.4900 C.3   124  LEU124      0.1693
    115  C        -29.1710  -12.0050  -29.7010 C.2   124  LEU124      0.2592
    116  O        -29.6330  -12.1110  -30.8330 O.2   124  LEU124     -0.2718
    117  CB       -27.5990  -10.1090  -29.5890 C.3   124  LEU124      0.0284
    118  CG       -26.2380   -9.4520  -29.7730 C.3   124  LEU124      0.0019
    119  CD1      -26.4100   -7.9410  -29.9120 C.3   124  LEU124      0.0001
    120  CD2      -25.3570   -9.7800  -28.5940 C.3   124  LEU124      0.0001
    121  N        -29.8860  -12.1680  -28.5960 N.am  125  GLU125     -0.1966
    122  CA       -31.3440  -12.2480  -28.6030 C.3   125  GLU125      0.1733
    123  C        -31.8750  -10.9870  -27.9370 C.2   125  GLU125      0.2616
    124  O        -31.5040  -10.6750  -26.8090 O.2   125  GLU125     -0.2715
    125  CB       -31.8340  -13.5100  -27.8830 C.3   125  GLU125      0.0429
    126  CG       -31.5680  -14.7990  -28.6770 C.3   125  GLU125      0.1163
    127  CD       -31.8840  -16.0680  -27.8890 C.2   125  GLU125      0.3649
    128  OE1      -32.2840  -15.9440  -26.7110 O.co2 125  GLU125     -0.2457
    129  OE2      -31.7320  -17.1860  -28.4460 O.co2 125  GLU125     -0.2457
    130  N        -32.7000  -10.2370  -28.6580 N.am  126  VAL126     -0.1963
    131  CA       -33.2660   -8.9930  -28.1360 C.3   126  VAL126      0.1727
    132  C        -34.7780   -9.0110  -28.3750 C.2   126  VAL126      0.2616
    133  O        -35.2250   -9.2470  -29.5090 O.2   126  VAL126     -0.2715
    134  CB       -32.6390   -7.7460  -28.8090 C.3   126  VAL126      0.0290
    135  CG1      -33.1530   -6.4700  -28.1720 C.3   126  VAL126      0.0023
    136  CG2      -31.1290   -7.7840  -28.7080 C.3   126  VAL126      0.0023
    137  N        -35.5610   -8.8110  -27.3130 N.am  127  MET127     -0.1977
    138  CA       -37.0220   -8.6870  -27.4580 C.3   127  MET127      0.1605
    139  C        -37.3400   -7.5370  -28.4030 C.2   127  MET127      0.2287
    140  O        -36.7840   -6.4430  -28.2460 O.2   127  MET127     -0.2864
    141  CB       -37.6890   -8.4470  -26.1100 C.3   127  MET127      0.0413
    142  CG       -37.7220   -9.6430  -25.1880 C.3   127  MET127      0.0598
    143  SD       -37.8950   -9.0790  -23.4850 S.3   127  MET127     -0.1393
    144  CE       -37.7740  -10.6430  -22.6120 C.3   127  MET127      0.0692
    145  N        -37.7880   -4.0470  -27.1340 N.3   130  ASN130     -0.1240
    146  CA       -36.7410   -3.4480  -26.3110 C.3   130  ASN130      0.1653
    147  C        -35.9780   -2.4320  -27.1460 C.2   130  ASN130      0.2266
    148  O        -34.7860   -2.6090  -27.4540 O.2   130  ASN130     -0.2867
    149  CB       -35.7990   -4.5210  -25.7530 C.3   130  ASN130      0.1155
    150  CG       -34.8120   -3.9700  -24.7340 C.2   130  ASN130      0.2627
    151  OD1      -34.6110   -2.7600  -24.6230 O.2   130  ASN130     -0.2716
    152  ND2      -34.1760   -4.8680  -23.9920 N.am  130  ASN130     -0.0877
    153  N        -34.5980    0.3730  -26.7780 N.3   132  LYS132     -0.1231
    154  CA       -33.3600    0.9740  -26.3040 C.3   132  LYS132      0.1693
    155  C        -32.1660    0.0330  -26.5650 C.2   132  LYS132      0.2591
    156  O        -31.1280    0.4620  -27.0730 O.2   132  LYS132     -0.2718
    157  CB       -33.4760    1.3170  -24.8170 C.3   132  LYS132      0.0285
    158  CG       -32.3420    2.1540  -24.2670 C.3   132  LYS132      0.0035
    159  CD       -32.6810    2.6650  -22.8790 C.3   132  LYS132      0.0206
    160  CE       -31.4390    3.1660  -22.1550 C.3   132  LYS132      0.1093
    161  NZ       -30.7730    4.2710  -22.8840 N.3   132  LYS132     -0.1314
    162  N        -32.3230   -1.2470  -26.2350 N.am  133  ALA133     -0.1980
    163  CA       -31.2770   -2.2350  -26.4990 C.3   133  ALA133      0.1597
    164  C        -31.0580   -2.3690  -27.9980 C.2   133  ALA133      0.2287
    165  O        -29.9300   -2.4360  -28.4680 O.2   133  ALA133     -0.2864
    166  CB       -31.6340   -3.5920  -25.8890 C.3   133  ALA133      0.0319
    167  N        -29.0770    0.5260  -29.2200 N.3   136  PHE136     -0.1227
    168  CA       -27.7390    0.4160  -28.6920 C.3   136  PHE136      0.1736
    169  C        -26.8790   -0.5610  -29.5020 C.2   136  PHE136      0.2595
    170  O        -25.7340   -0.2640  -29.7950 O.2   136  PHE136     -0.2718
    171  CB       -27.8090   -0.0100  -27.2310 C.3   136  PHE136      0.0547
    172  CG       -26.4770   -0.3140  -26.6240 C.ar  136  PHE136     -0.0202
    173  CD1      -25.6200    0.7150  -26.2440 C.ar  136  PHE136     -0.0042
    174  CD2      -26.0830   -1.6280  -26.4090 C.ar  136  PHE136     -0.0042
    175  CE1      -24.3850    0.4310  -25.6650 C.ar  136  PHE136     -0.0003
    176  CE2      -24.8460   -1.9180  -25.8310 C.ar  136  PHE136     -0.0003
    177  CZ       -23.9990   -0.8880  -25.4640 C.ar  136  PHE136     -0.0000
    178  N        -27.4360   -1.7090  -29.8740 N.am  137  TYR137     -0.1976
    179  CA       -26.6540   -2.7510  -30.5300 C.3   137  TYR137      0.1639
    180  C        -26.4560   -2.4560  -32.0050 C.2   137  TYR137      0.2290
    181  O        -25.4080   -2.8010  -32.5920 O.2   137  TYR137     -0.2864
    182  CB       -27.3080   -4.1220  -30.3500 C.3   137  TYR137      0.0560
    183  CG       -27.0310   -4.6980  -28.9910 C.ar  137  TYR137     -0.0198
    184  CD1      -25.7380   -4.9860  -28.6090 C.ar  137  TYR137     -0.0009
    185  CD2      -28.0610   -4.9460  -28.0830 C.ar  137  TYR137     -0.0009
    186  CE1      -25.4600   -5.5040  -27.3640 C.ar  137  TYR137      0.0417
    187  CE2      -27.7990   -5.4710  -26.8310 C.ar  137  TYR137      0.0417
    188  CZ       -26.4860   -5.7490  -26.4780 C.ar  137  TYR137      0.1957
    189  OH       -26.1730   -6.2730  -25.2430 O.3   137  TYR137     -0.2866
    190  N        -26.3230    0.6040  -33.1690 N.3   139  LYS139     -0.1245
    191  CA       -25.3200    1.6530  -33.1060 C.3   139  LYS139      0.1561
    192  C        -23.9200    1.0330  -33.0830 C.2   139  LYS139      0.2260
    193  O        -22.9810    1.5870  -33.6480 O.2   139  LYS139     -0.2867
    194  CB       -25.5700    2.5240  -31.8760 C.3   139  LYS139      0.0271
    195  CG       -24.4700    3.4970  -31.5280 C.3   139  LYS139      0.0035
    196  CD       -24.9910    4.5530  -30.5500 C.3   139  LYS139      0.0206
    197  CE       -23.9790    4.8880  -29.4580 C.3   139  LYS139      0.1093
    198  NZ       -23.8550    3.7800  -28.4580 N.3   139  LYS139     -0.1314
@<TRIPOS>BOND
     1   193   192    2
     2   190   191    1
     3   191   192    1
     4   191   194    1
     5   181   180    2
     6   180   179    1
     7   194   195    1
     8   195   196    1
     9   116   115    2
    10   196   197    1
    11   179   182    1
    12   179   178    1
    13   113   114    1
    14   182   183    1
    15   119   118    1
    16   178   169   am
    17   170   169    2
    18   118   117    1
    19   118   120    1
    20   115   114    1
    21   115   121   am
    22   117   114    1
    23   133   132    2
    24   169   168    1
    25   197   198    1
    26   167   168    1
    27   183   184   ar
    28   183   185   ar
    29   134   136    1
    30   134   135    1
    31   134   131    1
    32   168   171    1
    33   126   127    1
    34   126   125    1
    35   130   131    1
    36   130   123   am
    37   184   186   ar
    38   122   121    1
    39   122   123    1
    40   122   125    1
    41   165   164    2
    42   129   127   ar
    43   139   140    2
    44   139   138    1
    45   132   131    1
    46   132   137   am
    47   185   187   ar
    48   164   163    1
    49   123   124    2
    50   127   128   ar
    51   112   110   ar
    52   138   137    1
    53   138   141    1
    54   148   147    2
    55   186   188   ar
    56   171   172    1
    57   111   110   ar
    58   147   146    1
    59   145   146    1
    60   156   155    2
    61   110   109    1
    62    44    43    1
    63   187   188   ar
    64   153   154    1
    65   172   174   ar
    66   172   173   ar
    67   155   154    1
    68   155   162   am
    69   163   162    1
    70   163   166    1
    71   188   189    1
    72    42    43    1
    73    42    39    1
    74    38    39    1
    75   174   176   ar
    76   146   149    1
    77   154   157    1
    78   173   175   ar
    79   141   142    1
    80   109   108    1
    81    43    45    1
    82   176   177   ar
    83   149   150    1
    84   175   177   ar
    85    39    40    1
    86    41    40    2
    87   142   143    1
    88    40    46   am
    89   157   158    1
    90   150   151    2
    91   150   152   am
    92   108   105    1
    93   107   106    2
    94   158   159    1
    95   105   106    1
    96   105   104    1
    97    46    47    1
    98   143   144    1
    99    28    29   ar
   100    28    26   ar
   101    57    55    1
   102    29    27   ar
   103   104   102   am
   104   161   160    1
   105   159   160    1
   106    47    48    1
   107   103   102    2
   108    26    23   ar
   109   102   101    1
   110    55    54    1
   111    27    25   ar
   112    48    50   am
   113    48    49    2
   114    54    51    1
   115    54    56    1
   116    50    51    1
   117    23    25   ar
   118    23    21   ar
   119    25    24   ar
   120   101   100    1
   121    19    18    2
   122    51    52    1
   123    21    20    1
   124    21    22   ar
   125    20    17    1
   126    53    52    2
   127   100    98   am
   128    24    22   ar
   129    92    93    1
   130    92    89    1
   131    52    58   am
   132    17    18    1
   133    17    16    1
   134    18    30   am
   135    95    93   am
   136    98    99    2
   137    98    97    1
   138    96    97    1
   139    96    90   am
   140    82    81    2
   141    93    94    2
   142    89    90    1
   143    89    88    1
   144    58    59    1
   145    32    31    1
   146    32    33    2
   147    30    31    1
   148    90    91    2
   149    31    34    1
   150    81    88   am
   151    81    80    1
   152    59    62    1
   153    59    60    1
   154    76    77    1
   155    76    75    1
   156    77    78    1
   157    36    37    1
   158    36    35    1
   159    75    74    1
   160    74    71    1
   161    70    60   am
   162    70    71    1
   163    62    63    1
   164    60    61    2
   165    34    35    1
   166    83    80    1
   167    83    84    1
   168     4     3    2
   169    80    79    1
   170    12    11    2
   171    71    72    1
   172    65    63   ar
   173    65    67   ar
   174    85    84    1
   175    85    86    1
   176    63    64   ar
   177     3     2    1
   178     3     9   am
   179    11    10    1
   180    10     9    1
   181    10    13    1
   182    67    68   ar
   183    15    13    1
   184     8     6   am
   185    72    73    2
   186    86    87    1
   187     2     5    1
   188     2     1    1
   189     5     6    1
   190    64    66   ar
   191    13    14    1
   192     6     7    2
   193    68    66   ar
   194    68    69    1
