@<TRIPOS>MOLECULE
tmp/4ri2A01.pdb
 78 74 0 0 0
SMALL
GASTEIGER

@<TRIPOS>ATOM
      1  N         -5.7430  -12.6770   14.1000 N.3    33  LEU33      -0.1231
      2  CA        -6.1180  -12.1610   12.7930 C.3    33  LEU33       0.1693
      3  C         -7.0830  -13.1280   12.1130 C.2    33  LEU33       0.2592
      4  O         -8.1400  -12.7160   11.6200 O.2    33  LEU33      -0.2718
      5  CB        -4.8760  -11.9180   11.9280 C.3    33  LEU33       0.0284
      6  CG        -5.0670  -11.1050   10.6450 C.3    33  LEU33       0.0019
      7  CD1       -5.8600   -9.8340   10.9210 C.3    33  LEU33       0.0001
      8  CD2       -3.7260  -10.7740   10.0080 C.3    33  LEU33       0.0001
      9  N         -6.7310  -14.4130   12.1070 N.am   34  PHE34      -0.1976
     10  CA        -7.6030  -15.4220   11.5040 C.3    34  PHE34       0.1639
     11  C         -8.9850  -15.4580   12.1560 C.2    34  PHE34       0.2290
     12  O        -10.0150  -15.3860   11.4650 O.2    34  PHE34      -0.2864
     13  CB        -6.9660  -16.8120   11.5540 C.3    34  PHE34       0.0560
     14  CG        -7.8160  -17.8860   10.9370 C.ar   34  PHE34      -0.0200
     15  CD1       -7.8890  -18.0230    9.5610 C.ar   34  PHE34      -0.0042
     16  CD2       -8.5470  -18.7540   11.7310 C.ar   34  PHE34      -0.0042
     17  CE1       -8.6700  -19.0030    8.9910 C.ar   34  PHE34      -0.0003
     18  CE2       -9.3300  -19.7380   11.1630 C.ar   34  PHE34      -0.0003
     19  CZ        -9.3900  -19.8620    9.7910 C.ar   34  PHE34      -0.0000
     20  N        -11.0090  -12.6840   11.0720 N.3    37  ARG37      -0.1231
     21  CA       -11.5630  -12.8580    9.7310 C.3    37  ARG37       0.1694
     22  C        -12.8360  -13.6930    9.7920 C.2    37  ARG37       0.2591
     23  O        -13.8530  -13.3610    9.1560 O.2    37  ARG37      -0.2718
     24  CB       -10.5460  -13.5210    8.8000 C.3    37  ARG37       0.0321
     25  CG        -9.2580  -12.7380    8.6210 C.3    37  ARG37       0.0489
     26  CD        -8.3100  -13.4380    7.6500 C.3    37  ARG37       0.2205
     27  NE        -7.0090  -12.7780    7.5680 N.pl3  37  ARG37      -0.0865
     28  CZ        -6.7720  -11.6800    6.8560 C.cat  37  ARG37       0.5346
     29  NH1       -7.7510  -11.1050    6.1690 N.pl3  37  ARG37       0.1354
     30  NH2       -5.5570  -11.1490    6.8340 N.pl3  37  ARG37       0.1354
     31  N        -12.7790  -14.7710   10.5720 N.am   38  VAL38      -0.1980
     32  CA       -13.9450  -15.6310   10.7520 C.3    38  VAL38       0.1595
     33  C        -15.1210  -14.8390   11.3230 C.2    38  VAL38       0.2287
     34  O        -16.2700  -15.0070   10.9000 O.2    38  VAL38      -0.2864
     35  CB       -13.6280  -16.8340   11.6570 C.3    38  VAL38       0.0276
     36  CG1      -14.8970  -17.6100   11.9810 C.3    38  VAL38       0.0022
     37  CG2      -12.5930  -17.7310   10.9910 C.3    38  VAL38       0.0022
     38  N        -16.6130  -12.5430    8.5060 N.3    41  ILE41      -0.1231
     39  CA       -17.5030  -13.2990    7.6250 C.3    41  ILE41       0.1692
     40  C        -18.8060  -13.7160    8.3190 C.2    41  ILE41       0.2592
     41  O        -19.8800  -13.6630    7.7180 O.2    41  ILE41      -0.2718
     42  CB       -16.7800  -14.5150    7.0010 C.3    41  ILE41       0.0266
     43  CG1      -15.8120  -14.0390    5.9160 C.3    41  ILE41       0.0019
     44  CG2      -17.7750  -15.5030    6.4040 C.3    41  ILE41       0.0020
     45  CD1      -14.9840  -15.1420    5.3130 C.3    41  ILE41       0.0001
     46  N        -18.7130  -14.1040    9.5890 N.am   42  GLY42      -0.1957
     47  CA       -19.8930  -14.4720   10.3550 C.3    42  GLY42       0.1869
     48  C        -20.8560  -13.3120   10.5540 C.2    42  GLY42       0.2309
     49  O        -22.0700  -13.4500   10.3720 O.2    42  GLY42      -0.2863
     50  N         -1.6300   -5.3290    8.2920 N.3   107  LYS107     -0.1245
     51  CA        -2.1540   -6.4770    9.0280 C.3   107  LYS107      0.1561
     52  C         -2.7590   -6.0620   10.3710 C.2   107  LYS107      0.2260
     53  O         -3.6920   -6.6980   10.8670 O.2   107  LYS107     -0.2867
     54  CB        -1.0760   -7.5470    9.2210 C.3   107  LYS107      0.0271
     55  CG        -0.7470   -8.3320    7.9560 C.3   107  LYS107      0.0035
     56  CD         0.3420   -9.3570    8.2110 C.3   107  LYS107      0.0206
     57  CE         0.4160  -10.3860    7.0870 C.3   107  LYS107      0.1093
     58  NZ         0.5100   -9.7500    5.7430 N.3   107  LYS107     -0.1314
     59  N        -11.9990   -9.4380    5.0720 N.3   165  ALA165     -0.1231
     60  CA       -11.7790  -10.8030    5.5400 C.3   165  ALA165      0.1694
     61  C        -10.8370  -11.5930    4.6350 C.2   165  ALA165      0.2591
     62  O        -10.2190  -12.5640    5.0680 O.2   165  ALA165     -0.2718
     63  CB       -13.1090  -11.5370    5.7040 C.3   165  ALA165      0.0304
     64  N        -10.7210  -11.1680    3.3810 N.am  166  ILE166     -0.1980
     65  CA        -9.8950  -11.8820    2.4150 C.3   166  ILE166      0.1595
     66  C         -8.5750  -11.1530    2.1750 C.2   166  ILE166      0.2287
     67  O         -7.6050  -11.7430    1.6990 O.2   166  ILE166     -0.2864
     68  CB       -10.6480  -12.0770    1.0810 C.3   166  ILE166      0.0276
     69  CG1      -12.0650  -12.5840    1.3430 C.3   166  ILE166      0.0022
     70  CG2       -9.9220  -13.0590    0.1750 C.3   166  ILE166      0.0022
     71  CD1      -12.8120  -12.9620    0.0840 C.3   166  ILE166      0.0001
     72  N         -5.1040   -9.9150    2.9730 N.3   168  PRO168     -0.2116
     73  CA        -4.0300  -10.3450    3.8810 C.3   168  PRO168      0.1372
     74  C         -3.5020   -9.2040    4.7440 C.2   168  PRO168      0.2244
     75  O         -3.2070   -9.4030    5.9220 O.2   168  PRO168     -0.2868
     76  CB        -2.9310  -10.8120    2.9180 C.3   168  PRO168      0.0268
     77  CG        -3.6210  -11.0710    1.6330 C.3   168  PRO168      0.0207
     78  CD        -4.7360  -10.0850    1.5650 C.3   168  PRO168      0.0892
@<TRIPOS>BOND
     1    71    69    1
     2    70    68    1
     3    68    69    1
     4    68    65    1
     5    78    77    1
     6    78    72    1
     7    77    76    1
     8    67    66    2
     9    66    65    1
    10    65    64    1
    11    76    73    1
    12    72    73    1
    13    64    61   am
    14    73    74    1
    15    61    62    2
    16    61    60    1
    17    74    75    2
    18    59    60    1
    19    45    43    1
    20    60    63    1
    21    58    57    1
    22    43    42    1
    23    29    28    1
    24    44    42    1
    25    30    28    1
    26    28    27    2
    27    42    39    1
    28    57    56    1
    29    27    26    1
    30    39    40    1
    31    39    38    1
    32    26    25    1
    33    41    40    2
    34    55    56    1
    35    55    54    1
    36    50    51    1
    37    40    46   am
    38    25    24    1
    39    24    21    1
    40    17    15   ar
    41    17    19   ar
    42    51    54    1
    43    51    52    1
    44    23    22    2
    45    15    14   ar
    46    46    47    1
    47    21    22    1
    48    21    20    1
    49    19    18   ar
    50    22    31   am
    51     8     6    1
    52    47    48    1
    53    52    53    2
    54    49    48    2
    55    31    32    1
    56     6     7    1
    57     6     5    1
    58    32    33    1
    59    32    35    1
    60    34    33    2
    61    14    13    1
    62    14    16   ar
    63    37    35    1
    64    18    16   ar
    65    12    11    2
    66    10    13    1
    67    10     9    1
    68    10    11    1
    69     4     3    2
    70    35    36    1
    71     5     2    1
    72     9     3   am
    73     3     2    1
    74     2     1    1
