@<TRIPOS>MOLECULE
tmp/4ri3B02.pdb
 102 99 0 0 0
SMALL
GASTEIGER

@<TRIPOS>ATOM
      1  N         74.5290   73.5610   17.2410 N.3     7  LEU7       -0.1245
      2  CA        75.9290   73.3030   16.9270 C.3     7  LEU7        0.1561
      3  C         76.3840   74.1170   15.7190 C.2     7  LEU7        0.2260
      4  O         75.8930   73.9210   14.6090 O.2     7  LEU7       -0.2867
      5  CB        76.1270   71.8060   16.6740 C.3     7  LEU7        0.0270
      6  CG        77.5240   71.2540   16.3880 C.3     7  LEU7        0.0019
      7  CD1       78.4780   71.5480   17.5380 C.3     7  LEU7        0.0001
      8  CD2       77.4440   69.7590   16.1160 C.3     7  LEU7        0.0001
      9  N         68.4900   71.4070   15.6780 N.3    13  GLY13      -0.1210
     10  CA        68.2160   71.0460   17.0570 C.3    13  GLY13       0.1956
     11  C         69.3090   70.1810   17.6540 C.2    13  GLY13       0.2612
     12  O         69.0760   69.4430   18.6110 O.2    13  GLY13      -0.2717
     13  N         70.5050   70.2660   17.0800 N.am   14  ILE14      -0.1965
     14  CA        71.6640   69.5460   17.5950 C.3    14  ILE14       0.1727
     15  C         72.5660   70.5100   18.3570 C.2    14  ILE14       0.2617
     16  O         72.7530   71.6500   17.9360 O.2    14  ILE14      -0.2715
     17  CB        72.4760   68.8990   16.4540 C.3    14  ILE14       0.0290
     18  CG1       71.5690   68.0690   15.5430 C.3    14  ILE14       0.0022
     19  CG2       73.6020   68.0400   17.0090 C.3    14  ILE14       0.0023
     20  CD1       72.3010   67.4330   14.3780 C.3    14  ILE14       0.0001
     21  N         73.1160   70.0610   19.4810 N.am   15  GLY15      -0.1940
     22  CA        74.0240   70.8840   20.2570 C.3    15  GLY15       0.2014
     23  C         73.4940   71.2350   21.6340 C.2    15  GLY15       0.2639
     24  O         72.3760   70.8660   21.9920 O.2    15  GLY15      -0.2714
     25  N         74.3010   71.9580   22.4040 N.am   16  PHE16      -0.1959
     26  CA        73.9400   72.3320   23.7690 C.3    16  PHE16       0.1771
     27  C         72.7250   73.2550   23.8320 C.2    16  PHE16       0.2620
     28  O         72.4560   74.0120   22.9010 O.2    16  PHE16      -0.2715
     29  CB        75.1190   73.0180   24.4680 C.3    16  PHE16       0.0574
     30  CG        76.2350   72.0880   24.8510 C.ar   16  PHE16      -0.0200
     31  CD1       76.0110   70.7260   24.9830 C.ar   16  PHE16      -0.0042
     32  CD2       77.5070   72.5790   25.0910 C.ar   16  PHE16      -0.0042
     33  CE1       77.0380   69.8760   25.3390 C.ar   16  PHE16      -0.0003
     34  CE2       78.5370   71.7360   25.4470 C.ar   16  PHE16      -0.0003
     35  CZ        78.3020   70.3810   25.5720 C.ar   16  PHE16      -0.0000
     36  N         71.9920   73.1800   24.9380 N.am   17  THR17      -0.1951
     37  CA        70.9990   74.1900   25.2680 C.3    17  THR17       0.1897
     38  C         71.6990   75.1910   26.1760 C.2    17  THR17       0.2313
     39  O         72.8540   74.9800   26.5480 O.2    17  THR17      -0.2863
     40  CB        69.7960   73.5890   26.0140 C.3    17  THR17       0.1794
     41  OG1       70.1780   73.2570   27.3540 O.3    17  THR17      -0.2208
     42  CG2       69.2890   72.3390   25.3060 C.3    17  THR17       0.0378
     43  N         72.7250   73.3670   29.4750 N.3    20  ASN20      -0.1240
     44  CA        73.9610   72.5940   29.3810 C.3    20  ASN20       0.1653
     45  C         75.1620   73.5150   29.4940 C.2    20  ASN20       0.2266
     46  O         76.1000   73.2470   30.2540 O.2    20  ASN20      -0.2867
     47  CB        74.0140   71.8320   28.0590 C.3    20  ASN20       0.1155
     48  CG        72.7790   70.9940   27.8090 C.2    20  ASN20       0.2627
     49  OD1       72.1340   71.1140   26.7720 O.2    20  ASN20      -0.2716
     50  ND2       72.4390   70.1420   28.7700 N.am   20  ASN20      -0.0877
     51  N         92.2130   68.7360   23.5840 N.3    67  PHE67      -0.1227
     52  CA        90.8130   68.5970   23.2040 C.3    67  PHE67       0.1736
     53  C         89.9180   69.2310   24.2610 C.2    67  PHE67       0.2595
     54  O         88.8280   69.7110   23.9530 O.2    67  PHE67      -0.2718
     55  CB        90.4360   67.1250   23.0070 C.3    67  PHE67       0.0547
     56  CG        91.1140   66.4680   21.8310 C.ar   67  PHE67      -0.0202
     57  CD1       91.6590   67.2290   20.8060 C.ar   67  PHE67      -0.0042
     58  CD2       91.2040   65.0860   21.7540 C.ar   67  PHE67      -0.0042
     59  CE1       92.2830   66.6210   19.7270 C.ar   67  PHE67      -0.0003
     60  CE2       91.8250   64.4730   20.6800 C.ar   67  PHE67      -0.0003
     61  CZ        92.3640   65.2420   19.6650 C.ar   67  PHE67      -0.0000
     62  N         90.3790   69.2320   25.5070 N.am   68  PHE68      -0.1976
     63  CA        89.6420   69.8690   26.5910 C.3    68  PHE68       0.1639
     64  C         89.6970   71.3890   26.4550 C.2    68  PHE68       0.2290
     65  O         88.7160   72.0830   26.7250 O.2    68  PHE68      -0.2864
     66  CB        90.1890   69.4360   27.9480 C.3    68  PHE68       0.0560
     67  CG        89.5890   70.1640   29.1120 C.ar   68  PHE68      -0.0200
     68  CD1       88.3180   69.8470   29.5650 C.ar   68  PHE68      -0.0042
     69  CD2       90.2990   71.1580   29.7640 C.ar   68  PHE68      -0.0042
     70  CE1       87.7660   70.5110   30.6400 C.ar   68  PHE68      -0.0003
     71  CE2       89.7530   71.8260   30.8390 C.ar   68  PHE68      -0.0003
     72  CZ        88.4850   71.5030   31.2790 C.ar   68  PHE68      -0.0000
     73  N         87.4260   72.1970   23.4990 N.3    71  PHE71      -0.1241
     74  CA        86.0540   72.0740   23.9740 C.3    71  PHE71       0.1605
     75  C         85.6300   73.2830   24.8080 C.2    71  PHE71       0.2264
     76  O         84.5550   73.8430   24.5990 O.2    71  PHE71      -0.2867
     77  CB        85.8910   70.7920   24.7920 C.3    71  PHE71       0.0534
     78  CG        84.6280   70.7330   25.6020 C.ar   71  PHE71      -0.0203
     79  CD1       83.4290   70.3650   25.0150 C.ar   71  PHE71      -0.0042
     80  CD2       84.6440   71.0270   26.9570 C.ar   71  PHE71      -0.0042
     81  CE1       82.2730   70.3040   25.7580 C.ar   71  PHE71      -0.0003
     82  CE2       83.4900   70.9700   27.7040 C.ar   71  PHE71      -0.0003
     83  CZ        82.3030   70.6070   27.1040 C.ar   71  PHE71      -0.0000
     84  N         79.0210   75.1450   20.4730 N.3    80  LEU80      -0.1245
     85  CA        78.6000   73.7650   20.6710 C.3    80  LEU80       0.1561
     86  C         77.1010   73.6750   20.9210 C.2    80  LEU80       0.2260
     87  O         76.5830   72.6160   21.2770 O.2    80  LEU80      -0.2867
     88  CB        79.3560   73.1440   21.8420 C.3    80  LEU80       0.0270
     89  CG        80.8760   73.1180   21.7170 C.3    80  LEU80       0.0019
     90  CD1       81.4830   72.4250   22.9230 C.3    80  LEU80       0.0001
     91  CD2       81.3020   72.4440   20.4180 C.3    80  LEU80       0.0001
     92  N         70.9800   76.7560   22.4910 N.3    83  ARG83      -0.1245
     93  CA        69.5530   76.6160   22.2050 C.3    83  ARG83       0.1563
     94  C         68.6520   77.1300   23.3270 C.2    83  ARG83       0.2260
     95  O         69.0160   77.0930   24.5020 O.2    83  ARG83      -0.2867
     96  CB        69.2180   75.1590   21.8800 C.3    83  ARG83       0.0307
     97  CG        70.0400   74.5770   20.7410 C.3    83  ARG83       0.0489
     98  CD        69.4790   73.2450   20.2820 C.3    83  ARG83       0.2205
     99  NE        69.4480   72.2650   21.3620 N.pl3  83  ARG83      -0.0865
    100  CZ        68.6130   71.2330   21.4100 C.cat  83  ARG83       0.5346
    101  NH1       67.7290   71.0470   20.4370 N.pl3  83  ARG83       0.1354
    102  NH2       68.6540   70.3910   22.4310 N.pl3  83  ARG83       0.1354
@<TRIPOS>BOND
     1    20    18    1
     2     4     3    2
     3    18    17    1
     4     9    10    1
     5     3     2    1
     6     8     6    1
     7     6     5    1
     8     6     7    1
     9    17    19    1
    10    17    14    1
    11     5     2    1
    12     2     1    1
    13    10    11    1
    14    13    14    1
    15    13    11   am
    16    14    15    1
    17    11    12    2
    18    16    15    2
    19    15    21   am
    20    21    22    1
    21    61    59   ar
    22    61    60   ar
    23    59    57   ar
    24    22    23    1
    25    98    97    1
    26    98    99    1
    27    91    89    1
    28   101   100    1
    29    84    85    1
    30    85    86    1
    31    85    88    1
    32    60    58   ar
    33    97    96    1
    34    57    56   ar
    35    86    87    2
    36    99   100    2
    37   100   102    1
    38    23    24    2
    39    23    25   am
    40    89    88    1
    41    89    90    1
    42    58    56   ar
    43    56    55    1
    44    96    93    1
    45    93    92    1
    46    93    94    1
    47    25    26    1
    48    28    27    2
    49    55    52    1
    50    52    51    1
    51    52    53    1
    52    94    95    2
    53    73    74    1
    54    26    27    1
    55    26    29    1
    56    27    36   am
    57    54    53    2
    58    74    77    1
    59    74    75    1
    60    53    62   am
    61    29    30    1
    62    76    75    2
    63    77    78    1
    64    30    31   ar
    65    30    32   ar
    66    36    37    1
    67    31    33   ar
    68    79    78   ar
    69    79    81   ar
    70    32    34   ar
    71    37    40    1
    72    37    38    1
    73    42    40    1
    74    33    35   ar
    75    34    35   ar
    76    62    63    1
    77    78    80   ar
    78    81    83   ar
    79    40    41    1
    80    38    39    2
    81    64    63    1
    82    64    65    2
    83    63    66    1
    84    49    48    2
    85    80    82   ar
    86    83    82   ar
    87    48    47    1
    88    48    50   am
    89    66    67    1
    90    47    44    1
    91    67    68   ar
    92    67    69   ar
    93    44    43    1
    94    44    45    1
    95    45    46    2
    96    68    70   ar
    97    69    71   ar
    98    70    72   ar
    99    71    72   ar
