@<TRIPOS>MOLECULE
tmp/4ri3A00.pdb
 90 84 0 0 0
SMALL
GASTEIGER

@<TRIPOS>ATOM
      1  N         91.9730   89.8110   10.8540 N.3    43  PHE43      -0.1241
      2  CA        92.7380   88.5900   11.0730 C.3    43  PHE43       0.1605
      3  C         93.4010   88.1170    9.7790 C.2    43  PHE43       0.2264
      4  O         94.6010   87.8190    9.7550 O.2    43  PHE43      -0.2867
      5  CB        91.8250   87.4930   11.6180 C.3    43  PHE43       0.0534
      6  CG        92.5520   86.3570   12.2730 C.ar   43  PHE43      -0.0203
      7  CD1       93.7730   86.5610   12.9010 C.ar   43  PHE43      -0.0042
      8  CD2       92.0190   85.0820   12.2530 C.ar   43  PHE43      -0.0042
      9  CE1       94.4380   85.5110   13.5040 C.ar   43  PHE43      -0.0003
     10  CE2       92.6780   84.0300   12.8500 C.ar   43  PHE43      -0.0003
     11  CZ        93.8890   84.2440   13.4780 C.ar   43  PHE43      -0.0000
     12  N         90.8070   83.8680   17.6680 N.3   119  GLY119     -0.1225
     13  CA        92.1290   83.7250   17.0870 C.3   119  GLY119      0.1811
     14  C         92.8770   85.0390   16.9730 C.2   119  GLY119      0.2280
     15  O         94.0870   85.1000   17.1990 O.2   119  GLY119     -0.2866
     16  N         93.9030   86.2660   20.5700 N.3   122  PHE122     -0.1227
     17  CA        95.0100   85.4000   20.9690 C.3   122  PHE122      0.1736
     18  C         96.3100   85.7800   20.2610 C.2   122  PHE122      0.2596
     19  O         97.3570   85.9190   20.9020 O.2   122  PHE122     -0.2718
     20  CB        94.6750   83.9340   20.6860 C.3   122  PHE122      0.0547
     21  CG        93.9670   83.2370   21.8120 C.ar  122  PHE122     -0.0202
     22  CD1       92.6460   83.5340   22.1120 C.ar  122  PHE122     -0.0042
     23  CD2       94.6190   82.2740   22.5620 C.ar  122  PHE122     -0.0042
     24  CE1       91.9940   82.8880   23.1490 C.ar  122  PHE122     -0.0003
     25  CE2       93.9750   81.6240   23.5980 C.ar  122  PHE122     -0.0003
     26  CZ        92.6600   81.9320   23.8920 C.ar  122  PHE122     -0.0000
     27  N         96.2410   85.9500   18.9430 N.am  123  SER123     -0.1952
     28  CA        97.4290   86.2790   18.1590 C.3   123  SER123      0.1924
     29  C         98.0010   87.6320   18.5650 C.2   123  SER123      0.2314
     30  O         99.2150   87.8280   18.5620 O.2   123  SER123     -0.2863
     31  CB        97.1290   86.2480   16.6530 C.3   123  SER123      0.2116
     32  OG        96.1850   87.2380   16.2750 O.3   123  SER123     -0.2180
     33  N         97.6600   89.1480   21.6470 N.3   125  ILE125     -0.1231
     34  CA        98.2790   88.9550   22.9550 C.3   125  ILE125      0.1692
     35  C         99.6580   88.3140   22.8090 C.2   125  ILE125      0.2592
     36  O        100.6590   88.7990   23.3640 O.2   125  ILE125     -0.2718
     37  CB        97.4020   88.0670   23.8510 C.3   125  ILE125      0.0266
     38  CG1       96.0700   88.7620   24.1340 C.3   125  ILE125      0.0019
     39  CG2       98.1200   87.7380   25.1500 C.3   125  ILE125      0.0020
     40  CD1       95.0790   87.8970   24.8550 C.3   125  ILE125      0.0001
     41  N         99.6980   87.2310   22.0390 N.am  126  GLY126     -0.1957
     42  CA       100.9340   86.5260   21.7580 C.3   126  GLY126      0.1869
     43  C        101.9920   87.4020   21.1170 C.2   126  GLY126      0.2309
     44  O        103.1680   87.3170   21.4710 O.2   126  GLY126     -0.2863
     45  N        103.4210   89.8050   23.8180 N.3   129  ILE129     -0.1231
     46  CA       104.3620   89.1930   24.7540 C.3   129  ILE129      0.1692
     47  C        105.6510   88.6510   24.1160 C.2   129  ILE129      0.2592
     48  O        106.7430   88.8720   24.6390 O.2   129  ILE129     -0.2718
     49  CB       103.6810   88.0920   25.5920 C.3   129  ILE129      0.0266
     50  CG1      102.4680   88.6640   26.3230 C.3   129  ILE129      0.0019
     51  CG2      104.6570   87.4940   26.5950 C.3   129  ILE129      0.0020
     52  CD1      101.7790   87.6660   27.2160 C.3   129  ILE129      0.0001
     53  N        105.5290   87.9510   22.9930 N.am  130  THR130     -0.1953
     54  CA       106.6770   87.2740   22.3900 C.3   130  THR130      0.1897
     55  C        107.3740   88.0710   21.2840 C.2   130  THR130      0.2313
     56  O        108.5650   87.8800   21.0300 O.2   130  THR130     -0.2863
     57  CB       106.2800   85.9070   21.8080 C.3   130  THR130      0.1794
     58  OG1      105.4530   86.1000   20.6530 O.3   130  THR130     -0.2208
     59  CG2      105.5320   85.0800   22.8380 C.3   130  THR130      0.0378
     60  N        101.1390   86.3380   14.0700 N.3   134  ALA134     -0.1245
     61  CA       100.2840   85.1560   14.1000 C.3   134  ALA134      0.1562
     62  C        100.8830   83.9640   13.3550 C.2   134  ALA134      0.2260
     63  O        100.7410   82.8200   13.7880 O.2   134  ALA134     -0.2867
     64  CB        98.8980   85.4870   13.5500 C.3   134  ALA134      0.0290
     65  N        103.7960   82.4850   15.3150 N.3   137  GLN137     -0.1231
     66  CA       103.1320   81.8230   16.4290 C.3   137  GLN137      0.1698
     67  C        102.6050   80.4570   16.0130 C.2   137  GLN137      0.2592
     68  O        102.8530   79.4730   16.6920 O.2   137  GLN137     -0.2718
     69  CB       101.9870   82.6800   16.9600 C.3   137  GLN137      0.0381
     70  CG       102.4180   83.8830   17.7730 C.3   137  GLN137      0.0905
     71  CD       101.2400   84.7320   18.1960 C.2   137  GLN137      0.2608
     72  OE1      100.2400   84.2180   18.6920 O.2   137  GLN137     -0.2717
     73  NE2      101.3460   86.0380   17.9900 N.am  137  GLN137     -0.0878
     74  N        101.8850   80.4050   14.8940 N.am  138  LEU138     -0.1980
     75  CA       101.3750   79.1430   14.3560 C.3   138  LEU138      0.1596
     76  C        102.5070   78.1480   14.1090 C.2   138  LEU138      0.2287
     77  O        102.3880   76.9610   14.4310 O.2   138  LEU138     -0.2864
     78  CB       100.5940   79.3790   13.0590 C.3   138  LEU138      0.0297
     79  CG        99.1680   79.9230   13.1820 C.3   138  LEU138      0.0022
     80  CD1       98.6150   80.3150   11.8180 C.3   138  LEU138      0.0001
     81  CD2       98.2570   78.9080   13.8610 C.3   138  LEU138      0.0001
     82  N        103.5550   76.8390   17.4700 N.3   141  GLU141     -0.1245
     83  CA       102.4490   76.0640   18.0300 C.3   141  GLU141      0.1567
     84  C        102.3860   74.6590   17.4580 C.2   141  GLU141      0.2260
     85  O        102.3190   73.6780   18.1970 O.2   141  GLU141     -0.2867
     86  CB       101.1100   76.7460   17.7320 C.3   141  GLU141      0.0388
     87  CG       100.8500   77.9380   18.6810 C.3   141  GLU141      0.1160
     88  CD        99.6500   78.7420   18.2330 C.2   141  GLU141      0.3649
     89  OE1       98.9180   78.1600   17.4010 O.co2 141  GLU141     -0.2457
     90  OE2       99.5110   79.8580   18.7130 O.co2 141  GLU141     -0.2457
@<TRIPOS>BOND
     1     4     3    2
     2     3     2    1
     3     1     2    1
     4     2     5    1
     5     5     6    1
     6    80    79    1
     7     8     6   ar
     8     8    10   ar
     9     6     7   ar
    10    10    11   ar
    11     7     9   ar
    12    78    79    1
    13    78    75    1
    14    79    81    1
    15    62    63    2
    16    62    61    1
    17    11     9   ar
    18    64    61    1
    19    60    61    1
    20    76    75    1
    21    76    77    2
    22    75    74    1
    23    74    67   am
    24    65    66    1
    25    67    66    1
    26    67    68    2
    27    32    31    1
    28    66    69    1
    29    31    28    1
    30    69    70    1
    31    14    13    1
    32    14    15    2
    33    13    12    1
    34    89    88   ar
    35    84    83    1
    36    84    85    2
    37    82    83    1
    38    86    83    1
    39    86    87    1
    40    70    71    1
    41    73    71   am
    42    28    29    1
    43    28    27    1
    44    71    72    2
    45    88    87    1
    46    88    90   ar
    47    30    29    2
    48    27    18   am
    49    18    19    2
    50    18    17    1
    51    16    17    1
    52    58    57    1
    53    20    17    1
    54    20    21    1
    55    56    55    2
    56    43    44    2
    57    43    42    1
    58    55    54    1
    59    33    34    1
    60    42    41    1
    61    57    54    1
    62    57    59    1
    63    21    22   ar
    64    21    23   ar
    65    41    35   am
    66    22    24   ar
    67    54    53    1
    68    23    25   ar
    69    35    34    1
    70    35    36    2
    71    34    37    1
    72    53    47   am
    73    24    26   ar
    74    25    26   ar
    75    45    46    1
    76    37    38    1
    77    37    39    1
    78    47    48    2
    79    47    46    1
    80    38    40    1
    81    46    49    1
    82    49    50    1
    83    49    51    1
    84    50    52    1
