@<TRIPOS>MOLECULE
tmp/4ri6A01.pdb
 84 80 0 0 0
SMALL
GASTEIGER

@<TRIPOS>ATOM
      1  N         34.1680   59.7950    5.1240 N.3    11  LEU11      -0.1231
      2  CA        33.4040   58.5300    5.1020 C.3    11  LEU11       0.1693
      3  C         32.2780   58.5350    6.1360 C.2    11  LEU11       0.2593
      4  O         31.3300   57.7590    6.0330 O.2    11  LEU11      -0.2718
      5  CB        34.3220   57.3110    5.3370 C.3    11  LEU11       0.0284
      6  CG        35.1120   57.2440    6.6580 C.3    11  LEU11       0.0019
      7  CD1       34.2900   56.6750    7.8130 C.3    11  LEU11       0.0001
      8  CD2       36.3720   56.4260    6.4790 C.3    11  LEU11       0.0001
      9  N         32.3550   59.4240    7.1240 N.am   12  SER12      -0.1938
     10  CA        31.3020   59.4910    8.1310 C.3    12  SER12       0.2055
     11  C         30.0350   60.1320    7.5670 C.2    12  SER12       0.2644
     12  O         30.0780   61.1690    6.9170 O.2    12  SER12      -0.2714
     13  CB        31.7700   60.2890    9.3600 C.3    12  SER12       0.2130
     14  OG        30.6630   60.9310   10.0060 O.3    12  SER12      -0.2179
     15  N         28.8990   59.5280    7.8540 N.am   13  THR13      -0.1936
     16  CA        27.6300   60.0630    7.3580 C.3    13  THR13       0.2028
     17  C         27.3350   61.4350    7.9270 C.2    13  THR13       0.2642
     18  O         26.8960   62.3200    7.2040 O.2    13  THR13      -0.2714
     19  CB        26.4720   59.1290    7.6900 C.3    13  THR13       0.1808
     20  OG1       26.5200   58.8080    9.0830 O.3    13  THR13      -0.2208
     21  CG2       26.5680   57.8540    6.8800 C.3    13  THR13       0.0379
     22  N         27.5700   61.6060    9.2290 N.am   14  ALA14      -0.1977
     23  CA        27.3100   62.8920    9.8590 C.3    14  ALA14       0.1597
     24  C         28.2660   63.9800    9.3680 C.2    14  ALA14       0.2287
     25  O         27.8710   65.1230    9.1850 O.2    14  ALA14      -0.2864
     26  CB        27.3770   62.7570   11.3760 C.3    14  ALA14       0.0319
     27  N         38.4810   57.1550   12.7710 N.3    36  LEU36      -0.1231
     28  CA        37.5610   56.4520   13.6590 C.3    36  LEU36       0.1693
     29  C         38.0050   55.0210   13.9200 C.2    36  LEU36       0.2592
     30  O         37.7520   54.4760   14.9830 O.2    36  LEU36      -0.2718
     31  CB        36.1370   56.4640   13.0760 C.3    36  LEU36       0.0284
     32  CG        35.5580   57.8450   12.7700 C.3    36  LEU36       0.0019
     33  CD1       34.1650   57.7590   12.1250 C.3    36  LEU36       0.0001
     34  CD2       35.5210   58.6940   14.0400 C.3    36  LEU36       0.0001
     35  N         38.6810   54.4060   12.9610 N.am   37  SER37      -0.1952
     36  CA        39.1920   53.0590   13.1700 C.3    37  SER37       0.1924
     37  C         40.3000   53.0490   14.2270 C.2    37  SER37       0.2314
     38  O         40.5590   52.0080   14.8320 O.2    37  SER37      -0.2863
     39  CB        39.7090   52.4580   11.8590 C.3    37  SER37       0.2116
     40  OG        40.9900   52.9650   11.5230 O.3    37  SER37      -0.2180
     41  N         38.6910   59.9110   17.7300 N.3    41  GLN41      -0.1245
     42  CA        37.5380   60.6380   18.2520 C.3    41  GLN41       0.1566
     43  C         37.3990   60.5470   19.7780 C.2    41  GLN41       0.2260
     44  O         36.5310   61.2060   20.3540 O.2    41  GLN41      -0.2867
     45  CB        36.2450   60.1330   17.5960 C.3    41  GLN41       0.0367
     46  CG        35.7500   58.7520   18.0510 C.3    41  GLN41       0.0905
     47  CD        36.3730   57.5980   17.2890 C.2    41  GLN41       0.2608
     48  OE1       37.5220   57.6660   16.8490 O.2    41  GLN41      -0.2717
     49  NE2       35.6000   56.5260   17.1160 N.am   41  GLN41      -0.0878
     50  N         31.9650   62.3820   15.7030 N.3    55  VAL55      -0.1245
     51  CA        32.2160   63.3870   14.6820 C.3    55  VAL55       0.1561
     52  C         30.9120   63.6820   13.9600 C.2    55  VAL55       0.2260
     53  O         30.0890   62.8150   13.8310 O.2    55  VAL55      -0.2867
     54  CB        33.3080   62.9230   13.6880 C.3    55  VAL55       0.0252
     55  CG1       34.6560   62.8020   14.4130 C.3    55  VAL55       0.0019
     56  CG2       32.9510   61.6030   13.0330 C.3    55  VAL55       0.0019
     57  N         23.3130   50.8150    7.8770 N.3   117  VAL117     -0.1231
     58  CA        24.6230   51.2430    7.3820 C.3   117  VAL117      0.1692
     59  C         25.7240   50.7830    8.3220 C.2   117  VAL117      0.2592
     60  O         26.7610   50.2630    7.8720 O.2   117  VAL117     -0.2718
     61  CB        24.6810   52.7740    7.1830 C.3   117  VAL117      0.0266
     62  CG1       26.1160   53.2450    6.9330 C.3   117  VAL117      0.0020
     63  CG2       23.7840   53.1740    6.0370 C.3   117  VAL117      0.0020
     64  N         25.5130   50.9540    9.6240 N.am  118  HIS118     -0.1976
     65  CA        26.5360   50.5650   10.5700 C.3   118  HIS118      0.1656
     66  C         26.7700   49.0540   10.5610 C.2   118  HIS118      0.2291
     67  O         27.9020   48.5980   10.4610 O.2   118  HIS118     -0.2864
     68  CB        26.1980   51.0130   11.9880 C.3   118  HIS118      0.0771
     69  CG        27.2530   50.6190   12.9570 C.ar  118  HIS118      0.0820
     70  ND1       27.1820   49.4700   13.7080 N.ar  118  HIS118     -0.2267
     71  CD2       28.4720   51.1530   13.1910 C.ar  118  HIS118      0.1154
     72  CE1       28.2810   49.3550   14.4300 C.ar  118  HIS118      0.1986
     73  NE2       29.0840   50.3600   14.1280 N.ar  118  HIS118     -0.2212
     74  N         30.2010   49.1210    8.7460 N.3   122  PHE122     -0.1241
     75  CA        31.1050   49.6640    9.7560 C.3   122  PHE122      0.1605
     76  C         31.0800   48.9300   11.0740 C.2   122  PHE122      0.2264
     77  O         31.3010   49.5370   12.1040 O.2   122  PHE122     -0.2867
     78  CB        30.7860   51.1280   10.0100 C.3   122  PHE122      0.0534
     79  CG        30.9220   51.9780    8.8050 C.ar  122  PHE122     -0.0203
     80  CD1       32.1820   52.3400    8.3470 C.ar  122  PHE122     -0.0042
     81  CD2       29.8000   52.3810    8.0970 C.ar  122  PHE122     -0.0042
     82  CE1       32.3160   53.1100    7.2280 C.ar  122  PHE122     -0.0003
     83  CE2       29.9310   53.1420    6.9600 C.ar  122  PHE122     -0.0003
     84  CZ        31.1930   53.5080    6.5220 C.ar  122  PHE122     -0.0000
@<TRIPOS>BOND
     1     2     1    1
     2     2     5    1
     3     2     3    1
     4     5     6    1
     5     4     3    2
     6    63    61    1
     7     3     9   am
     8     8     6    1
     9    84    83   ar
    10    84    82   ar
    11     6     7    1
    12    21    19    1
    13    12    11    2
    14    62    61    1
    15    83    81   ar
    16     9    10    1
    17    61    58    1
    18    18    17    2
    19    82    80   ar
    20    16    19    1
    21    16    15    1
    22    16    17    1
    23    58    57    1
    24    58    59    1
    25    11    15   am
    26    11    10    1
    27    19    20    1
    28    60    59    2
    29    17    22   am
    30    81    79   ar
    31    10    13    1
    32    59    64   am
    33    80    79   ar
    34    74    75    1
    35    79    78    1
    36    25    24    2
    37    22    23    1
    38    13    14    1
    39    24    23    1
    40    64    65    1
    41    75    78    1
    42    75    76    1
    43    23    26    1
    44    67    66    2
    45    66    65    1
    46    65    68    1
    47    76    77    2
    48    40    39    1
    49    39    36    1
    50    68    69    1
    51    33    32    1
    52    32    31    1
    53    32    34    1
    54    27    28    1
    55    69    71   ar
    56    69    70   ar
    57    35    36    1
    58    35    29   am
    59    56    54    1
    60    31    28    1
    61    36    37    1
    62    71    73   ar
    63    28    29    1
    64    54    55    1
    65    54    51    1
    66    70    72   ar
    67    53    52    2
    68    29    30    2
    69    52    51    1
    70    73    72   ar
    71    37    38    2
    72    51    50    1
    73    48    47    2
    74    49    47   am
    75    47    46    1
    76    45    46    1
    77    45    42    1
    78    41    42    1
    79    42    43    1
    80    43    44    2
