@<TRIPOS>MOLECULE
tmp/4rifB00.pdb
 226 223 0 0 0
SMALL
GASTEIGER

@<TRIPOS>ATOM
      1  N        -15.8010   24.2480  -17.0800 N.3    10  SER10      -0.1217
      2  CA       -16.7620   23.1400  -17.1220 C.3    10  SER10       0.1889
      3  C        -16.0850   21.7800  -16.8550 C.2    10  SER10       0.2288
      4  O        -14.9030   21.6110  -17.1750 O.2    10  SER10      -0.2866
      5  CB       -17.5070   23.1270  -18.4530 C.3    10  SER10       0.2089
      6  OG       -16.7720   22.5130  -19.4940 O.3    10  SER10      -0.2183
      7  N        -16.1470   18.9340  -18.3470 N.3    12  ALA12      -0.1231
      8  CA       -15.6070   18.3100  -19.5640 C.3    12  ALA12       0.1694
      9  C        -14.1810   18.7800  -19.8850 C.2    12  ALA12       0.2592
     10  O        -13.4160   18.0020  -20.4330 O.2    12  ALA12      -0.2718
     11  CB       -16.5080   18.5780  -20.7530 C.3    12  ALA12       0.0304
     12  N        -13.8290   20.0320  -19.5550 N.am   13  THR13      -0.1953
     13  CA       -12.4840   20.5810  -19.8160 C.3    13  THR13       0.1897
     14  C        -11.4540   19.8900  -18.9170 C.2    13  THR13       0.2313
     15  O        -10.3130   19.7200  -19.3310 O.2    13  THR13      -0.2863
     16  CB       -12.4530   22.1060  -19.7050 C.3    13  THR13       0.1794
     17  OG1      -12.5960   22.5450  -18.3460 O.3    13  THR13      -0.2208
     18  CG2      -13.4960   22.7680  -20.6060 C.3    13  THR13       0.0378
     19  N        -11.9580   16.6640  -17.6920 N.3    15  PHE15      -0.1241
     20  CA       -12.0000   15.2930  -18.1940 C.3    15  PHE15       0.1605
     21  C        -11.1480   15.1460  -19.4660 C.2    15  PHE15       0.2264
     22  O        -10.4230   14.1730  -19.6090 O.2    15  PHE15      -0.2867
     23  CB       -13.4580   14.8620  -18.4680 C.3    15  PHE15       0.0534
     24  CG       -14.4750   15.0020  -17.3430 C.ar   15  PHE15      -0.0203
     25  CD1      -14.0730   14.9990  -16.0050 C.ar   15  PHE15      -0.0042
     26  CD2      -15.8390   15.0550  -17.6230 C.ar   15  PHE15      -0.0042
     27  CE1      -15.0150   15.1150  -14.9710 C.ar   15  PHE15      -0.0003
     28  CE2      -16.7820   15.1800  -16.5920 C.ar   15  PHE15      -0.0003
     29  CZ       -16.3670   15.2200  -15.2760 C.ar   15  PHE15      -0.0000
     30  N        -13.7180   33.4340  -23.4250 N.3    88  PHE88      -0.1241
     31  CA       -12.5900   32.6560  -22.9000 C.3    88  PHE88       0.1605
     32  C        -11.3550   33.5290  -22.6710 C.2    88  PHE88       0.2264
     33  O        -10.6160   33.2870  -21.7090 O.2    88  PHE88      -0.2867
     34  CB       -12.2790   31.4440  -23.7900 C.3    88  PHE88       0.0534
     35  CG       -13.2100   30.2800  -23.5120 C.ar   88  PHE88      -0.0203
     36  CD1      -14.4580   30.1980  -24.1310 C.ar   88  PHE88      -0.0042
     37  CD2      -12.8600   29.2890  -22.6020 C.ar   88  PHE88      -0.0042
     38  CE1      -15.3260   29.1270  -23.8630 C.ar   88  PHE88      -0.0003
     39  CE2      -13.7340   28.2290  -22.3200 C.ar   88  PHE88      -0.0003
     40  CZ       -14.9690   28.1620  -22.9430 C.ar   88  PHE88      -0.0000
     41  N         -9.4510   19.8050  -26.7230 N.3   136  TRP136     -0.1227
     42  CA       -10.3640   19.1130  -25.8230 C.3   136  TRP136      0.1737
     43  C        -11.5430   18.4440  -26.5640 C.2   136  TRP136      0.2595
     44  O        -12.3500   17.7460  -25.9320 O.2   136  TRP136     -0.2718
     45  CB       -10.8430   19.9690  -24.6390 C.3   136  TRP136      0.0564
     46  CG       -11.3900   21.3400  -24.9140 C.ar  136  TRP136      0.0003
     47  CD1      -12.2820   21.6970  -25.8860 C.ar  136  TRP136      0.0946
     48  CD2      -11.2470   22.4810  -24.0570 C.ar  136  TRP136      0.0152
     49  NE1      -12.6560   23.0160  -25.7220 N.ar  136  TRP136     -0.2442
     50  CE2      -12.0240   23.5230  -24.6120 C.ar  136  TRP136      0.0810
     51  CE3      -10.5190   22.7330  -22.8730 C.ar  136  TRP136      0.0012
     52  CZ2      -12.0870   24.7960  -24.0330 C.ar  136  TRP136      0.0191
     53  CZ3      -10.5510   24.0070  -22.3270 C.ar  136  TRP136      0.0001
     54  CH2      -11.3440   25.0150  -22.8920 C.ar  136  TRP136      0.0015
     55  N        -11.6260   18.6150  -27.9000 N.am  137  ASP137     -0.1974
     56  CA       -12.6320   17.9550  -28.7340 C.3   137  ASP137      0.1709
     57  C        -12.2000   18.0240  -30.2090 C.2   137  ASP137      0.2293
     58  O        -11.1600   18.6210  -30.5210 O.2   137  ASP137     -0.2864
     59  CB       -14.0470   18.5150  -28.5100 C.3   137  ASP137      0.1436
     60  CG       -14.2620   19.9720  -28.8940 C.2   137  ASP137      0.3671
     61  OD1      -13.6910   20.4070  -29.9000 O.co2 137  ASP137     -0.2456
     62  OD2      -15.0840   20.6340  -28.2500 O.co2 137  ASP137     -0.2456
     63  N        -14.1380   10.6990  -17.5550 N.3   195  ASN195     -0.1240
     64  CA       -15.2410   11.4550  -16.9580 C.3   195  ASN195      0.1653
     65  C        -15.3920   11.0870  -15.4940 C.2   195  ASN195      0.2266
     66  O        -14.8210   10.0760  -15.0680 O.2   195  ASN195     -0.2867
     67  CB       -16.5400   11.2170  -17.7420 C.3   195  ASN195      0.1155
     68  CG       -16.8490    9.7490  -18.0040 C.2   195  ASN195      0.2627
     69  OD1      -16.8370    9.2870  -19.1490 O.2   195  ASN195     -0.2716
     70  ND2      -17.0740    8.9740  -16.9580 N.am  195  ASN195     -0.0877
     71  N        -28.5420   13.3260  -23.1060 N.3   216  THR216     -0.1203
     72  CA       -27.7410   14.1500  -22.1870 C.3   216  THR216      0.1994
     73  C        -27.6200   15.5820  -22.6920 C.2   216  THR216      0.2619
     74  O        -27.7710   15.8210  -23.8840 O.2   216  THR216     -0.2717
     75  CB       -26.3400   13.5150  -21.9470 C.3   216  THR216      0.1784
     76  OG1      -25.6410   14.2610  -20.9410 O.3   216  THR216     -0.2211
     77  CG2      -25.4870   13.4290  -23.2190 C.3   216  THR216      0.0376
     78  N        -27.3650   16.5270  -21.7820 N.am  217  SER217     -0.1937
     79  CA       -27.1350   17.9280  -22.1450 C.3   217  SER217      0.2055
     80  C        -25.8050   18.4080  -21.5710 C.2   217  SER217      0.2644
     81  O        -25.5680   19.6160  -21.4710 O.2   217  SER217     -0.2714
     82  CB       -28.2850   18.8350  -21.7120 C.3   217  SER217      0.2130
     83  OG       -28.4770   18.8710  -20.3100 O.3   217  SER217     -0.2179
     84  N        -24.9180   17.4610  -21.2650 N.am  218  GLY218     -0.1939
     85  CA       -23.5900   17.8130  -20.7830 C.3   218  GLY218      0.2014
     86  C        -23.4610   18.0630  -19.2930 C.2   218  GLY218      0.2640
     87  O        -24.3760   17.7880  -18.5100 O.2   218  GLY218     -0.2714
     88  N        -22.3040   18.6090  -18.9060 N.am  219  SER219     -0.1935
     89  CA       -21.9440   18.7770  -17.5080 C.3   219  SER219      0.2055
     90  C        -21.9750   20.2420  -17.0170 C.2   219  SER219      0.2642
     91  O        -21.6200   20.4760  -15.8600 O.2   219  SER219     -0.2714
     92  CB       -20.5530   18.1860  -17.2850 C.3   219  SER219      0.2130
     93  OG       -19.5940   18.9360  -18.0180 O.3   219  SER219     -0.2179
     94  N        -22.3730   21.2100  -17.8620 N.am  220  ARG220     -0.1977
     95  CA       -22.4330   22.6300  -17.4570 C.3   220  ARG220      0.1597
     96  C        -23.7380   22.9000  -16.7360 C.2   220  ARG220      0.2287
     97  O        -24.8060   22.6470  -17.2980 O.2   220  ARG220     -0.2864
     98  CB       -22.3100   23.5760  -18.6630 C.3   220  ARG220      0.0334
     99  CG       -21.0000   23.4770  -19.4180 C.3   220  ARG220      0.0492
    100  CD       -21.0480   24.3100  -20.6810 C.3   220  ARG220      0.2205
    101  NE       -21.0870   25.7390  -20.3710 N.pl3 220  ARG220     -0.0865
    102  CZ       -21.8120   26.6380  -21.0330 C.cat 220  ARG220      0.5346
    103  NH1      -22.5670   26.2680  -22.0630 N.pl3 220  ARG220      0.1354
    104  NH2      -21.7900   27.9130  -20.6680 N.pl3 220  ARG220      0.1354
    105  N        -26.4280   24.9930  -18.5780 N.3   223  PHE223     -0.1241
    106  CA       -27.2170   24.3260  -19.6020 C.3   223  PHE223      0.1605
    107  C        -28.0540   23.1620  -19.0360 C.2   223  PHE223      0.2264
    108  O        -29.2110   23.0130  -19.4490 O.2   223  PHE223     -0.2867
    109  CB       -26.3720   23.8780  -20.8050 C.3   223  PHE223      0.0534
    110  CG       -27.2530   23.5040  -21.9780 C.ar  223  PHE223     -0.0203
    111  CD1      -28.2010   24.3970  -22.4720 C.ar  223  PHE223     -0.0042
    112  CD2      -27.2050   22.2340  -22.5220 C.ar  223  PHE223     -0.0042
    113  CE1      -29.0700   24.0250  -23.5040 C.ar  223  PHE223     -0.0003
    114  CE2      -28.0650   21.8700  -23.5640 C.ar  223  PHE223     -0.0003
    115  CZ       -28.9990   22.7600  -24.0360 C.ar  223  PHE223     -0.0000
    116  N        -28.5860   11.1010  -18.7940 N.3   247  ALA247     -0.1231
    117  CA       -27.3240   11.3840  -18.1100 C.3   247  ALA247      0.1694
    118  C        -27.2760   12.8790  -17.8770 C.2   247  ALA247      0.2593
    119  O        -27.2660   13.6650  -18.8410 O.2   247  ALA247     -0.2718
    120  CB       -26.1340   10.9120  -18.9210 C.3   247  ALA247      0.0304
    121  N        -27.4360   13.2860  -16.6100 N.am  248  THR248     -0.1939
    122  CA       -27.4270   14.7220  -16.2710 C.3   248  THR248      0.2028
    123  C        -26.8650   14.9250  -14.8600 C.2   248  THR248      0.2642
    124  O        -26.6400   13.9510  -14.1490 O.2   248  THR248     -0.2714
    125  CB       -28.8190   15.3720  -16.4430 C.3   248  THR248      0.1808
    126  OG1      -28.6130   16.7900  -16.5520 O.3   248  THR248     -0.2208
    127  CG2      -29.7830   15.0430  -15.2950 C.3   248  THR248      0.0379
    128  N        -26.6270   16.1860  -14.4630 N.am  249  LEU249     -0.1977
    129  CA       -26.1080   16.4910  -13.1280 C.3   249  LEU249      0.1596
    130  C        -27.0720   16.0160  -12.0410 C.2   249  LEU249      0.2287
    131  O        -28.2830   16.1510  -12.2080 O.2   249  LEU249     -0.2864
    132  CB       -25.8470   18.0050  -13.0090 C.3   249  LEU249      0.0297
    133  CG       -24.7280   18.5350  -13.9230 C.3   249  LEU249      0.0022
    134  CD1      -24.6190   20.0310  -13.8420 C.3   249  LEU249      0.0001
    135  CD2      -23.4100   17.8940  -13.6090 C.3   249  LEU249      0.0001
    136  N        -26.2600   11.4420  -12.6820 N.3   267  TRP267     -0.1227
    137  CA       -24.9070   11.2440  -13.1950 C.3   267  TRP267      0.1737
    138  C        -24.6140    9.7800  -13.3620 C.2   267  TRP267      0.2595
    139  O        -24.6930    9.0090  -12.4090 O.2   267  TRP267     -0.2718
    140  CB       -23.8280   11.8770  -12.2960 C.3   267  TRP267      0.0564
    141  CG       -22.4560   11.9010  -12.9280 C.ar  267  TRP267      0.0003
    142  CD1      -21.5590   10.8720  -13.0000 C.ar  267  TRP267      0.0946
    143  CD2      -21.8250   13.0290  -13.5650 C.ar  267  TRP267      0.0152
    144  NE1      -20.4300   11.2740  -13.6920 N.ar  267  TRP267     -0.2442
    145  CE2      -20.5770   12.5870  -14.0630 C.ar  267  TRP267      0.0810
    146  CE3      -22.2380   14.3450  -13.8490 C.ar  267  TRP267      0.0012
    147  CZ2      -19.6810   13.4550  -14.7100 C.ar  267  TRP267      0.0191
    148  CZ3      -21.3520   15.1940  -14.5030 C.ar  267  TRP267      0.0001
    149  CH2      -20.1020   14.7370  -14.9430 C.ar  267  TRP267      0.0015
    150  N        -24.2740    9.4030  -14.5840 N.am  268  VAL268     -0.1966
    151  CA       -23.8620    8.0370  -14.9000 C.3   268  VAL268      0.1712
    152  C        -22.5410    8.1770  -15.6760 C.2   268  VAL268      0.2458
    153  O        -22.5190    8.9350  -16.6400 O.2   268  VAL268     -0.2730
    154  CB       -24.9460    7.1960  -15.6220 C.3   268  VAL268      0.0289
    155  CG1      -25.4140    7.8490  -16.9390 C.3   268  VAL268      0.0023
    156  CG2      -24.4500    5.7690  -15.8570 C.3   268  VAL268      0.0023
    157  N        -21.4220    7.5420  -15.2400 N.am  269  PRO269     -0.2716
    158  CA       -20.1580    7.7090  -15.9850 C.3   269  PRO269      0.1536
    159  C        -20.3800    7.2980  -17.4360 C.2   269  PRO269      0.2598
    160  O        -20.7240    6.1450  -17.7020 O.2   269  PRO269     -0.2715
    161  CB       -19.1700    6.7920  -15.2580 C.3   269  PRO269      0.0310
    162  CG       -19.8000    6.4790  -13.9540 C.3   269  PRO269      0.0237
    163  CD       -21.2710    6.5880  -14.1190 C.3   269  PRO269      0.0939
    164  N        -20.2460    8.2620  -18.3570 N.am  270  LEU270     -0.1978
    165  CA       -20.5650    8.0230  -19.7670 C.3   270  LEU270      0.1596
    166  C        -19.7450    6.8930  -20.3740 C.2   270  LEU270      0.2287
    167  O        -20.3120    6.1090  -21.1100 O.2   270  LEU270     -0.2864
    168  CB       -20.4440    9.3110  -20.6150 C.3   270  LEU270      0.0297
    169  CG       -21.6980    9.6790  -21.4120 C.3   270  LEU270      0.0022
    170  CD1      -22.9200    9.8640  -20.5110 C.3   270  LEU270      0.0001
    171  CD2      -21.4840   10.8750  -22.3360 C.3   270  LEU270      0.0001
    172  N        -26.7310   17.6330  -27.0780 N.3   283  HIS283     -0.1226
    173  CA       -26.8320   19.0640  -27.3910 C.3   283  HIS283      0.1752
    174  C        -25.7010   19.6100  -28.2630 C.2   283  HIS283      0.2596
    175  O        -25.6020   20.8370  -28.3980 O.2   283  HIS283     -0.2718
    176  CB       -26.7800   19.8340  -26.0560 C.3   283  HIS283      0.0759
    177  CG       -25.4630   19.6800  -25.3300 C.ar  283  HIS283      0.0818
    178  ND1      -25.0310   18.4450  -24.8750 N.ar  283  HIS283     -0.2268
    179  CD2      -24.5100   20.6040  -25.0550 C.ar  283  HIS283      0.1154
    180  CE1      -23.8500   18.6550  -24.3080 C.ar  283  HIS283      0.1986
    181  NE2      -23.4910   19.9360  -24.3920 N.ar  283  HIS283     -0.2212
    182  N        -24.8300   18.7370  -28.7980 N.am  284  ALA284     -0.1966
    183  CA       -23.6080   19.0810  -29.5680 C.3   284  ALA284      0.1728
    184  C        -22.4150   19.3440  -28.6300 C.2   284  ALA284      0.2617
    185  O        -21.7060   20.3460  -28.7310 O.2   284  ALA284     -0.2715
    186  CB       -23.8240   20.2570  -30.5300 C.3   284  ALA284      0.0334
    187  N        -22.2640   18.4450  -27.6800 N.am  285  GLY285     -0.1940
    188  CA       -21.1620   18.4340  -26.7340 C.3   285  GLY285      0.2014
    189  C        -20.0450   17.6010  -27.3210 C.2   285  GLY285      0.2639
    190  O        -20.2530   16.4200  -27.6210 O.2   285  GLY285     -0.2714
    191  N        -18.8840   18.2230  -27.5290 N.am  286  GLY286     -0.1939
    192  CA       -17.7310   17.5670  -28.1510 C.3   286  GLY286      0.2014
    193  C        -17.1520   16.3490  -27.4490 C.2   286  GLY286      0.2639
    194  O        -16.7000   15.4060  -28.1140 O.2   286  GLY286     -0.2714
    195  N        -17.1330   16.3570  -26.1040 N.am  287  VAL287     -0.1963
    196  CA       -16.5590   15.2360  -25.3220 C.3   287  VAL287      0.1727
    197  C        -17.5690   14.0820  -25.2930 C.2   287  VAL287      0.2616
    198  O        -17.1580   12.9270  -25.3900 O.2   287  VAL287     -0.2715
    199  CB       -16.0670   15.6590  -23.9090 C.3   287  VAL287      0.0290
    200  CG1      -15.3530   14.5030  -23.2050 C.3   287  VAL287      0.0023
    201  CG2      -15.1250   16.8660  -24.0160 C.3   287  VAL287      0.0023
    202  N        -18.8790   14.3920  -25.2520 N.am  288  THR288     -0.1951
    203  CA       -19.9280   13.3430  -25.3760 C.3   288  THR288      0.1897
    204  C        -19.8220   12.7380  -26.7910 C.2   288  THR288      0.2313
    205  O        -19.8860   11.5270  -26.9400 O.2   288  THR288     -0.2863
    206  CB       -21.3440   13.9380  -25.1030 C.3   288  THR288      0.1794
    207  OG1      -21.4420   14.2250  -23.7170 O.3   288  THR288     -0.2208
    208  CG2      -22.4690   12.9670  -25.4640 C.3   288  THR288      0.0378
    209  N        -16.9400   10.3730  -26.8140 N.3   291  THR291     -0.1218
    210  CA       -17.2810    9.1560  -26.0330 C.3   291  THR291      0.1862
    211  C        -18.1050    8.1620  -26.8950 C.2   291  THR291      0.2287
    212  O        -17.8410    6.9550  -26.8630 O.2   291  THR291     -0.2866
    213  CB       -18.0440    9.5020  -24.7140 C.3   291  THR291      0.1770
    214  OG1      -17.3430   10.5300  -23.9990 O.3   291  THR291     -0.2211
    215  CG2      -18.1870    8.2730  -23.7930 C.3   291  THR291      0.0375
    216  N        -19.3110   23.6990  -31.2120 N.3   308  PHE308     -0.1241
    217  CA       -19.0750   22.3440  -31.7220 C.3   308  PHE308      0.1605
    218  C        -20.0300   21.9670  -32.8910 C.2   308  PHE308      0.2264
    219  O        -19.8360   20.9200  -33.5250 O.2   308  PHE308     -0.2867
    220  CB       -19.1710   21.2930  -30.5820 C.3   308  PHE308      0.0534
    221  CG       -18.7590   19.9040  -31.0150 C.ar  308  PHE308     -0.0203
    222  CD1      -17.4220   19.5940  -31.2330 C.ar  308  PHE308     -0.0042
    223  CD2      -19.7120   18.9220  -31.2540 C.ar  308  PHE308     -0.0042
    224  CE1      -17.0440   18.3350  -31.6900 C.ar  308  PHE308     -0.0003
    225  CE2      -19.3300   17.6620  -31.7210 C.ar  308  PHE308     -0.0003
    226  CZ       -17.9990   17.3800  -31.9390 C.ar  308  PHE308     -0.0000
@<TRIPOS>BOND
     1   219   218    2
     2   218   217    1
     3   226   225   ar
     4   226   224   ar
     5   217   216    1
     6   217   220    1
     7   225   223   ar
     8   224   222   ar
     9   223   221   ar
    10   222   221   ar
    11   221   220    1
    12   186   183    1
    13    58    57    2
    14    57    56    1
    15    61    60   ar
    16   183   182    1
    17   183   184    1
    18    60    59    1
    19    60    62   ar
    20   182   174   am
    21    56    59    1
    22    56    55    1
    23   185   184    2
    24   184   187   am
    25   175   174    2
    26   174   173    1
    27   192   191    1
    28   192   193    1
    29   194   193    2
    30    55    43   am
    31   187   188    1
    32   190   189    2
    33   191   189   am
    34   193   195   am
    35   173   172    1
    36   173   176    1
    37   189   188    1
    38   205   204    2
    39   211   212    2
    40   211   210    1
    41   209   210    1
    42   204   203    1
    43    41    42    1
    44    43    44    2
    45    43    42    1
    46   195   196    1
    47   176   177    1
    48   210   213    1
    49    47    49   ar
    50    47    46   ar
    51    42    45    1
    52    49    50   ar
    53   208   206    1
    54   198   197    2
    55   203   202    1
    56   203   206    1
    57   177   179   ar
    58   177   178   ar
    59   196   197    1
    60   196   199    1
    61   197   202   am
    62   206   207    1
    63   179   181   ar
    64    46    45    1
    65    46    48   ar
    66   178   180   ar
    67   213   214    1
    68   213   215    1
    69    50    48   ar
    70    50    52   ar
    71   181   180   ar
    72    36    38   ar
    73    36    35   ar
    74    48    51   ar
    75   115   114   ar
    76   115   113   ar
    77    52    54   ar
    78   201   199    1
    79   199   200    1
    80    74    73    2
    81    38    40   ar
    82    34    35    1
    83    34    31    1
    84   114   112   ar
    85    35    37   ar
    86   113   111   ar
    87    30    31    1
    88    77    75    1
    89    71    72    1
    90    40    39   ar
    91    31    32    1
    92    54    53   ar
    93    51    53   ar
    94    73    72    1
    95    73    78   am
    96    32    33    2
    97    37    39   ar
    98   112   110   ar
    99   111   110   ar
   100   171   169    1
   101    72    75    1
   102    79    78    1
   103    79    82    1
   104    79    80    1
   105   103   102    1
   106   110   109    1
   107    75    76    1
   108    82    83    1
   109    80    81    2
   110    80    84   am
   111   169   168    1
   112   169   170    1
   113    84    85    1
   114   167   166    2
   115   102   104    1
   116   102   101    2
   117   109   106    1
   118    85    86    1
   119    11     8    1
   120   100   101    1
   121   100    99    1
   122   168   165    1
   123    18    16    1
   124    10     9    2
   125   166   165    1
   126     9     8    1
   127     9    12   am
   128    13    16    1
   129    13    12    1
   130    13    14    1
   131   165   164    1
   132    16    17    1
   133    22    21    2
   134   106   107    1
   135   106   105    1
   136     8     7    1
   137     6     5    1
   138    21    20    1
   139   108   107    2
   140    99    98    1
   141    15    14    2
   142    86    88   am
   143    86    87    2
   144    69    68    2
   145   120   117    1
   146    88    89    1
   147   119   118    2
   148   116   117    1
   149    98    95    1
   150    23    20    1
   151    23    24    1
   152     5     2    1
   153   164   159   am
   154    20    19    1
   155   117   118    1
   156    93    92    1
   157    68    67    1
   158    68    70   am
   159   118   121   am
   160    94    95    1
   161    94    90   am
   162    67    64    1
   163   160   159    2
   164    26    24   ar
   165    26    28   ar
   166    63    64    1
   167    89    92    1
   168    89    90    1
   169    95    96    1
   170   159   158    1
   171    24    25   ar
   172    97    96    2
   173     4     3    2
   174     2     1    1
   175     2     3    1
   176    90    91    2
   177    64    65    1
   178   155   154    1
   179   153   152    2
   180   121   122    1
   181    28    29   ar
   182   126   125    1
   183   125   122    1
   184   125   127    1
   185   122   123    1
   186    25    27   ar
   187   158   161    1
   188   158   157    1
   189   156   154    1
   190   152   157   am
   191   152   151    1
   192   154   151    1
   193    65    66    2
   194    29    27   ar
   195   161   162    1
   196   157   163    1
   197   149   147   ar
   198   149   148   ar
   199   151   150    1
   200   123   128   am
   201   123   124    2
   202   147   145   ar
   203   150   138   am
   204   148   146   ar
   205   128   129    1
   206   163   162    1
   207   145   144   ar
   208   145   143   ar
   209   133   134    1
   210   133   135    1
   211   133   132    1
   212   146   143   ar
   213   144   142   ar
   214   143   141   ar
   215   138   137    1
   216   138   139    2
   217   137   136    1
   218   137   140    1
   219   129   132    1
   220   129   130    1
   221   142   141   ar
   222   141   140    1
   223   131   130    2
