@<TRIPOS>MOLECULE
tmp/4riiB00.pdb
 166 163 0 0 0
SMALL
GASTEIGER

@<TRIPOS>ATOM
      1  N          3.5160  -16.5120    1.6160 N.3    10  SER10      -0.1203
      2  CA         2.7500  -16.0910    2.8100 C.3    10  SER10       0.2005
      3  C          2.5200  -14.5750    2.8270 C.2    10  SER10       0.2461
      4  O          3.3250  -13.8180    2.2500 O.2    10  SER10      -0.2732
      5  CB         3.4540  -16.5490    4.0870 C.3    10  SER10       0.2103
      6  OG         4.5580  -15.7190    4.3940 O.3    10  SER10      -0.2182
      7  N          1.4150  -14.1250    3.4550 N.am   11  PRO11      -0.2717
      8  CA         1.0810  -12.7020    3.3960 C.3    11  PRO11       0.1535
      9  C          2.1880  -11.7980    3.9440 C.2    11  PRO11       0.2598
     10  O          2.3950  -10.7050    3.4110 O.2    11  PRO11      -0.2715
     11  CB        -0.1770  -12.5970    4.2700 C.3    11  PRO11       0.0310
     12  CG        -0.7970  -13.9550    4.1830 C.3    11  PRO11       0.0237
     13  CD         0.3740  -14.8980    4.1650 C.3    11  PRO11       0.0939
     14  N          2.8880  -12.2570    4.9870 N.am   12  ALA12      -0.1978
     15  CA         3.9690  -11.5050    5.5950 C.3    12  ALA12       0.1597
     16  C          5.0380  -11.1060    4.5760 C.2    12  ALA12       0.2287
     17  O          5.6380  -10.0500    4.7100 O.2    12  ALA12      -0.2864
     18  CB         4.5960  -12.2900    6.7450 C.3    12  ALA12       0.0319
     19  N          3.5930   -8.0900    2.6080 N.3    15  PHE15      -0.1241
     20  CA         3.5870   -6.9310    3.4950 C.3    15  PHE15       0.1605
     21  C          4.9910   -6.3400    3.7000 C.2    15  PHE15       0.2264
     22  O          5.1590   -5.1240    3.6950 O.2    15  PHE15      -0.2867
     23  CB         2.9650   -7.2710    4.8630 C.3    15  PHE15       0.0534
     24  CG         1.5740   -7.8590    4.7970 C.ar   15  PHE15      -0.0203
     25  CD1        0.7220   -7.6090    3.7180 C.ar   15  PHE15      -0.0042
     26  CD2        1.0970   -8.6360    5.8560 C.ar   15  PHE15      -0.0042
     27  CE1       -0.5550   -8.1560    3.6790 C.ar   15  PHE15      -0.0003
     28  CE2       -0.1830   -9.1710    5.8300 C.ar   15  PHE15      -0.0003
     29  CZ        -1.0120   -8.9400    4.7320 C.ar   15  PHE15      -0.0000
     30  N          0.3800   -4.0640    6.5720 N.3   195  ASN195     -0.1240
     31  CA        -0.4470   -5.2730    6.6380 C.3   195  ASN195      0.1653
     32  C         -1.8260   -5.0710    6.0100 C.2   195  ASN195      0.2266
     33  O         -2.2160   -3.9430    5.7020 O.2   195  ASN195     -0.2867
     34  CB        -0.5670   -5.7660    8.0860 C.3   195  ASN195      0.1155
     35  CG        -0.9090   -4.6520    9.0630 C.2   195  ASN195      0.2627
     36  OD1       -0.0650   -4.2400    9.8580 O.2   195  ASN195     -0.2716
     37  ND2       -2.1520   -4.1640    9.0150 N.am  195  ASN195     -0.0877
     38  N         -1.8690  -13.6150   18.8130 N.3   216  THR216     -0.1203
     39  CA        -1.9490  -13.9320   17.3800 C.3   216  THR216      0.1994
     40  C         -1.1580  -15.2020   17.0340 C.2   216  THR216      0.2619
     41  O         -0.2200  -15.5630   17.7430 O.2   216  THR216     -0.2717
     42  CB        -1.4910  -12.7330   16.5080 C.3   216  THR216      0.1784
     43  OG1       -1.8220  -12.9620   15.1290 O.3   216  THR216     -0.2211
     44  CG2        0.0070  -12.4940   16.6280 C.3   216  THR216      0.0376
     45  N         -1.5600  -15.8850   15.9620 N.am  217  SER217     -0.1937
     46  CA        -0.7930  -17.0170   15.4200 C.3   217  SER217      0.2055
     47  C         -0.3800  -16.8010   13.9610 C.2   217  SER217      0.2644
     48  O          0.0950  -17.7260   13.2970 O.2   217  SER217     -0.2714
     49  CB        -1.5510  -18.3440   15.5790 C.3   217  SER217      0.2130
     50  OG        -2.7290  -18.3710   14.7970 O.3   217  SER217     -0.2179
     51  N         -0.5570  -15.5770   13.4710 N.am  218  GLY218     -0.1939
     52  CA        -0.0830  -15.2100   12.1370 C.3   218  GLY218      0.2014
     53  C         -1.1070  -15.3930   11.0350 C.2   218  GLY218      0.2640
     54  O         -2.2790  -15.6640   11.3010 O.2   218  GLY218     -0.2714
     55  N         -0.6460  -15.2620    9.7910 N.am  219  SER219     -0.1935
     56  CA        -1.5360  -15.1590    8.6330 C.3   219  SER219      0.2055
     57  C         -1.4640  -16.3330    7.6430 C.2   219  SER219      0.2642
     58  O         -1.9490  -16.2230    6.5120 O.2   219  SER219     -0.2714
     59  CB        -1.2910  -13.8320    7.9070 C.3   219  SER219      0.2130
     60  OG         0.0310  -13.7630    7.3970 O.3   219  SER219     -0.2179
     61  N         -0.8750  -17.4490    8.0710 N.am  220  ARG220     -0.1977
     62  CA        -0.8290  -18.6640    7.2510 C.3   220  ARG220      0.1597
     63  C         -1.9950  -19.5860    7.5930 C.2   220  ARG220      0.2287
     64  O         -2.1690  -19.9620    8.7560 O.2   220  ARG220     -0.2864
     65  CB         0.4930  -19.4220    7.4430 C.3   220  ARG220      0.0334
     66  CG         1.7200  -18.7510    6.8440 C.3   220  ARG220      0.0492
     67  CD         2.7950  -19.7820    6.5360 C.3   220  ARG220      0.2205
     68  NE         4.0470  -19.1670    6.0910 N.pl3 220  ARG220     -0.0865
     69  CZ         5.0700  -19.8290    5.5490 C.cat 220  ARG220      0.5346
     70  NH1        5.0040  -21.1460    5.3790 N.pl3 220  ARG220      0.1354
     71  NH2        6.1660  -19.1730    5.1740 N.pl3 220  ARG220      0.1354
     72  N         -6.0560  -11.6480   17.3160 N.3   241  ALA241     -0.1231
     73  CA        -5.8480  -11.3270   15.9140 C.3   241  ALA241      0.1694
     74  C         -5.5780  -12.6100   15.1300 C.2   241  ALA241      0.2593
     75  O         -4.5560  -13.2680   15.3290 O.2   241  ALA241     -0.2718
     76  CB        -4.6970  -10.3410   15.7610 C.3   241  ALA241      0.0304
     77  N         -6.5090  -12.9610   14.2470 N.am  242  THR242     -0.1939
     78  CA        -6.4320  -14.2060   13.4680 C.3   242  THR242      0.2028
     79  C         -7.1690  -14.0670   12.1260 C.2   242  THR242      0.2642
     80  O         -7.7790  -13.0320   11.8620 O.2   242  THR242     -0.2714
     81  CB        -6.9640  -15.4110   14.2760 C.3   242  THR242      0.1808
     82  OG1       -6.6550  -16.6260   13.5830 O.3   242  THR242     -0.2208
     83  CG2       -8.4800  -15.3090   14.5100 C.3   242  THR242      0.0379
     84  N         -7.1050  -15.0970   11.2800 N.am  243  LEU243     -0.1977
     85  CA        -7.7990  -15.0660    9.9840 C.3   243  LEU243      0.1596
     86  C         -9.3090  -15.0390   10.1880 C.2   243  LEU243      0.2287
     87  O         -9.8200  -15.6480   11.1280 O.2   243  LEU243     -0.2864
     88  CB        -7.3900  -16.2480    9.0930 C.3   243  LEU243      0.0297
     89  CG        -5.9470  -16.3240    8.5650 C.3   243  LEU243      0.0022
     90  CD1       -5.7560  -17.5890    7.7390 C.3   243  LEU243      0.0001
     91  CD2       -5.5350  -15.1010    7.7510 C.3   243  LEU243      0.0001
     92  N         -9.5160  -10.7500   11.7400 N.3   249  TRP249     -0.1227
     93  CA        -8.4080   -9.9560   11.2240 C.3   249  TRP249      0.1737
     94  C         -8.5570   -8.5300   11.7380 C.2   249  TRP249      0.2595
     95  O         -9.5560   -7.8670   11.4740 O.2   249  TRP249     -0.2718
     96  CB        -8.3430   -9.9860    9.7000 C.3   249  TRP249      0.0564
     97  CG        -7.1360   -9.2710    9.1420 C.ar  249  TRP249      0.0003
     98  CD1       -6.9480   -7.9160    9.0550 C.ar  249  TRP249      0.0946
     99  CD2       -5.9560   -9.8720    8.6020 C.ar  249  TRP249      0.0152
    100  NE1       -5.7270   -7.6380    8.4910 N.ar  249  TRP249     -0.2442
    101  CE2       -5.0960   -8.8200    8.2020 C.ar  249  TRP249      0.0810
    102  CE3       -5.5400  -11.1980    8.4080 C.ar  249  TRP249      0.0012
    103  CZ2       -3.8430   -9.0540    7.6190 C.ar  249  TRP249      0.0191
    104  CZ3       -4.2920  -11.4270    7.8320 C.ar  249  TRP249      0.0001
    105  CH2       -3.4620  -10.3580    7.4430 C.ar  249  TRP249      0.0015
    106  N         -7.5630   -8.0920   12.5050 N.am  250  VAL250     -0.1966
    107  CA        -7.4680   -6.7170   12.9640 C.3   250  VAL250      0.1712
    108  C         -6.0930   -6.2210   12.5120 C.2   250  VAL250      0.2458
    109  O         -5.0740   -6.8920   12.7430 O.2   250  VAL250     -0.2730
    110  CB        -7.7340   -6.5830   14.4920 C.3   250  VAL250      0.0289
    111  CG1       -6.7740   -7.4280   15.3150 C.3   250  VAL250      0.0023
    112  CG2       -7.6960   -5.1340   14.9550 C.3   250  VAL250      0.0023
    113  N         -6.0620   -5.0790   11.8080 N.am  251  PRO251     -0.2716
    114  CA        -4.7830   -4.6040   11.2880 C.3   251  PRO251      0.1536
    115  C         -3.8400   -4.3800   12.4640 C.2   251  PRO251      0.2598
    116  O         -4.1590   -3.6120   13.3800 O.2   251  PRO251     -0.2715
    117  CB        -5.1420   -3.2850   10.5890 C.3   251  PRO251      0.0310
    118  CG        -6.6210   -3.3540   10.3580 C.3   251  PRO251      0.0237
    119  CD        -7.1650   -4.1480   11.5080 C.3   251  PRO251      0.0939
    120  N         -2.7380   -5.1260   12.4680 N.am  252  LEU252     -0.1978
    121  CA        -1.7730   -5.0960   13.5730 C.3   252  LEU252      0.1596
    122  C         -1.1490   -3.7250   13.7850 C.2   252  LEU252      0.2287
    123  O         -1.0130   -3.2710   14.9170 O.2   252  LEU252     -0.2864
    124  CB        -0.6970   -6.1750   13.3820 C.3   252  LEU252      0.0297
    125  CG        -0.7100   -7.2970   14.4260 C.3   252  LEU252      0.0022
    126  CD1       -2.0690   -7.9890   14.5400 C.3   252  LEU252      0.0001
    127  CD2        0.4140   -8.2930   14.1660 C.3   252  LEU252      0.0001
    128  N          3.5310  -16.4320   17.6600 N.3   265  HIS265     -0.1241
    129  CA         4.0330  -17.7620   17.3060 C.3   265  HIS265      0.1621
    130  C          5.4790  -17.8010   16.7970 C.2   265  HIS265      0.2264
    131  O          5.9640  -18.8670   16.4150 O.2   265  HIS265     -0.2867
    132  CB         3.1310  -18.3350   16.2010 C.3   265  HIS265      0.0745
    133  CG         3.1330  -17.5130   14.9430 C.ar  265  HIS265      0.0817
    134  ND1        2.7690  -16.1800   14.9240 N.ar  265  HIS265     -0.2268
    135  CD2        3.4700  -17.8250   13.6680 C.ar  265  HIS265      0.1154
    136  CE1        2.8760  -15.7100   13.6940 C.ar  265  HIS265      0.1986
    137  NE2        3.3030  -16.6860   12.9120 N.ar  265  HIS265     -0.2212
    138  N          6.5830  -15.1030   14.4420 N.3   267  GLY267     -0.1210
    139  CA         6.4610  -14.5340   13.1040 C.3   267  GLY267      0.1956
    140  C          7.2850  -13.2630   13.0030 C.2   267  GLY267      0.2612
    141  O          7.1550  -12.3520   13.8290 O.2   267  GLY267     -0.2717
    142  N          8.1350  -13.2110   11.9840 N.am  268  GLY268     -0.1942
    143  CA         9.0320  -12.0750   11.7740 C.3   268  GLY268      0.2014
    144  C          8.3570  -10.7140   11.7070 C.2   268  GLY268      0.2639
    145  O          8.8170   -9.7570   12.3520 O.2   268  GLY268     -0.2714
    146  N          7.2730  -10.6130   10.9350 N.am  269  VAL269     -0.1963
    147  CA         6.6490   -9.2970   10.7400 C.3   269  VAL269      0.1727
    148  C          5.8480   -8.8360   11.9710 C.2   269  VAL269      0.2616
    149  O          5.8200   -7.6340   12.2600 O.2   269  VAL269     -0.2715
    150  CB         5.8560   -9.1790    9.4160 C.3   269  VAL269      0.0290
    151  CG1        5.4280   -7.7330    9.1780 C.3   269  VAL269      0.0023
    152  CG2        6.7240   -9.6200    8.2430 C.3   269  VAL269      0.0023
    153  N          5.2250   -9.7790   12.6910 N.am  270  THR270     -0.1951
    154  CA         4.5820   -9.4730   13.9790 C.3   270  THR270      0.1897
    155  C          5.6140   -8.9330   14.9850 C.2   270  THR270      0.2313
    156  O          5.3490   -7.9420   15.6790 O.2   270  THR270     -0.2863
    157  CB         3.8280  -10.6870   14.5720 C.3   270  THR270      0.1794
    158  OG1        2.7530  -11.0640   13.6960 O.3   270  THR270     -0.2208
    159  CG2        3.2350  -10.3490   15.9210 C.3   270  THR270      0.0378
    160  N          6.3800   -5.4570   14.0120 N.3   273  THR273     -0.1218
    161  CA         5.2660   -4.5680   14.3610 C.3   273  THR273      0.1862
    162  C          5.3180   -4.1560   15.8330 C.2   273  THR273      0.2287
    163  O          5.1530   -2.9770   16.1600 O.2   273  THR273     -0.2866
    164  CB         3.9060   -5.2070   14.0100 C.3   273  THR273      0.1770
    165  OG1        3.9380   -5.6180   12.6450 O.3   273  THR273     -0.2211
    166  CG2        2.7780   -4.2160   14.1930 C.3   273  THR273      0.0375
@<TRIPOS>BOND
     1     1     2    1
     2     4     3    2
     3    19    20    1
     4     2     3    1
     5     2     5    1
     6     3     7   am
     7     8     7    1
     8     8     9    1
     9     8    11    1
    10    10     9    2
    11     7    13    1
    12    20    21    1
    13    20    23    1
    14    27    25   ar
    15    27    29   ar
    16    22    21    2
    17    25    24   ar
    18     9    14   am
    19     5     6    1
    20    13    12    1
    21    12    11    1
    22    16    17    2
    23    16    15    1
    24    29    28   ar
    25    24    23    1
    26    24    26   ar
    27    14    15    1
    28    71    69    1
    29    70    69    1
    30    69    68    2
    31    15    18    1
    32    33    32    2
    33    28    26   ar
    34    32    31    1
    35    68    67    1
    36    58    57    2
    37    67    66    1
    38    30    31    1
    39    31    34    1
    40    66    65    1
    41    62    65    1
    42    62    63    1
    43    62    61    1
    44    60    59    1
    45   105   103   ar
    46   105   104   ar
    47    63    64    2
    48   103   101   ar
    49    57    61   am
    50    57    56    1
    51    90    89    1
    52    91    89    1
    53   104   102   ar
    54    59    56    1
    55    34    35    1
    56   101   100   ar
    57   101    99   ar
    58   152   150    1
    59   102    99   ar
    60   100    98   ar
    61    89    88    1
    62    99    97   ar
    63    56    55    1
    64    37    35   am
    65    98    97   ar
    66    35    36    2
    67    88    85    1
    68    97    96    1
    69   151   150    1
    70   150   147    1
    71    96    93    1
    72    55    53   am
    73    85    86    1
    74    85    84    1
    75    86    87    2
    76   118   117    1
    77   118   119    1
    78   117   114    1
    79   147   146    1
    80   147   148    1
    81   146   144   am
    82    53    54    2
    83    53    52    1
    84    93    94    1
    85    93    92    1
    86    84    79   am
    87   114   113    1
    88   114   115    1
    89    95    94    2
    90   119   113    1
    91   144   143    1
    92   144   145    2
    93    94   106   am
    94   143   142    1
    95   113   108   am
    96    80    79    2
    97   148   149    2
    98   148   153   am
    99   142   140   am
   100    79    78    1
   101    52    51    1
   102   115   120   am
   103   115   116    2
   104   120   121    1
   105   106   107    1
   106   108   109    2
   107   108   107    1
   108   165   164    1
   109   153   154    1
   110   137   135   ar
   111   137   136   ar
   112   107   110    1
   113   140   139    1
   114   140   141    2
   115   139   138    1
   116    48    47    2
   117   124   121    1
   118   124   125    1
   119    78    77    1
   120    78    81    1
   121    51    47   am
   122   121   122    1
   123    82    81    1
   124   135   133   ar
   125   136   134   ar
   126   158   157    1
   127   122   123    2
   128    47    46    1
   129   154   157    1
   130   154   155    1
   131   164   166    1
   132   164   161    1
   133   160   161    1
   134   127   125    1
   135    77    74   am
   136    81    83    1
   137   161   162    1
   138   125   126    1
   139   110   112    1
   140   110   111    1
   141   157   159    1
   142    50    49    1
   143   134   133   ar
   144   133   132    1
   145   155   156    2
   146    43    42    1
   147    74    75    2
   148    74    73    1
   149    46    49    1
   150    46    45    1
   151    76    73    1
   152   162   163    2
   153    73    72    1
   154    45    40   am
   155   132   129    1
   156   131   130    2
   157    42    44    1
   158    42    39    1
   159   130   129    1
   160    40    39    1
   161    40    41    2
   162   129   128    1
   163    39    38    1
