@<TRIPOS>MOLECULE
tmp/4riiA00.pdb
 149 146 0 0 0
SMALL
GASTEIGER

@<TRIPOS>ATOM
      1  N        -16.7160    8.3110   -4.1150 N.3    10  SER10      -0.1203
      2  CA       -16.3440    7.5410   -5.2990 C.3    10  SER10       0.2005
      3  C        -14.9020    7.0340   -5.2420 C.2    10  SER10       0.2461
      4  O        -14.0460    7.6570   -4.6000 O.2    10  SER10      -0.2732
      5  CB       -16.5750    8.3670   -6.5640 C.3    10  SER10       0.2103
      6  OG       -15.6190    9.4010   -6.6500 O.3    10  SER10      -0.2182
      7  N        -14.6340    5.8950   -5.9200 N.am   11  PRO11      -0.2717
      8  CA       -13.3100    5.2820   -5.8170 C.3    11  PRO11       0.1535
      9  C        -12.1910    6.2380   -6.2280 C.2    11  PRO11       0.2598
     10  O        -11.1150    6.2010   -5.6310 O.2    11  PRO11      -0.2715
     11  CB       -13.4020    4.0710   -6.7590 C.3    11  PRO11       0.0310
     12  CG       -14.8620    3.7260   -6.7550 C.3    11  PRO11       0.0237
     13  CD       -15.5800    5.0440   -6.6770 C.3    11  PRO11       0.0939
     14  N        -12.4470    7.0940   -7.2190 N.am   12  ALA12      -0.1978
     15  CA       -11.4180    8.0190   -7.6960 C.3    12  ALA12       0.1597
     16  C        -10.9140    8.9360   -6.5810 C.2    12  ALA12       0.2287
     17  O         -9.7730    9.3560   -6.6060 O.2    12  ALA12      -0.2864
     18  CB       -11.9260    8.8340   -8.8780 C.3    12  ALA12       0.0319
     19  N         -8.3900    6.8460   -4.6180 N.3    15  PHE15      -0.1241
     20  CA        -7.1870    6.6950   -5.4640 C.3    15  PHE15       0.1605
     21  C         -6.3480    7.9670   -5.5550 C.2    15  PHE15       0.2264
     22  O         -5.1220    7.8960   -5.5360 O.2    15  PHE15      -0.2867
     23  CB        -7.5150    6.2140   -6.8910 C.3    15  PHE15       0.0534
     24  CG        -8.3800    4.9720   -6.9620 C.ar   15  PHE15      -0.0203
     25  CD1       -8.3400    3.9930   -5.9710 C.ar   15  PHE15      -0.0042
     26  CD2       -9.2010    4.7640   -8.0670 C.ar   15  PHE15      -0.0042
     27  CE1       -9.1330    2.8510   -6.0650 C.ar   15  PHE15      -0.0003
     28  CE2       -9.9990    3.6240   -8.1720 C.ar   15  PHE15      -0.0003
     29  CZ        -9.9640    2.6610   -7.1650 C.ar   15  PHE15      -0.0000
     30  N         -4.6420    3.1510   -8.5090 N.3   195  ASN195     -0.1240
     31  CA        -5.9900    2.6120   -8.7120 C.3   195  ASN195      0.1653
     32  C         -6.1550    1.2000   -8.1660 C.2   195  ASN195      0.2266
     33  O         -5.1700    0.5340   -7.8360 O.2   195  ASN195     -0.2867
     34  CB        -6.4200    2.7080  -10.1860 C.3   195  ASN195      0.1155
     35  CG        -5.3700    2.1920  -11.1490 C.2   195  ASN195      0.2627
     36  OD1       -4.8130    2.9690  -11.9260 O.2   195  ASN195     -0.2716
     37  ND2       -5.0850    0.8920  -11.1040 N.am  195  ASN195     -0.0877
     38  N        -13.9050    3.4650  -21.0590 N.3   216  THR216     -0.1203
     39  CA       -14.2920    3.3350  -19.6640 C.3   216  THR216      0.1994
     40  C        -15.4370    4.2930  -19.3410 C.2   216  THR216      0.2619
     41  O        -15.6030    5.3090  -20.0180 O.2   216  THR216     -0.2717
     42  CB       -13.0790    3.5580  -18.7180 C.3   216  THR216      0.1784
     43  OG1      -13.4250    3.1690  -17.3870 O.3   216  THR216     -0.2211
     44  CG2      -12.6050    5.0150  -18.7070 C.3   216  THR216      0.0376
     45  N        -16.2420    3.9500  -18.3370 N.am  217  SER217     -0.1937
     46  CA       -17.2120    4.9010  -17.7780 C.3   217  SER217      0.2055
     47  C        -16.8820    5.2540  -16.3200 C.2   217  SER217      0.2643
     48  O        -17.6330    5.9870  -15.6710 O.2   217  SER217     -0.2714
     49  CB       -18.6490    4.3850  -17.9170 C.3   217  SER217      0.2130
     50  OG       -18.8650    3.2770  -17.0680 O.3   217  SER217     -0.2179
     51  N        -15.7520    4.7380  -15.8260 N.am  218  GLY218     -0.1954
     52  CA       -15.2260    5.0680  -14.4990 C.3   218  GLY218      0.1869
     53  C        -15.7730    4.2130  -13.3720 C.2   218  GLY218      0.2309
     54  O        -16.0160    3.0220  -13.5470 O.2   218  GLY218     -0.2863
     55  N        -13.1010   -0.9620  -19.9240 N.3   227  ALA227     -0.1231
     56  CA       -12.7630   -0.9100  -18.5140 C.3   227  ALA227      0.1694
     57  C        -14.0010   -0.5130  -17.7210 C.2   227  ALA227      0.2593
     58  O        -14.4720    0.6200  -17.8050 O.2   227  ALA227     -0.2718
     59  CB       -11.6240    0.0710  -18.2680 C.3   227  ALA227      0.0304
     60  N        -14.5280   -1.4550  -16.9510 N.am  228  THR228     -0.1939
     61  CA       -15.7550   -1.2160  -16.2030 C.3   228  THR228      0.2028
     62  C        -15.7450   -1.9880  -14.8840 C.2   228  THR228      0.2642
     63  O        -14.8230   -2.7610  -14.6310 O.2   228  THR228     -0.2714
     64  CB       -17.0080   -1.5380  -17.0620 C.3   228  THR228      0.1808
     65  OG1      -18.1640   -0.9450  -16.4610 O.3   228  THR228     -0.2208
     66  CG2      -17.2200   -3.0380  -17.2340 C.3   228  THR228      0.0379
     67  N        -16.7490   -1.7530  -14.0390 N.am  229  LEU229     -0.1977
     68  CA       -16.9410   -2.5230  -12.8080 C.3   229  LEU229      0.1596
     69  C        -17.1810   -3.9940  -13.1510 C.2   229  LEU229      0.2287
     70  O        -17.8670   -4.2970  -14.1280 O.2   229  LEU229     -0.2864
     71  CB       -18.1300   -1.9670  -12.0140 C.3   229  LEU229      0.0297
     72  CG       -17.9480   -0.8620  -10.9640 C.3   229  LEU229      0.0022
     73  CD1      -17.1430    0.3370  -11.4550 C.3   229  LEU229      0.0001
     74  CD2      -19.3140   -0.4160  -10.4480 C.3   229  LEU229      0.0001
     75  N        -12.9350   -4.9250  -14.7080 N.3   247  TRP247     -0.1227
     76  CA       -12.0270   -3.9830  -14.0640 C.3   247  TRP247      0.1737
     77  C        -10.6180   -4.3350  -14.4800 C.2   247  TRP247      0.2595
     78  O        -10.1390   -5.4220  -14.1930 O.2   247  TRP247     -0.2718
     79  CB       -12.1340   -4.0100  -12.5390 C.3   247  TRP247      0.0564
     80  CG       -11.2280   -2.9960  -11.8620 C.ar  247  TRP247      0.0003
     81  CD1       -9.8640   -3.0780  -11.6930 C.ar  247  TRP247      0.0946
     82  CD2      -11.6260   -1.7530  -11.2660 C.ar  247  TRP247      0.0152
     83  NE1       -9.3960   -1.9640  -11.0340 N.ar  247  TRP247     -0.2442
     84  CE2      -10.4530   -1.1360  -10.7550 C.ar  247  TRP247      0.0810
     85  CE3      -12.8600   -1.1030  -11.1060 C.ar  247  TRP247      0.0012
     86  CZ2      -10.4790    0.1040  -10.0970 C.ar  247  TRP247      0.0191
     87  CZ3      -12.8860    0.1350  -10.4510 C.ar  247  TRP247      0.0001
     88  CH2      -11.7000    0.7230   -9.9570 C.ar  247  TRP247      0.0015
     89  N         -9.9670   -3.4140  -15.1750 N.am  248  VAL248     -0.1966
     90  CA        -8.5660   -3.5790  -15.5570 C.3   248  VAL248      0.1712
     91  C         -7.8000   -2.3890  -14.9600 C.2   248  VAL248      0.2458
     92  O         -8.1890   -1.2360  -15.1800 O.2   248  VAL248     -0.2730
     93  CB        -8.4040   -3.7100  -17.1000 C.3   248  VAL248      0.0289
     94  CG1       -9.0130   -2.5160  -17.8250 C.3   248  VAL248      0.0023
     95  CG2       -6.9420   -3.8920  -17.4920 C.3   248  VAL248      0.0023
     96  N         -6.7340   -2.6590  -14.1720 N.am  249  PRO249     -0.2716
     97  CA        -6.0490   -1.5420  -13.5270 C.3   249  PRO249      0.1536
     98  C         -5.5360   -0.5680  -14.5780 C.2   249  PRO249      0.2598
     99  O         -4.7570   -0.9580  -15.4510 O.2   249  PRO249     -0.2715
    100  CB        -4.8880   -2.2120  -12.7770 C.3   249  PRO249      0.0310
    101  CG        -5.2880   -3.6480  -12.6500 C.3   249  PRO249      0.0237
    102  CD        -6.0880   -3.9530  -13.8770 C.3   249  PRO249      0.0939
    103  N         -6.0210    0.6760  -14.5160 N.am  250  LEU250     -0.1978
    104  CA        -5.7660    1.6490  -15.5830 C.3   250  LEU250      0.1596
    105  C         -4.2860    1.9810  -15.7320 C.2   250  LEU250      0.2287
    106  O         -3.7950    2.1430  -16.8390 O.2   250  LEU250     -0.2864
    107  CB        -6.5920    2.9330  -15.3840 C.3   250  LEU250      0.0297
    108  CG        -7.6410    3.1910  -16.4680 C.3   250  LEU250      0.0022
    109  CD1       -8.7240    2.1190  -16.5120 C.3   250  LEU250      0.0001
    110  CD2       -8.2490    4.5740  -16.2820 C.3   250  LEU250      0.0001
    111  N        -15.7270    9.3950  -19.8490 N.3   263  HIS263     -0.1241
    112  CA       -16.9880   10.0620  -19.5520 C.3   263  HIS263      0.1621
    113  C        -16.7650   11.4580  -18.9650 C.2   263  HIS263      0.2264
    114  O        -17.7240   12.1510  -18.6210 O.2   263  HIS263     -0.2867
    115  CB       -17.7110    9.2000  -18.5150 C.3   263  HIS263      0.0745
    116  CG       -16.8400    8.8370  -17.3460 C.ar  263  HIS263      0.0817
    117  ND1      -15.6600    8.1330  -17.4870 N.ar  263  HIS263     -0.2268
    118  CD2      -16.9530    9.1150  -16.0240 C.ar  263  HIS263      0.1154
    119  CE1      -15.0860    7.9910  -16.3050 C.ar  263  HIS263      0.1986
    120  NE2      -15.8530    8.5710  -15.3990 N.ar  263  HIS263     -0.2212
    121  N        -14.0180   11.5250  -16.5870 N.3   265  GLY265     -0.1210
    122  CA       -13.4480   11.1050  -15.3100 C.3   265  GLY265      0.1956
    123  C        -12.1160   11.7920  -15.0640 C.2   265  GLY265      0.2612
    124  O        -11.1820   11.6480  -15.8570 O.2   265  GLY265     -0.2717
    125  N        -12.0390   12.5550  -13.9750 N.am  266  GLY266     -0.1942
    126  CA       -10.8190   13.2910  -13.6170 C.3   266  GLY266      0.2014
    127  C         -9.5600   12.4450  -13.5070 C.2   266  GLY266      0.2639
    128  O         -8.4950   12.7830  -14.0700 O.2   266  GLY266     -0.2714
    129  N         -9.6740   11.3310  -12.7920 N.am  267  VAL267     -0.1963
    130  CA        -8.5020   10.4720  -12.5750 C.3   267  VAL267      0.1727
    131  C         -8.1150    9.6390  -13.8080 C.2   267  VAL267      0.2616
    132  O         -6.9330    9.3760  -14.0210 O.2   267  VAL267     -0.2715
    133  CB        -8.6400    9.6280  -11.2960 C.3   267  VAL267      0.0290
    134  CG1       -7.3720    8.8320  -11.0440 C.3   267  VAL267      0.0023
    135  CG2       -8.9160   10.5460  -10.1030 C.3   267  VAL267      0.0023
    136  N         -9.1040    9.2540  -14.6190 N.am  268  THR268     -0.1951
    137  CA        -8.8510    8.6270  -15.9280 C.3   268  THR268      0.1897
    138  C         -8.0720    9.6040  -16.8240 C.2   268  THR268      0.2313
    139  O         -7.1260    9.2100  -17.4980 O.2   268  THR268     -0.2863
    140  CB       -10.1590    8.2100  -16.6320 C.3   268  THR268      0.1794
    141  OG1      -10.8400    7.2370  -15.8330 O.3   268  THR268     -0.2208
    142  CG2       -9.8720    7.5990  -17.9920 C.3   268  THR268      0.0378
    143  N         -4.5000    9.6170  -15.6300 N.3   271  THR271     -0.1218
    144  CA        -3.8250    8.3760  -16.0450 C.3   271  THR271      0.1862
    145  C         -3.3870    8.4450  -17.5120 C.2   271  THR271      0.2287
    146  O         -2.2450    8.0920  -17.8430 O.2   271  THR271     -0.2866
    147  CB        -4.7110    7.1300  -15.8370 C.3   271  THR271      0.1770
    148  OG1       -5.2910    7.1530  -14.5210 O.3   271  THR271     -0.2211
    149  CG2       -3.8910    5.8570  -16.0070 C.3   271  THR271      0.0375
@<TRIPOS>BOND
     1    38    39    1
     2    41    40    2
     3    55    56    1
     4   111   112    1
     5    39    40    1
     6    39    42    1
     7   112   113    1
     8   112   115    1
     9    40    45   am
    10   113   114    2
    11    42    44    1
    12    42    43    1
    13   115   116    1
    14    56    59    1
    15    56    57    1
    16    45    46    1
    17   142   140    1
    18    49    46    1
    19    49    50    1
    20   146   145    2
    21    94    93    1
    22    58    57    2
    23    46    47    1
    24    57    60   am
    25   145   144    1
    26   139   138    2
    27    95    93    1
    28   117   116   ar
    29   117   119   ar
    30   116   118   ar
    31    66    64    1
    32    93    90    1
    33    64    65    1
    34    64    61    1
    35    60    61    1
    36   106   105    2
    37   138   137    1
    38   140   137    1
    39   140   141    1
    40   121   122    1
    41   109   108    1
    42   108   110    1
    43   108   107    1
    44    47    51   am
    45    47    48    2
    46   119   120   ar
    47    61    62    1
    48   144   147    1
    49   144   143    1
    50   118   120   ar
    51   149   147    1
    52   137   136    1
    53   124   123    2
    54   147   148    1
    55    51    52    1
    56   105   104    1
    57   104   107    1
    58   104   103    1
    59    90    89    1
    60    90    91    1
    61    99    98    2
    62   122   123    1
    63    92    91    2
    64    89    77   am
    65   123   125   am
    66    91    96   am
    67    62    63    2
    68    62    67   am
    69    75    76    1
    70   136   131   am
    71    98   103   am
    72    98    97    1
    73    52    53    1
    74    77    78    2
    75    77    76    1
    76    96   102    1
    77    96    97    1
    78    70    69    2
    79   128   127    2
    80    76    79    1
    81    67    68    1
    82   132   131    2
    83   125   126    1
    84   102   101    1
    85   131   130    1
    86   126   127    1
    87    54    53    2
    88    97   100    1
    89   127   129   am
    90    69    68    1
    91    68    71    1
    92   129   130    1
    93   100   101    1
    94   130   133    1
    95    79    80    1
    96    71    72    1
    97    36    35    2
    98    80    81   ar
    99    80    82   ar
   100    81    83   ar
   101    73    72    1
   102   133   134    1
   103   133   135    1
   104    82    85   ar
   105    82    84   ar
   106    35    37   am
   107    35    34    1
   108    85    87   ar
   109    83    84   ar
   110    72    74    1
   111    84    86   ar
   112    87    88   ar
   113    34    31    1
   114    86    88   ar
   115    18    15    1
   116    31    30    1
   117    31    32    1
   118    28    26   ar
   119    28    29   ar
   120    32    33    2
   121    26    24   ar
   122    15    14    1
   123    15    16    1
   124    14     9   am
   125    29    27   ar
   126    24    23    1
   127    24    25   ar
   128    23    20    1
   129    11    12    1
   130    11     8    1
   131    12    13    1
   132    13     7    1
   133     6     5    1
   134    17    16    2
   135     5     2    1
   136     9     8    1
   137     9    10    2
   138    27    25   ar
   139     7     8    1
   140     7     3   am
   141    21    22    2
   142    21    20    1
   143    20    19    1
   144     2     3    1
   145     2     1    1
   146     3     4    2
