@<TRIPOS>MOLECULE
tmp/4rioA00.pdb
 138 131 0 0 0
SMALL
GASTEIGER

@<TRIPOS>ATOM
      1  N          2.6260  -18.9470    0.9960 N.3    14  LEU14      -0.1231
      2  CA         1.8200  -18.9650   -0.2220 C.3    14  LEU14       0.1693
      3  C          2.6450  -19.3950   -1.4380 C.2    14  LEU14       0.2593
      4  O          2.1670  -20.1770   -2.2650 O.2    14  LEU14      -0.2718
      5  CB         1.1440  -17.6050   -0.4830 C.3    14  LEU14       0.0284
      6  CG        -0.0080  -17.2010    0.4320 C.3    14  LEU14       0.0019
      7  CD1       -0.3710  -15.7590    0.2050 C.3    14  LEU14       0.0001
      8  CD2       -1.2180  -18.0970    0.2210 C.3    14  LEU14       0.0001
      9  N          3.8670  -18.8940   -1.5310 N.am   15  GLY15      -0.1942
     10  CA         4.7540  -19.2240   -2.6340 C.3    15  GLY15       0.2014
     11  C          6.2100  -19.0660   -2.2770 C.2    15  GLY15       0.2639
     12  O          6.5470  -18.4260   -1.2700 O.2    15  GLY15      -0.2714
     13  N          7.0860  -19.6430   -3.1210 N.am   16  LYS16      -0.1963
     14  CA         8.5290  -19.6060   -2.8950 C.3    16  LYS16       0.1728
     15  C          9.3260  -19.1300   -4.1220 C.2    16  LYS16       0.2616
     16  O         10.0360  -19.9120   -4.7650 O.2    16  LYS16      -0.2715
     17  CB         9.0400  -20.9630   -2.3600 C.3    16  LYS16       0.0311
     18  CG        10.4800  -21.0870   -2.0370 C.3    16  LYS16       0.0038
     19  CD        10.7750  -22.4980   -1.4930 C.3    16  LYS16       0.0206
     20  CE        11.3560  -22.3210   -0.0910 C.3    16  LYS16       0.1093
     21  NZ        12.5120  -21.3750   -0.1430 N.3    16  LYS16      -0.1314
     22  N          9.2210  -17.8320   -4.4070 N.am   17  GLY17      -0.1955
     23  CA        10.0150  -17.1780   -5.4470 C.3    17  GLY17       0.1869
     24  C         11.4280  -17.1150   -4.9060 C.2    17  GLY17       0.2309
     25  O         11.5970  -16.9190   -3.6980 O.2    17  GLY17      -0.2863
     26  N          6.5010  -15.3580   -0.3630 N.3    22  VAL22      -0.1245
     27  CA         5.2300  -14.6560   -0.1510 C.3    22  VAL22       0.1561
     28  C          4.4380  -15.4750    0.8850 C.2    22  VAL22       0.2260
     29  O          4.2170  -16.6730    0.6970 O.2    22  VAL22      -0.2867
     30  CB         4.4400  -14.4310   -1.4690 C.3    22  VAL22       0.0252
     31  CG1        3.0420  -13.8540   -1.2030 C.3    22  VAL22       0.0019
     32  CG2        5.2250  -13.5360   -2.4190 C.3    22  VAL22       0.0019
     33  N         -1.2330  -10.6140    1.7450 N.3    39  ALA39      -0.1245
     34  CA        -0.1060  -11.3500    1.1710 C.3    39  ALA39       0.1562
     35  C          1.1280  -10.5000    1.4340 C.2    39  ALA39       0.2260
     36  O          1.1510   -9.3000    1.1290 O.2    39  ALA39      -0.2867
     37  CB        -0.3060  -11.5710   -0.3220 C.3    39  ALA39       0.0290
     38  N         -2.4480   -7.1600   -9.4390 N.3    70  VAL70      -0.1245
     39  CA        -2.5380   -7.4000   -7.9930 C.3    70  VAL70       0.1561
     40  C         -2.3390   -6.0720   -7.2590 C.2    70  VAL70       0.2260
     41  O         -1.4460   -5.2990   -7.6200 O.2    70  VAL70      -0.2867
     42  CB        -1.5790   -8.5220   -7.5040 C.3    70  VAL70       0.0252
     43  CG1       -0.1090   -8.0940   -7.5690 C.3    70  VAL70       0.0019
     44  CG2       -1.9550   -8.9950   -6.1070 C.3    70  VAL70       0.0019
     45  N          0.5620   -6.7870    0.0840 N.3    88  MET88      -0.1230
     46  CA        -0.3430   -6.8380   -1.0610 C.3    88  MET88       0.1702
     47  C         -1.6330   -7.4940   -0.6280 C.2    88  MET88       0.2592
     48  O         -1.7130   -8.0810    0.4710 O.2    88  MET88      -0.2718
     49  CB         0.2580   -7.6830   -2.1840 C.3    88  MET88       0.0401
     50  CG         1.4640   -7.0840   -2.8030 C.3    88  MET88       0.0596
     51  SD         2.3710   -8.3090   -3.7460 S.3    88  MET88      -0.1393
     52  CE         3.1070   -9.2570   -2.4430 C.3    88  MET88       0.0692
     53  N         -2.6340   -7.4530   -1.5160 N.am   89  GLU89      -0.1966
     54  CA        -3.9200   -8.1020   -1.2660 C.3    89  GLU89       0.1733
     55  C         -3.7680   -9.6320   -1.3950 C.2    89  GLU89       0.2616
     56  O         -2.8530  -10.1300   -2.0670 O.2    89  GLU89      -0.2715
     57  CB        -5.0310   -7.5740   -2.2040 C.3    89  GLU89       0.0429
     58  CG        -4.8000   -7.9240   -3.6630 C.3    89  GLU89       0.1163
     59  CD        -5.8800   -7.5980   -4.6740 C.2    89  GLU89       0.3649
     60  OE1       -7.0650   -7.4740   -4.2850 O.co2  89  GLU89      -0.2457
     61  OE2       -5.5320   -7.4860   -5.8720 O.co2  89  GLU89      -0.2457
     62  N         -4.6600  -10.3610   -0.7190 N.am   90  TYR90      -0.1960
     63  CA        -4.7270  -11.8010   -0.7520 C.3    90  TYR90       0.1771
     64  C         -5.8980  -12.1920   -1.6360 C.2    90  TYR90       0.2619
     65  O         -6.9840  -11.6270   -1.5020 O.2    90  TYR90      -0.2715
     66  CB        -4.9070  -12.3590    0.6610 C.3    90  TYR90       0.0574
     67  CG        -5.0230  -13.8680    0.7120 C.ar   90  TYR90      -0.0198
     68  CD1       -4.0130  -14.6820    0.2010 C.ar   90  TYR90      -0.0009
     69  CD2       -6.1310  -14.4830    1.2900 C.ar   90  TYR90      -0.0009
     70  CE1       -4.1080  -16.0680    0.2470 C.ar   90  TYR90       0.0417
     71  CE2       -6.2380  -15.8770    1.3450 C.ar   90  TYR90       0.0417
     72  CZ        -5.2150  -16.6650    0.8310 C.ar   90  TYR90       0.1957
     73  OH        -5.2620  -18.0360    0.8910 O.3    90  TYR90      -0.2866
     74  N         -5.6740  -13.1300   -2.5630 N.am   91  LEU91      -0.1964
     75  CA        -6.7260  -13.6250   -3.4500 C.3    91  LEU91       0.1713
     76  C         -7.0260  -15.0690   -3.0400 C.2    91  LEU91       0.2458
     77  O         -6.2410  -15.9610   -3.3680 O.2    91  LEU91      -0.2730
     78  CB        -6.3540  -13.4600   -4.9440 C.3    91  LEU91       0.0310
     79  CG        -6.4830  -12.0290   -5.5680 C.3    91  LEU91       0.0022
     80  CD1       -7.7050  -11.2750   -5.0540 C.3    91  LEU91       0.0001
     81  CD2       -5.2380  -11.1660   -5.3220 C.3    91  LEU91       0.0001
     82  N         -8.0800  -15.3150   -2.2180 N.am   92  PRO92      -0.2727
     83  CA        -8.3040  -16.6870   -1.6920 C.3    92  PRO92       0.1402
     84  C         -8.3200  -17.8010   -2.7330 C.2    92  PRO92       0.2269
     85  O         -7.8190  -18.8700   -2.4130 O.2    92  PRO92      -0.2865
     86  CB        -9.6190  -16.5740   -0.9320 C.3    92  PRO92       0.0296
     87  CG        -9.6620  -15.1530   -0.5160 C.3    92  PRO92       0.0237
     88  CD        -9.0670  -14.3740   -1.6520 C.3    92  PRO92       0.0939
     89  N         -6.3290  -18.2260   -5.2090 N.3    94  GLY94      -0.1210
     90  CA        -4.9480  -18.5750   -5.5310 C.3    94  GLY94       0.1956
     91  C         -4.6130  -18.4680   -7.0130 C.2    94  GLY94       0.2612
     92  O         -5.3510  -17.8370   -7.7780 O.2    94  GLY94      -0.2717
     93  N         -3.4880  -19.0770   -7.4340 N.am   95  CYS95      -0.1970
     94  CA        -3.0660  -18.9960   -8.8340 C.3    95  CYS95       0.1712
     95  C         -4.0390  -19.6730   -9.7870 C.2    95  CYS95       0.2296
     96  O         -4.7250  -20.6380   -9.4220 O.2    95  CYS95      -0.2864
     97  CB        -1.6350  -19.4910   -9.0420 C.3    95  CYS95       0.0983
     98  SG        -1.4630  -21.2970   -9.0680 S.3    95  CYS95      -0.0798
     99  N          0.9760  -19.6450  -13.4520 N.3   139  ARG139     -0.1231
    100  CA         1.3600  -19.7650  -12.0430 C.3   139  ARG139      0.1694
    101  C          1.4540  -18.3880  -11.3510 C.2   139  ARG139      0.2592
    102  O          1.2110  -18.3210  -10.1470 O.2   139  ARG139     -0.2718
    103  CB         2.6650  -20.5620  -11.8850 C.3   139  ARG139      0.0321
    104  CG         3.9290  -19.7950  -12.2740 C.3   139  ARG139      0.0489
    105  CD         5.1750  -20.6530  -12.2890 C.3   139  ARG139      0.2205
    106  NE         6.0750  -20.1810  -13.3500 N.pl3 139  ARG139     -0.0865
    107  CZ         6.4380  -20.8940  -14.4140 C.cat 139  ARG139      0.5346
    108  NH1        6.0440  -22.1570  -14.5430 N.pl3 139  ARG139      0.1354
    109  NH2        7.2420  -20.3680  -15.3270 N.pl3 139  ARG139      0.1354
    110  N          1.7690  -17.3030  -12.1200 N.am  140  ASN140     -0.1974
    111  CA         1.9310  -15.9230  -11.6340 C.3   140  ASN140      0.1688
    112  C          0.7150  -15.0140  -11.7860 C.2   140  ASN140      0.2292
    113  O          0.8210  -13.7860  -11.5990 O.2   140  ASN140     -0.2864
    114  CB         3.1340  -15.2790  -12.2930 C.3   140  ASN140      0.1181
    115  CG         4.4100  -15.8030  -11.7330 C.2   140  ASN140      0.2629
    116  OD1        4.4620  -16.3210  -10.6110 O.2   140  ASN140     -0.2716
    117  ND2        5.4680  -15.6500  -12.4940 N.am  140  ASN140     -0.0877
    118  N         -3.4270  -14.4920  -10.6080 N.3   142  LEU142     -0.1245
    119  CA        -4.3750  -14.7770   -9.5310 C.3   142  LEU142      0.1561
    120  C         -5.8310  -14.5550   -9.9110 C.2   142  LEU142      0.2260
    121  O         -6.1740  -13.5890  -10.6190 O.2   142  LEU142     -0.2867
    122  CB        -4.0280  -13.9830   -8.2600 C.3   142  LEU142      0.0270
    123  CG        -2.6120  -14.1150   -7.7590 C.3   142  LEU142      0.0019
    124  CD1       -2.2640  -13.0010   -6.8870 C.3   142  LEU142      0.0001
    125  CD2       -2.3960  -15.4310   -7.0600 C.3   142  LEU142      0.0001
    126  N          0.3450  -10.9220  -11.3360 N.3   152  ALA152     -0.1231
    127  CA         1.1170  -10.7880  -10.0870 C.3   152  ALA152      0.1694
    128  C          2.5770  -11.2620  -10.2750 C.2   152  ALA152      0.2592
    129  O          2.9590  -11.5490  -11.4070 O.2   152  ALA152     -0.2718
    130  CB         0.4280  -11.5230   -8.9360 C.3   152  ALA152      0.0304
    131  N          3.3720  -11.3450   -9.1760 N.am  153  ASP153     -0.1974
    132  CA         4.7900  -11.7060   -9.1490 C.3   153  ASP153      0.1709
    133  C          5.6480  -10.7360   -9.9600 C.2   153  ASP153      0.2293
    134  O          5.9940  -11.0180  -11.1210 O.2   153  ASP153     -0.2864
    135  CB         5.0710  -13.1670   -9.5370 C.3   153  ASP153      0.1436
    136  CG         6.5080  -13.5490   -9.2290 C.2   153  ASP153      0.3671
    137  OD1        6.9560  -13.2920   -8.0910 O.co2 153  ASP153     -0.2456
    138  OD2        7.2140  -14.0080  -10.1550 O.co2 153  ASP153     -0.2456
@<TRIPOS>BOND
     1   109   107    1
     2   108   107    1
     3   107   106    2
     4    99   100    1
     5   106   105    1
     6   117   115   am
     7   114   115    1
     8   114   111    1
     9   105   104    1
    10   104   103    1
    11   110   111    1
    12   110   101   am
    13   100   103    1
    14   100   101    1
    15   112   111    1
    16   112   113    2
    17   115   116    2
    18   129   128    2
    19   101   102    2
    20   126   127    1
    21   134   133    2
    22   121   120    2
    23   118   119    1
    24   128   127    1
    25   128   131   am
    26   138   136   ar
    27   127   130    1
    28   133   132    1
    29   120   119    1
    30    95    96    2
    31    95    94    1
    32   135   136    1
    33   135   132    1
    34   119   122    1
    35    38    39    1
    36   136   137   ar
    37   131   132    1
    38    98    97    1
    39    97    94    1
    40    94    93    1
    41   122   123    1
    42    39    42    1
    43    39    40    1
    44    92    91    2
    45   123   125    1
    46   123   124    1
    47    41    40    2
    48    43    42    1
    49    42    44    1
    50    93    91   am
    51    91    90    1
    52    61    59   ar
    53    79    81    1
    54    79    80    1
    55    79    78    1
    56    90    89    1
    57    23    24    1
    58    23    22    1
    59    78    75    1
    60    24    25    2
    61    16    15    2
    62    59    60   ar
    63    59    58    1
    64    22    15   am
    65    15    14    1
    66    51    50    1
    67    51    52    1
    68    58    57    1
    69    75    76    1
    70    75    74    1
    71    77    76    2
    72    13    14    1
    73    13    11   am
    74    76    82   am
    75    14    17    1
    76    50    49    1
    77    84    85    2
    78    84    83    1
    79    10    11    1
    80    10     9    1
    81    74    64   am
    82    32    30    1
    83    17    18    1
    84    11    12    2
    85     4     3    2
    86    82    83    1
    87    82    88    1
    88    57    54    1
    89    49    46    1
    90    56    55    2
    91    18    19    1
    92    83    86    1
    93    88    87    1
    94    64    65    2
    95    64    63    1
    96     9     3   am
    97    53    54    1
    98    53    47   am
    99    19    20    1
   100    30    31    1
   101    30    27    1
   102     3     2    1
   103    55    54    1
   104    55    62   am
   105    46    47    1
   106    46    45    1
   107    86    87    1
   108    63    62    1
   109    63    66    1
   110    47    48    2
   111     5     2    1
   112     5     6    1
   113    26    27    1
   114    37    34    1
   115     2     1    1
   116    27    28    1
   117    21    20    1
   118    68    70   ar
   119    68    67   ar
   120     7     6    1
   121     8     6    1
   122    70    72   ar
   123    66    67    1
   124    29    28    2
   125    67    69   ar
   126    72    73    1
   127    72    71   ar
   128    36    35    2
   129    34    35    1
   130    34    33    1
   131    69    71   ar
