@<TRIPOS>MOLECULE
tmp/4ritA00.pdb
 85 83 0 0 0
SMALL
GASTEIGER

@<TRIPOS>ATOM
      1  N          8.8630    7.8140    3.2050 N.3   124  LEU124     -0.1231
      2  CA         9.8690    8.6780    2.5900 C.3   124  LEU124      0.1693
      3  C         11.2200    7.9450    2.4200 C.2   124  LEU124      0.2592
      4  O         11.9740    8.2420    1.4910 O.2   124  LEU124     -0.2718
      5  CB        10.0960    9.9600    3.4180 C.3   124  LEU124      0.0284
      6  CG         9.0190   11.0560    3.4450 C.3   124  LEU124      0.0019
      7  CD1        9.4970   12.2560    4.3380 C.3   124  LEU124      0.0001
      8  CD2        8.7030   11.5170    2.0650 C.3   124  LEU124      0.0001
      9  N         11.5330    7.0210    3.3290 N.am  125  PHE125     -0.1962
     10  CA        12.7290    6.1950    3.2030 C.3   125  PHE125      0.1771
     11  C         12.5180    5.0290    2.2550 C.2   125  PHE125      0.2620
     12  O         13.4790    4.3670    1.9060 O.2   125  PHE125     -0.2715
     13  CB        13.1860    5.6460    4.5950 C.3   125  PHE125      0.0574
     14  CG        13.8970    6.6700    5.4340 C.ar  125  PHE125     -0.0200
     15  CD1       15.2600    6.9000    5.2620 C.ar  125  PHE125     -0.0042
     16  CD2       13.2050    7.4170    6.3960 C.ar  125  PHE125     -0.0042
     17  CE1       15.9380    7.8660    6.0450 C.ar  125  PHE125     -0.0003
     18  CE2       13.8560    8.4060    7.1530 C.ar  125  PHE125     -0.0003
     19  CZ        15.2070    8.6280    7.0060 C.ar  125  PHE125     -0.0000
     20  N         11.2740    4.7980    1.8380 N.am  126  GLY126     -0.1954
     21  CA        10.9740    3.7700    0.8510 C.3   126  GLY126      0.1869
     22  C         10.9130    2.3560    1.4090 C.2   126  GLY126      0.2309
     23  O         11.0780    1.3720    0.6610 O.2   126  GLY126     -0.2863
     24  N         16.2410   12.5980    2.8380 N.3   266  VAL266     -0.1245
     25  CA        14.9630   12.1360    2.2350 C.3   266  VAL266      0.1561
     26  C         14.0280   13.2880    1.9220 C.2   266  VAL266      0.2260
     27  O         13.1860   13.1670    1.0330 O.2   266  VAL266     -0.2867
     28  CB        14.1950   11.0900    3.1000 C.3   266  VAL266      0.0252
     29  CG1       15.0510    9.8480    3.2540 C.3   266  VAL266      0.0019
     30  CG2       13.7200   11.7000    4.4590 C.3   266  VAL266      0.0019
     31  N         18.8080   13.2820   -2.4210 N.3   272  ARG272     -0.1231
     32  CA        18.5360   12.0090   -1.7380 C.3   272  ARG272      0.1694
     33  C         19.0190   10.7560   -2.4910 C.2   272  ARG272      0.2592
     34  O         18.9850    9.6530   -1.9170 O.2   272  ARG272     -0.2718
     35  CB        17.0360   11.8300   -1.4320 C.3   272  ARG272      0.0321
     36  CG        16.1090   11.9490   -2.5740 C.3   272  ARG272      0.0489
     37  CD        14.6910   11.8490   -2.0460 C.3   272  ARG272      0.2205
     38  NE        13.7620   12.0570   -3.1330 N.pl3 272  ARG272     -0.0865
     39  CZ        12.6340   12.7560   -3.0480 C.cat 272  ARG272      0.5346
     40  NH1       12.2820   13.3340   -1.8860 N.pl3 272  ARG272      0.1354
     41  NH2       11.8860   12.9140   -4.1390 N.pl3 272  ARG272      0.1354
     42  N         19.4170   10.8910   -3.7630 N.am  273  TRP273     -0.1976
     43  CA        20.1050    9.8010   -4.4280 C.3   273  TRP273      0.1640
     44  C         21.2970    9.2610   -3.6620 C.2   273  TRP273      0.2290
     45  O         21.6680    8.1080   -3.8430 O.2   273  TRP273     -0.2864
     46  CB        20.5630   10.2310   -5.8280 C.3   273  TRP273      0.0576
     47  CG        21.5270   11.4100   -5.8410 C.ar  273  TRP273      0.0006
     48  CD1       21.2190   12.7060   -6.0350 C.ar  273  TRP273      0.0946
     49  CD2       22.9530   11.3470   -5.6960 C.ar  273  TRP273      0.0152
     50  NE1       22.3580   13.4750   -5.9980 N.ar  273  TRP273     -0.2442
     51  CE2       23.4350   12.6630   -5.7750 C.ar  273  TRP273      0.0810
     52  CE3       23.8560   10.3040   -5.4580 C.ar  273  TRP273      0.0012
     53  CZ2       24.8030   12.9760   -5.6640 C.ar  273  TRP273      0.0191
     54  CZ3       25.1940   10.5960   -5.3470 C.ar  273  TRP273      0.0001
     55  CH2       25.6650   11.9240   -5.4790 C.ar  273  TRP273      0.0015
     56  N         21.3620    8.3850   -0.7730 N.3   275  LEU275     -0.1231
     57  CA        20.8930    7.3260    0.1100 C.3   275  LEU275      0.1693
     58  C         20.4130    6.0710   -0.6050 C.2   275  LEU275      0.2591
     59  O         19.8450    5.1940    0.0430 O.2   275  LEU275     -0.2718
     60  CB        19.7640    7.8450    0.9960 C.3   275  LEU275      0.0284
     61  CG        20.1230    8.9690    1.9680 C.3   275  LEU275      0.0019
     62  CD1       18.8750    9.3630    2.7670 C.3   275  LEU275      0.0001
     63  CD2       21.2130    8.5340    2.9720 C.3   275  LEU275      0.0001
     64  N         20.6800    5.9550   -1.9060 N.am  276  ALA276     -0.1980
     65  CA        20.2000    4.8120   -2.6720 C.3   276  ALA276      0.1597
     66  C         20.6160    3.5100   -2.0040 C.2   276  ALA276      0.2287
     67  O         21.7830    3.3470   -1.6720 O.2   276  ALA276     -0.2864
     68  CB        20.7540    4.8720   -4.1700 C.3   276  ALA276      0.0319
     69  N         19.0900    2.4760    0.8560 N.3   278  ILE278     -0.1231
     70  CA        18.5350    2.5310    2.2290 C.3   278  ILE278      0.1692
     71  C         17.1260    1.9130    2.2720 C.2   278  ILE278      0.2591
     72  O         16.6810    1.4190    3.3450 O.2   278  ILE278     -0.2718
     73  CB        18.4780    3.9720    2.7720 C.3   278  ILE278      0.0266
     74  CG1       18.4760    4.0040    4.3340 C.3   278  ILE278      0.0019
     75  CG2       17.3240    4.7510    2.1550 C.3   278  ILE278      0.0020
     76  CD1       18.7220    5.4540    4.8770 C.3   278  ILE278      0.0001
     77  N         16.4170    1.9420    1.1420 N.am  279  GLU279     -0.1979
     78  CA        15.0340    1.4070    1.1530 C.3   279  GLU279      0.1602
     79  C         14.9590   -0.0790    1.4310 C.2   279  GLU279      0.2287
     80  O         13.8800   -0.6100    1.7080 O.2   279  GLU279     -0.2864
     81  CB        14.3020    1.6820   -0.1690 C.3   279  GLU279      0.0415
     82  CG        15.0540    1.3070   -1.4020 C.3   279  GLU279      0.1163
     83  CD        15.9290    2.5090   -1.8870 C.2   279  GLU279      0.3649
     84  OE1       15.4470    3.4010   -2.6520 O.co2 279  GLU279     -0.2457
     85  OE2       17.0970    2.5650   -1.5080 O.co2 279  GLU279     -0.2457
@<TRIPOS>BOND
     1    48    50   ar
     2    48    47   ar
     3    50    51   ar
     4    47    46    1
     5    47    49   ar
     6    46    43    1
     7    51    49   ar
     8    51    53   ar
     9    49    52   ar
    10    53    55   ar
    11    55    54   ar
    12    52    54   ar
    13    43    42    1
    14    43    44    1
    15    68    65    1
    16    41    39    1
    17    45    44    2
    18    42    33   am
    19    38    39    2
    20    38    37    1
    21    39    40    1
    22    65    66    1
    23    65    64    1
    24    84    83   ar
    25    36    37    1
    26    36    35    1
    27    33    34    2
    28    33    32    1
    29    31    32    1
    30    66    67    2
    31    64    58   am
    32    83    85   ar
    33    83    82    1
    34    32    35    1
    35    82    81    1
    36    56    57    1
    37    58    59    2
    38    58    57    1
    39    81    78    1
    40    57    60    1
    41    23    22    2
    42    21    22    1
    43    21    20    1
    44    69    70    1
    45    60    61    1
    46    27    26    2
    47    77    78    1
    48    77    71   am
    49    78    79    1
    50    79    80    2
    51     4     3    2
    52    20    11   am
    53    12    11    2
    54    26    25    1
    55    61    62    1
    56    61    63    1
    57     8     6    1
    58    75    73    1
    59    70    71    1
    60    70    73    1
    61    25    24    1
    62    25    28    1
    63    11    10    1
    64    71    72    2
    65     3     2    1
    66     3     9   am
    67     2     1    1
    68     2     5    1
    69    73    74    1
    70    28    29    1
    71    28    30    1
    72    10     9    1
    73    10    13    1
    74     5     6    1
    75     6     7    1
    76    74    76    1
    77    13    14    1
    78    15    14   ar
    79    15    17   ar
    80    14    16   ar
    81    17    19   ar
    82    16    18   ar
    83    19    18   ar
