@<TRIPOS>MOLECULE
tmp/4riuA00.pdb
 177 170 0 0 0
SMALL
GASTEIGER

@<TRIPOS>ATOM
      1  N          3.5490   -1.6200   76.1710 N.3    62  HIS62      -0.1226
      2  CA         3.4700   -2.3730   77.4280 C.3    62  HIS62       0.1752
      3  C          2.0680   -2.9340   77.6720 C.2    62  HIS62       0.2596
      4  O          1.9080   -3.9430   78.3610 O.2    62  HIS62      -0.2718
      5  CB         3.9350   -1.5480   78.6420 C.3    62  HIS62       0.0759
      6  CG         3.4910   -0.1190   78.6450 C.ar   62  HIS62       0.0818
      7  ND1        2.3750    0.3110   79.3310 N.ar   62  HIS62      -0.2268
      8  CD2        4.0440    0.9860   78.0950 C.ar   62  HIS62       0.1154
      9  CE1        2.2470    1.6170   79.1820 C.ar   62  HIS62       0.1986
     10  NE2        3.2440    2.0520   78.4340 N.ar   62  HIS62      -0.2212
     11  N          1.0610   -2.2950   77.0890 N.am   63  SER63      -0.1952
     12  CA        -0.3030   -2.7970   77.1310 C.3    63  SER63       0.1924
     13  C         -1.0790   -2.1330   75.9960 C.2    63  SER63       0.2314
     14  O         -0.4680   -1.5160   75.1370 O.2    63  SER63      -0.2863
     15  CB        -0.9610   -2.5470   78.4930 C.3    63  SER63       0.2116
     16  OG        -1.1320   -1.1760   78.7550 O.3    63  SER63      -0.2180
     17  N         -4.3950    0.6440   75.4580 N.3    65  GLN65      -0.1245
     18  CA        -5.2730    1.4990   76.2370 C.3    65  GLN65       0.1566
     19  C         -6.3130    2.1640   75.3650 C.2    65  GLN65       0.2260
     20  O         -6.0600    2.4740   74.1940 O.2    65  GLN65      -0.2867
     21  CB        -4.4750    2.5580   76.9990 C.3    65  GLN65       0.0367
     22  CG        -3.7430    3.5510   76.1330 C.3    65  GLN65       0.0905
     23  CD        -2.9170    4.5090   76.9640 C.2    65  GLN65       0.2608
     24  OE1       -1.7410    4.2600   77.2270 O.2    65  GLN65      -0.2717
     25  NE2       -3.5280    5.6120   77.3840 N.am   65  GLN65      -0.0878
     26  N         -8.5120    5.5640   75.3840 N.3    67  THR67      -0.1218
     27  CA        -8.4350    6.8750   76.0040 C.3    67  THR67       0.1862
     28  C         -9.7450    7.6150   75.8320 C.2    67  THR67       0.2287
     29  O        -10.4390    7.4430   74.8300 O.2    67  THR67      -0.2866
     30  CB        -7.3240    7.7140   75.4070 C.3    67  THR67       0.1770
     31  OG1       -7.6280    7.9610   74.0270 O.3    67  THR67      -0.2211
     32  CG2       -6.0060    6.9810   75.5150 C.3    67  THR67       0.0375
     33  N        -11.2050   13.7560   78.6830 N.3    70  ASP70      -0.1239
     34  CA       -11.2260   14.1040   80.1020 C.3    70  ASP70       0.1674
     35  C        -11.1590   15.6140   80.2890 C.2    70  ASP70       0.2266
     36  O        -10.6440   16.0910   81.2930 O.2    70  ASP70      -0.2867
     37  CB       -10.0690   13.4240   80.8570 C.3    70  ASP70       0.1410
     38  CG        -8.7020   13.8950   80.3980 C.2    70  ASP70       0.3668
     39  OD1       -8.5920   14.4550   79.2900 O.co2  70  ASP70      -0.2456
     40  OD2       -7.7200   13.6950   81.1450 O.co2  70  ASP70      -0.2456
     41  N         -9.6770    8.8490   82.4510 N.3    89  LEU89      -0.1231
     42  CA        -8.7250    9.2170   81.4080 C.3    89  LEU89       0.1693
     43  C         -8.5260    8.0690   80.4140 C.2    89  LEU89       0.2591
     44  O         -8.5760    8.2650   79.1990 O.2    89  LEU89      -0.2718
     45  CB        -7.3750    9.6200   82.0230 C.3    89  LEU89       0.0284
     46  CG        -6.2460    9.8160   81.0020 C.3    89  LEU89       0.0019
     47  CD1       -6.5930   10.9170   80.0140 C.3    89  LEU89       0.0001
     48  CD2       -4.9390   10.1190   81.7140 C.3    89  LEU89       0.0001
     49  N         -8.2970    6.8640   80.9320 N.am   90  GLN90      -0.1979
     50  CA        -8.0600    5.7230   80.0670 C.3    90  GLN90       0.1601
     51  C         -8.3350    4.4270   80.8110 C.2    90  GLN90       0.2287
     52  O         -8.3790    4.4160   82.0400 O.2    90  GLN90      -0.2864
     53  CB        -6.6140    5.6870   79.5890 C.3    90  GLN90       0.0394
     54  CG        -5.6790    5.7790   80.7690 C.3    90  GLN90       0.0908
     55  CD        -4.8290    4.5290   80.8920 C.2    90  GLN90       0.2608
     56  OE1       -5.3600    3.4210   80.8620 O.2    90  GLN90      -0.2717
     57  NE2       -3.5260    4.6940   81.0610 N.am   90  GLN90      -0.0878
     58  N         -6.9200    0.1440   80.5610 N.3    92  HIS92      -0.1241
     59  CA        -5.9770   -0.7730   79.9400 C.3    92  HIS92       0.1621
     60  C         -6.0500   -2.0670   80.7170 C.2    92  HIS92       0.2264
     61  O         -6.7470   -2.1360   81.7290 O.2    92  HIS92      -0.2867
     62  CB        -4.5500   -0.2170   79.9750 C.3    92  HIS92       0.0745
     63  CG        -4.0460    0.0010   81.3650 C.ar   92  HIS92       0.0817
     64  ND1       -4.2410    1.1810   82.0490 N.ar   92  HIS92      -0.2268
     65  CD2       -3.4050   -0.8310   82.2180 C.ar   92  HIS92       0.1154
     66  CE1       -3.7260    1.0740   83.2620 C.ar   92  HIS92       0.1986
     67  NE2       -3.2170   -0.1410   83.3910 N.ar   92  HIS92      -0.2212
     68  N         -3.8100   -5.8000   82.1110 N.3    94  HIS94      -0.1241
     69  CA        -2.6150   -6.6110   82.2910 C.3    94  HIS94       0.1621
     70  C         -3.0630   -8.0630   82.1750 C.2    94  HIS94       0.2264
     71  O         -4.1290   -8.3990   82.6660 O.2    94  HIS94      -0.2867
     72  CB        -1.9670   -6.3500   83.6560 C.3    94  HIS94       0.0745
     73  CG        -1.6780   -4.9020   83.9180 C.ar   94  HIS94       0.0817
     74  ND1       -0.4410   -4.3470   83.6820 N.ar   94  HIS94      -0.2268
     75  CD2       -2.4710   -3.8920   84.3440 C.ar   94  HIS94       0.1154
     76  CE1       -0.4740   -3.0570   83.9790 C.ar   94  HIS94       0.1986
     77  NE2       -1.6980   -2.7540   84.3760 N.ar   94  HIS94      -0.2212
     78  N         -7.7210   -2.0110   84.4920 N.3   117  HIS117     -0.1241
     79  CA        -7.5270   -0.7890   85.2480 C.3   117  HIS117      0.1621
     80  C         -8.1920    0.3780   84.5540 C.2   117  HIS117      0.2264
     81  O         -7.8480    0.7090   83.4100 O.2   117  HIS117     -0.2867
     82  CB        -6.0440   -0.4820   85.4310 C.3   117  HIS117      0.0745
     83  CG        -5.3370   -1.4600   86.3160 C.ar  117  HIS117      0.0817
     84  ND1       -3.9700   -1.6300   86.2970 N.ar  117  HIS117     -0.2268
     85  CD2       -5.8140   -2.3240   87.2430 C.ar  117  HIS117      0.1154
     86  CE1       -3.6330   -2.5560   87.1800 C.ar  117  HIS117      0.1986
     87  NE2       -4.7340   -2.9970   87.7620 N.ar  117  HIS117     -0.2212
     88  N         -8.3680    4.2150   84.8650 N.3   119  VAL119     -0.1245
     89  CA        -7.5480    5.2390   85.5010 C.3   119  VAL119      0.1561
     90  C         -8.2670    6.5860   85.5270 C.2   119  VAL119      0.2260
     91  O         -8.6370    7.1060   84.4760 O.2   119  VAL119     -0.2867
     92  CB        -6.2050    5.3810   84.7670 C.3   119  VAL119      0.0252
     93  CG1       -5.3080    6.3820   85.4780 C.3   119  VAL119      0.0019
     94  CG2       -5.5190    4.0280   84.6520 C.3   119  VAL119      0.0019
     95  N         -3.8730   15.5510   84.5140 N.3   128  VAL128     -0.1231
     96  CA        -3.3690   14.2970   85.0480 C.3   128  VAL128      0.1692
     97  C         -1.8790   14.3900   85.3730 C.2   128  VAL128      0.2592
     98  O         -1.4080   13.7390   86.3040 O.2   128  VAL128     -0.2718
     99  CB        -3.6340   13.1290   84.0690 C.3   128  VAL128      0.0266
    100  CG1       -2.8560   13.3080   82.7820 C.3   128  VAL128      0.0020
    101  CG2       -3.2990   11.7870   84.7180 C.3   128  VAL128      0.0020
    102  N         -1.1450   15.2110   84.6250 N.am  129  GLY129     -0.1957
    103  CA         0.2670   15.4340   84.9100 C.3   129  GLY129      0.1869
    104  C          0.5050   16.0000   86.3010 C.2   129  GLY129      0.2309
    105  O          1.4500   15.6270   87.0000 O.2   129  GLY129     -0.2863
    106  N         -0.5310   13.1790   89.1390 N.3   132  VAL132     -0.1245
    107  CA         0.4060   12.0960   89.4490 C.3   132  VAL132      0.1561
    108  C          1.4730   12.5440   90.4600 C.2   132  VAL132      0.2260
    109  O          2.1420   11.7120   91.0850 O.2   132  VAL132     -0.2867
    110  CB         1.0860   11.5140   88.1880 C.3   132  VAL132      0.0252
    111  CG1        0.0560   10.7990   87.3160 C.3   132  VAL132      0.0019
    112  CG2        1.8120   12.5740   87.4150 C.3   132  VAL132      0.0019
    113  N         -4.7260   10.2410   91.8690 N.3   138  LEU138     -0.1245
    114  CA        -5.3770    9.2800   90.9820 C.3   138  LEU138      0.1561
    115  C         -6.2650    8.3210   91.7600 C.2   138  LEU138      0.2260
    116  O         -6.0180    8.0380   92.9270 O.2   138  LEU138     -0.2867
    117  CB        -4.3350    8.4770   90.1880 C.3   138  LEU138      0.0270
    118  CG        -3.9550    8.9500   88.7810 C.3   138  LEU138      0.0019
    119  CD1       -3.4800   10.3850   88.8060 C.3   138  LEU138      0.0001
    120  CD2       -2.9030    8.0180   88.1420 C.3   138  LEU138      0.0001
    121  N         -7.6620    4.4610   90.7590 N.3   140  VAL140     -0.1245
    122  CA        -7.7380    3.4370   89.7370 C.3   140  VAL140      0.1561
    123  C         -8.6950    2.3580   90.1950 C.2   140  VAL140      0.2260
    124  O         -8.5800    1.8470   91.3210 O.2   140  VAL140     -0.2867
    125  CB        -6.3620    2.8230   89.4130 C.3   140  VAL140      0.0252
    126  CG1       -6.5030    1.8180   88.2710 C.3   140  VAL140      0.0019
    127  CG2       -5.3870    3.9290   89.0200 C.3   140  VAL140      0.0019
    128  N          1.1600    3.7860   90.8520 N.3   195  LEU195     -0.1231
    129  CA         1.1340    3.2350   89.5050 C.3   195  LEU195      0.1693
    130  C          1.8560    1.8980   89.5180 C.2   195  LEU195      0.2593
    131  O          2.8230    1.7290   90.2550 O.2   195  LEU195     -0.2718
    132  CB         1.8180    4.1750   88.5160 C.3   195  LEU195      0.0284
    133  CG         1.3790    5.6350   88.4620 C.3   195  LEU195      0.0019
    134  CD1        2.2690    6.3660   87.4770 C.3   195  LEU195      0.0001
    135  CD2       -0.0730    5.7580   88.0580 C.3   195  LEU195      0.0001
    136  N          1.4230    0.9570   88.6860 N.am  196  THR196     -0.1939
    137  CA         2.1120   -0.3300   88.6490 C.3   196  THR196      0.2028
    138  C          3.1150   -0.4280   87.5050 C.2   196  THR196      0.2643
    139  O          3.7240   -1.4880   87.2970 O.2   196  THR196     -0.2714
    140  CB         1.1260   -1.4930   88.5270 C.3   196  THR196      0.1808
    141  OG1        0.4610   -1.4220   87.2600 O.3   196  THR196     -0.2208
    142  CG2        0.0870   -1.4420   89.6590 C.3   196  THR196      0.0379
    143  N          3.2550    0.6630   86.7540 N.am  197  THR197     -0.1937
    144  CA         4.2950    0.8000   85.7420 C.3   197  THR197      0.2013
    145  C          5.1330    2.0300   86.0730 C.2   197  THR197      0.2484
    146  O          4.6490    2.9610   86.7330 O.2   197  THR197     -0.2729
    147  CB         3.7100    0.9480   84.3230 C.3   197  THR197      0.1807
    148  OG1        2.7510    2.0140   84.3080 O.3   197  THR197     -0.2208
    149  CG2        3.0230   -0.3300   83.8870 C.3   197  THR197      0.0379
    150  N          6.3930    2.0360   85.6290 N.am  198  PRO198     -0.2715
    151  CA         7.1780    3.2700   85.7230 C.3   198  PRO198      0.1521
    152  C          6.3470    4.4510   85.2250 C.2   198  PRO198      0.2440
    153  O          5.6780    4.3370   84.1920 O.2   198  PRO198     -0.2731
    154  CB         8.3700    2.9830   84.8160 C.3   198  PRO198      0.0310
    155  CG         8.5870    1.4890   84.9930 C.3   198  PRO198      0.0237
    156  CD         7.1780    0.9110   85.0840 C.3   198  PRO198      0.0939
    157  N          6.3900    5.5870   85.9320 N.am  199  PRO199     -0.2727
    158  CA         7.3240    5.9330   87.0110 C.3   199  PRO199      0.1402
    159  C          6.9580    5.4370   88.4160 C.2   199  PRO199      0.2269
    160  O          7.6080    5.8780   89.3630 O.2   199  PRO199     -0.2865
    161  CB         7.3000    7.4580   86.9900 C.3   199  PRO199      0.0296
    162  CG         5.9010    7.7840   86.5780 C.3   199  PRO199      0.0237
    163  CD         5.5450    6.7320   85.5510 C.3   199  PRO199      0.0939
    164  N         -6.2500    3.0330   95.3450 N.3   206  TRP206     -0.1241
    165  CA        -6.7010    1.8380   94.6520 C.3   206  TRP206      0.1605
    166  C         -8.0760    1.4100   95.1260 C.2   206  TRP206      0.2264
    167  O         -8.3420    1.3720   96.3250 O.2   206  TRP206     -0.2867
    168  CB        -5.6850    0.6950   94.8470 C.3   206  TRP206      0.0550
    169  CG        -4.6020    0.7890   93.8560 C.ar  206  TRP206      0.0003
    170  CD1       -3.3660    1.3540   94.0310 C.ar  206  TRP206      0.0946
    171  CD2       -4.6600    0.3520   92.4940 C.ar  206  TRP206      0.0152
    172  NE1       -2.6640    1.2990   92.8510 N.ar  206  TRP206     -0.2442
    173  CE2       -3.4230    0.6650   91.9010 C.ar  206  TRP206      0.0810
    174  CE3       -5.6300   -0.3060   91.7280 C.ar  206  TRP206      0.0012
    175  CZ2       -3.1340    0.3760   90.5710 C.ar  206  TRP206      0.0191
    176  CZ3       -5.3430   -0.6080   90.4080 C.ar  206  TRP206      0.0001
    177  CH2       -4.1000   -0.2720   89.8410 C.ar  206  TRP206      0.0015
@<TRIPOS>BOND
     1    31    30    1
     2    20    19    2
     3    29    28    2
     4    14    13    2
     5    19    18    1
     6    26    27    1
     7    30    32    1
     8    30    27    1
     9    17    18    1
    10    28    27    1
    11    13    12    1
    12    22    23    1
    13    22    21    1
    14     1     2    1
    15    18    21    1
    16    23    24    2
    17    23    25   am
    18    11    12    1
    19    11     3   am
    20    12    15    1
    21     2     3    1
    22     2     5    1
    23     3     4    2
    24     8    10   ar
    25     8     6   ar
    26    10     9   ar
    27    15    16    1
    28     5     6    1
    29     6     7   ar
    30    33    34    1
    31     9     7   ar
    32    44    43    2
    33    39    38   ar
    34    53    50    1
    35    53    54    1
    36    59    62    1
    37    59    58    1
    38    59    60    1
    39    62    63    1
    40    47    46    1
    41    50    51    1
    42    50    49    1
    43    34    35    1
    44    34    37    1
    45    35    36    2
    46    38    37    1
    47    38    40   ar
    48    43    49   am
    49    43    42    1
    50    60    61    2
    51    54    55    1
    52    51    52    2
    53    56    55    2
    54    55    57   am
    55    46    48    1
    56    46    45    1
    57    63    64   ar
    58    63    65   ar
    59    42    45    1
    60    42    41    1
    61    64    66   ar
    62    68    69    1
    63    70    69    1
    64    70    71    2
    65    65    67   ar
    66    69    72    1
    67   100    99    1
    68    66    67   ar
    69    81    80    2
    70    72    73    1
    71    74    73   ar
    72    74    76   ar
    73   149   147    1
    74    73    75   ar
    75    76    77   ar
    76    99   101    1
    77    99    96    1
    78   153   152    2
    79   148   147    1
    80   147   144    1
    81    75    77   ar
    82    91    90    2
    83    78    79    1
    84    95    96    1
    85    80    79    1
    86   102   103    1
    87   102    97   am
    88    94    92    1
    89    92    93    1
    90    92    89    1
    91   154   155    1
    92   154   151    1
    93    88    89    1
    94   103   104    1
    95   155   156    1
    96    96    97    1
    97   156   150    1
    98   152   151    1
    99   152   157   am
   100    79    82    1
   101    97    98    2
   102    82    83    1
   103    89    90    1
   104   163   157    1
   105   163   162    1
   106   150   151    1
   107   150   145   am
   108   144   145    1
   109   144   143    1
   110   157   158    1
   111   145   146    2
   112    84    83   ar
   113    84    86   ar
   114   104   105    2
   115    83    85   ar
   116   162   161    1
   117   143   138   am
   118   161   158    1
   119   158   159    1
   120    86    87   ar
   121    85    87   ar
   122   141   140    1
   123   139   138    2
   124   111   110    1
   125   112   110    1
   126   134   133    1
   127   138   137    1
   128   135   133    1
   129   120   118    1
   130   110   107    1
   131   126   125    1
   132   159   160    2
   133   133   132    1
   134   132   129    1
   135   140   137    1
   136   140   142    1
   137   137   136    1
   138   136   130   am
   139   118   119    1
   140   118   117    1
   141   127   125    1
   142   106   107    1
   143   125   122    1
   144   107   108    1
   145   129   130    1
   146   129   128    1
   147   130   131    2
   148   122   123    1
   149   122   121    1
   150   177   176   ar
   151   177   175   ar
   152   117   114    1
   153   123   124    2
   154   176   174   ar
   155   108   109    2
   156   175   173   ar
   157   114   115    1
   158   114   113    1
   159   174   171   ar
   160   115   116    2
   161   173   171   ar
   162   173   172   ar
   163   171   169   ar
   164   172   170   ar
   165   169   170   ar
   166   169   168    1
   167   165   168    1
   168   165   166    1
   169   165   164    1
   170   166   167    2
