@<TRIPOS>MOLECULE
tmp/4riyD00.pdb
 159 146 0 0 0
SMALL
GASTEIGER

@<TRIPOS>ATOM
      1  N         33.3260  -26.6110  -43.1930 N.3    31  LEU31      -0.1231
      2  CA        32.2570  -27.2040  -42.4030 C.3    31  LEU31       0.1693
      3  C         30.9730  -27.2370  -43.2210 C.2    31  LEU31       0.2592
      4  O         30.1770  -28.1700  -43.1100 O.2    31  LEU31      -0.2718
      5  CB        32.0480  -26.4170  -41.1100 C.3    31  LEU31       0.0284
      6  CG        33.2700  -26.3130  -40.1970 C.3    31  LEU31       0.0019
      7  CD1       32.9930  -25.3740  -39.0320 C.3    31  LEU31       0.0001
      8  CD2       33.6890  -27.6890  -39.7000 C.3    31  LEU31       0.0001
      9  N         30.7760  -26.2080  -44.0420 N.am   32  GLY32      -0.1957
     10  CA        29.5920  -26.1170  -44.8760 C.3    32  GLY32       0.1869
     11  C         29.8130  -25.2980  -46.1340 C.2    32  GLY32       0.2309
     12  O         30.3370  -24.1860  -46.0770 O.2    32  GLY32      -0.2863
     13  N         25.3260  -19.7000  -50.9860 N.3    36  PHE36      -0.1241
     14  CA        25.4980  -18.5500  -50.1150 C.3    36  PHE36       0.1605
     15  C         26.9810  -18.2160  -50.0040 C.2    36  PHE36       0.2264
     16  O         27.3730  -17.0550  -50.1110 O.2    36  PHE36      -0.2867
     17  CB        24.8940  -18.8220  -48.7310 C.3    36  PHE36       0.0534
     18  CG        25.5010  -20.0060  -48.0210 C.ar   36  PHE36      -0.0203
     19  CD1       25.0400  -21.2890  -48.2750 C.ar   36  PHE36      -0.0042
     20  CD2       26.5300  -19.8390  -47.1050 C.ar   36  PHE36      -0.0042
     21  CE1       25.5890  -22.3810  -47.6300 C.ar   36  PHE36      -0.0003
     22  CE2       27.0870  -20.9310  -46.4610 C.ar   36  PHE36      -0.0003
     23  CZ        26.6160  -22.2030  -46.7270 C.ar   36  PHE36      -0.0000
     24  N         31.3120  -21.9500  -44.9800 N.3    39  VAL39      -0.1245
     25  CA        31.6310  -21.8420  -43.5640 C.3    39  VAL39       0.1561
     26  C         32.8830  -22.6540  -43.2640 C.2    39  VAL39       0.2260
     27  O         32.9460  -23.8440  -43.5690 O.2    39  VAL39      -0.2867
     28  CB        30.4840  -22.3280  -42.6730 C.3    39  VAL39       0.0252
     29  CG1       30.8900  -22.2330  -41.2150 C.3    39  VAL39       0.0019
     30  CG2       29.2250  -21.5170  -42.9380 C.3    39  VAL39       0.0019
     31  N         34.7740  -20.2380  -36.2770 N.3    56  ALA56      -0.1245
     32  CA        34.1070  -20.4880  -37.5450 C.3    56  ALA56       0.1562
     33  C         34.1400  -19.2190  -38.3840 C.2    56  ALA56       0.2260
     34  O         33.8850  -18.1230  -37.8800 O.2    56  ALA56      -0.2867
     35  CB        32.6860  -20.9460  -37.3310 C.3    56  ALA56       0.0290
     36  N         32.5680  -17.5110  -41.6780 N.3    58  LYS58      -0.1245
     37  CA        31.5530  -17.5290  -42.7160 C.3    58  LYS58       0.1561
     38  C         31.9040  -16.5030  -43.7760 C.2    58  LYS58       0.2260
     39  O         31.9350  -15.3040  -43.5330 O.2    58  LYS58      -0.2867
     40  CB        30.1700  -17.2480  -42.1310 C.3    58  LYS58       0.0271
     41  CG        29.0330  -17.3280  -43.1350 C.3    58  LYS58       0.0035
     42  CD        27.7310  -16.8480  -42.5150 C.3    58  LYS58       0.0206
     43  CE        26.5310  -17.2870  -43.3350 C.3    58  LYS58       0.1093
     44  NZ        25.2620  -16.7400  -42.7810 N.3    58  LYS58      -0.1314
     45  N         23.3480   -9.2950  -41.2360 N.3    75  GLU75      -0.1245
     46  CA        23.5720  -10.5230  -40.4780 C.3    75  GLU75       0.1567
     47  C         24.5970  -10.2650  -39.3720 C.2    75  GLU75       0.2260
     48  O         24.3970  -10.6510  -38.2140 O.2    75  GLU75      -0.2867
     49  CB        24.0420  -11.6490  -41.3960 C.3    75  GLU75       0.0388
     50  CG        24.5380  -12.8860  -40.6610 C.3    75  GLU75       0.1160
     51  CD        24.6490  -14.1020  -41.5640 C.2    75  GLU75       0.3649
     52  OE1       25.0440  -15.1790  -41.0690 O.co2  75  GLU75      -0.2457
     53  OE2       24.3600  -13.9780  -42.7730 O.co2  75  GLU75      -0.2457
     54  N         24.3780  -17.5570  -30.3350 N.3    88  CYS88      -0.1235
     55  CA        25.8020  -17.4350  -30.6020 C.3    88  CYS88       0.1677
     56  C         26.1430  -16.0190  -31.0600 C.2    88  CYS88       0.2270
     57  O         25.2980  -15.3110  -31.6090 O.2    88  CYS88      -0.2867
     58  CB        26.2120  -18.4650  -31.6630 C.3    88  CYS88       0.0956
     59  SG        27.9560  -18.4810  -32.1360 S.3    88  CYS88      -0.0801
     60  N         32.8540  -16.2350  -35.9120 N.3   103  THR103     -0.1203
     61  CA        32.2120  -16.5800  -34.6480 C.3   103  THR103      0.1994
     62  C         33.0280  -17.6120  -33.8800 C.2   103  THR103      0.2618
     63  O         33.9890  -18.1710  -34.4070 O.2   103  THR103     -0.2717
     64  CB        30.7910  -17.1280  -34.8650 C.3   103  THR103      0.1784
     65  OG1       30.8580  -18.3700  -35.5780 O.3   103  THR103     -0.2211
     66  CG2       29.9490  -16.1330  -35.6520 C.3   103  THR103      0.0376
     67  N         32.6460  -17.8560  -32.6300 N.am  104  GLN104     -0.1965
     68  CA        33.3060  -18.8740  -31.8250 C.3   104  GLN104      0.1733
     69  C         32.9490  -20.2530  -32.3600 C.2   104  GLN104      0.2616
     70  O         31.7780  -20.5470  -32.6070 O.2   104  GLN104     -0.2715
     71  CB        32.9040  -18.7540  -30.3560 C.3   104  GLN104      0.0408
     72  CG        33.7560  -19.5820  -29.4090 C.3   104  GLN104      0.0908
     73  CD        33.1800  -19.6390  -28.0090 C.2   104  GLN104      0.2608
     74  OE1       31.9670  -19.7590  -27.8300 O.2   104  GLN104     -0.2717
     75  NE2       34.0460  -19.5460  -27.0060 N.am  104  GLN104     -0.0878
     76  N         33.9610  -21.0950  -32.5400 N.am  105  LEU105     -0.1963
     77  CA        33.7530  -22.4410  -33.0600 C.3   105  LEU105      0.1728
     78  C         33.0160  -23.3230  -32.0580 C.2   105  LEU105      0.2616
     79  O         33.3100  -23.3020  -30.8630 O.2   105  LEU105     -0.2715
     80  CB        35.0890  -23.0810  -33.4400 C.3   105  LEU105      0.0311
     81  CG        35.0300  -24.5220  -33.9490 C.3   105  LEU105      0.0022
     82  CD1       34.2970  -24.5780  -35.2800 C.3   105  LEU105      0.0001
     83  CD2       36.4250  -25.1090  -34.0800 C.3   105  LEU105      0.0001
     84  N         32.0580  -24.0950  -32.5590 N.am  106  MET106     -0.1977
     85  CA        31.3560  -25.0810  -31.7460 C.3   106  MET106      0.1605
     86  C         31.7820  -26.4860  -32.1710 C.2   106  MET106      0.2287
     87  O         31.3780  -26.9600  -33.2330 O.2   106  MET106     -0.2864
     88  CB        29.8410  -24.9100  -31.8830 C.3   106  MET106      0.0413
     89  CG        29.3470  -23.4990  -31.5820 C.3   106  MET106      0.0598
     90  SD        29.8020  -22.9190  -29.9380 S.3   106  MET106     -0.1393
     91  CE        29.4350  -21.1720  -30.0650 C.3   106  MET106      0.0692
     92  N         29.3470  -28.9900  -33.5400 N.3   109  GLY109     -0.1210
     93  CA        28.6440  -28.4320  -34.6820 C.3   109  GLY109      0.1956
     94  C         27.1340  -28.5850  -34.6900 C.2   109  GLY109      0.2612
     95  O         26.4780  -28.5050  -33.6520 O.2   109  GLY109     -0.2717
     96  N         26.5950  -28.7950  -35.8870 N.am  110  CYS110     -0.1970
     97  CA        25.1560  -28.8940  -36.1290 C.3   110  CYS110      0.1712
     98  C         24.4590  -29.8910  -35.1970 C.2   110  CYS110      0.2296
     99  O         24.9860  -30.9690  -34.9250 O.2   110  CYS110     -0.2864
    100  CB        24.9150  -29.2800  -37.5920 C.3   110  CYS110      0.0983
    101  SG        23.1970  -29.2270  -38.1420 S.3   110  CYS110     -0.0798
    102  N         23.0400  -33.0150  -37.2330 N.3   113  ASP113     -0.1239
    103  CA        24.1340  -33.9720  -37.3810 C.3   113  ASP113      0.1674
    104  C         24.3600  -34.7740  -36.1040 C.2   113  ASP113      0.2266
    105  O         24.6210  -35.9720  -36.1630 O.2   113  ASP113     -0.2867
    106  CB        25.4210  -33.2550  -37.7780 C.3   113  ASP113      0.1410
    107  CG        25.3860  -32.7280  -39.2010 C.2   113  ASP113      0.3668
    108  OD1       24.4520  -33.0800  -39.9480 O.co2 113  ASP113     -0.2456
    109  OD2       26.2930  -31.9460  -39.5640 O.co2 113  ASP113     -0.2456
    110  N         14.0600  -18.4320  -39.5470 N.3   150  ASP150     -0.1239
    111  CA        14.7070  -19.6370  -40.0560 C.3   150  ASP150      0.1674
    112  C         15.1920  -20.5170  -38.9080 C.2   150  ASP150      0.2266
    113  O         16.3530  -20.9240  -38.8660 O.2   150  ASP150     -0.2867
    114  CB        15.8690  -19.2820  -40.9880 C.3   150  ASP150      0.1410
    115  CG        16.3940  -20.4890  -41.7510 C.2   150  ASP150      0.3668
    116  OD1       15.6140  -21.4390  -41.9750 O.co2 150  ASP150     -0.2456
    117  OD2       17.5850  -20.4880  -42.1270 O.co2 150  ASP150     -0.2456
    118  N         19.0490  -27.5290  -38.2960 N.3   154  ARG154     -0.1231
    119  CA        20.2710  -27.1720  -39.0080 C.3   154  ARG154      0.1694
    120  C         20.9530  -25.9920  -38.3310 C.2   154  ARG154      0.2592
    121  O         22.1800  -25.9460  -38.2220 O.2   154  ARG154     -0.2718
    122  CB        19.9720  -26.8110  -40.4640 C.3   154  ARG154      0.0321
    123  CG        18.9130  -27.6610  -41.1380 C.3   154  ARG154      0.0489
    124  CD        18.5900  -27.0950  -42.5140 C.3   154  ARG154      0.2205
    125  NE        18.1050  -25.7180  -42.4360 N.pl3 154  ARG154     -0.0865
    126  CZ        16.8240  -25.3690  -42.5070 C.cat 154  ARG154      0.5346
    127  NH1       15.8880  -26.2950  -42.6660 N.pl3 154  ARG154      0.1354
    128  NH2       16.4780  -24.0910  -42.4240 N.pl3 154  ARG154      0.1354
    129  N         20.1410  -25.0410  -37.8770 N.am  155  ASN155     -0.1974
    130  CA        20.6490  -23.7720  -37.3720 C.3   155  ASN155      0.1688
    131  C         20.7900  -23.7430  -35.8610 C.2   155  ASN155      0.2292
    132  O         20.9350  -22.6760  -35.2630 O.2   155  ASN155     -0.2864
    133  CB        19.7450  -22.6250  -37.8170 C.3   155  ASN155      0.1181
    134  CG        19.7280  -22.4530  -39.3150 C.2   155  ASN155      0.2629
    135  OD1       20.7400  -22.6580  -39.9830 O.2   155  ASN155     -0.2716
    136  ND2       18.5790  -22.0690  -39.8550 N.am  155  ASN155     -0.0877
    137  N         23.3910  -24.9430  -33.1780 N.3   157  LEU157     -0.1245
    138  CA        24.7220  -25.4890  -33.0690 C.3   157  LEU157      0.1561
    139  C         24.9010  -26.1200  -31.7150 C.2   157  LEU157      0.2260
    140  O         24.3210  -25.6930  -30.7170 O.2   157  LEU157     -0.2867
    141  CB        25.7860  -24.4130  -33.2910 C.3   157  LEU157      0.0270
    142  CG        25.8710  -23.8350  -34.7000 C.3   157  LEU157      0.0019
    143  CD1       26.9090  -22.7270  -34.7570 C.3   157  LEU157      0.0001
    144  CD2       26.2120  -24.9420  -35.6840 C.3   157  LEU157      0.0001
    145  N         21.8350  -19.8250  -34.0830 N.3   167  THR167     -0.1203
    146  CA        22.6450  -18.9990  -34.9740 C.3   167  THR167      0.1994
    147  C         22.0080  -18.6890  -36.3320 C.2   167  THR167      0.2617
    148  O         20.7870  -18.7670  -36.4830 O.2   167  THR167     -0.2717
    149  CB        24.0150  -19.6550  -35.2200 C.3   167  THR167      0.1784
    150  OG1       24.7950  -18.8150  -36.0800 O.3   167  THR167     -0.2211
    151  CG2       23.8430  -21.0170  -35.8790 C.3   167  THR167      0.0376
    152  N         22.8690  -18.3000  -37.2760 N.am  168  ASP168     -0.1973
    153  CA        22.5730  -18.0350  -38.6890 C.3   168  ASP168      0.1709
    154  C         22.2080  -16.5620  -38.8300 C.2   168  ASP168      0.2293
    155  O         23.0550  -15.7480  -39.2010 O.2   168  ASP168     -0.2864
    156  CB        21.4530  -18.9160  -39.2660 C.3   168  ASP168      0.1436
    157  CG        21.3520  -18.8030  -40.7810 C.2   168  ASP168      0.3671
    158  OD1       22.3370  -18.3620  -41.4100 O.co2 168  ASP168     -0.2456
    159  OD2       20.2860  -19.1370  -41.3420 O.co2 168  ASP168     -0.2456
@<TRIPOS>BOND
     1    13    14    1
     2    14    15    1
     3    14    17    1
     4    16    15    2
     5    17    18    1
     6    19    18   ar
     7    19    21   ar
     8    18    20   ar
     9    21    23   ar
    10    20    22   ar
    11    23    22   ar
    12    11    12    2
    13    11    10    1
    14    24    25    1
    15    10     9    1
    16     9     3   am
    17    38    39    2
    18    38    37    1
    19    27    26    2
    20    25    26    1
    21    25    28    1
    22    43    44    1
    23    43    42    1
    24     3     4    2
    25     3     2    1
    26     1     2    1
    27    41    42    1
    28    41    40    1
    29    30    28    1
    30    53    51   ar
    31    37    40    1
    32    37    36    1
    33    28    29    1
    34   127   126    1
    35   124   125    1
    36   124   123    1
    37   126   125    2
    38   126   128    1
    39     2     5    1
    40   117   115   ar
    41   116   115   ar
    42   115   114    1
    43    51    52   ar
    44    51    50    1
    45   158   157   ar
    46    49    50    1
    47    49    46    1
    48   159   157   ar
    49    45    46    1
    50   123   122    1
    51     5     6    1
    52   114   111    1
    53   157   156    1
    54    46    47    1
    55   122   119    1
    56     6     8    1
    57     6     7    1
    58   111   110    1
    59   111   112    1
    60   135   134    2
    61   108   107   ar
    62   136   134   am
    63   109   107   ar
    64    47    48    2
    65   134   133    1
    66   156   153    1
    67   107   106    1
    68   155   154    2
    69   119   120    1
    70   119   118    1
    71   112   113    2
    72   154   153    1
    73   153   152    1
    74    33    34    2
    75    33    32    1
    76   120   121    2
    77   120   129   am
    78   101   100    1
    79   129   130    1
    80   133   130    1
    81   106   103    1
    82   100    97    1
    83    32    35    1
    84    32    31    1
    85   103   102    1
    86   103   104    1
    87   130   131    1
    88   152   147   am
    89   148   147    2
    90   147   146    1
    91   105   104    2
    92    97    96    1
    93    97    98    1
    94   150   149    1
    95    60    61    1
    96    96    94   am
    97   151   149    1
    98   131   132    2
    99   144   142    1
   100    66    64    1
   101    65    64    1
   102    82    81    1
   103   149   146    1
   104    98    99    2
   105   146   145    1
   106    64    61    1
   107   143   142    1
   108   142   141    1
   109    94    93    1
   110    94    95    2
   111    93    92    1
   112    61    62    1
   113    63    62    2
   114    83    81    1
   115    81    80    1
   116    62    67   am
   117    80    77    1
   118   141   138    1
   119    87    86    2
   120   137   138    1
   121   138   139    1
   122    77    76    1
   123    77    78    1
   124    67    68    1
   125    70    69    2
   126    84    78   am
   127    84    85    1
   128    76    69   am
   129    69    68    1
   130    86    85    1
   131    59    58    1
   132    78    79    2
   133    88    85    1
   134    88    89    1
   135    68    71    1
   136   139   140    2
   137    58    55    1
   138    57    56    2
   139    89    90    1
   140    56    55    1
   141    55    54    1
   142    71    72    1
   143    91    90    1
   144    72    73    1
   145    73    74    2
   146    73    75   am
