@<TRIPOS>MOLECULE
tmp/4rj3A00.pdb
 164 158 0 0 0
SMALL
GASTEIGER

@<TRIPOS>ATOM
      1  N          0.2080  -22.8320   39.2170 N.3    10  ILE10      -0.1231
      2  CA        -0.7560  -23.2370   40.2500 C.3    10  ILE10       0.1692
      3  C         -0.6730  -22.3140   41.4480 C.2    10  ILE10       0.2593
      4  O         -1.6920  -21.8460   41.9590 O.2    10  ILE10      -0.2718
      5  CB        -0.4950  -24.6830   40.7500 C.3    10  ILE10       0.0266
      6  CG1       -0.9160  -25.6860   39.6840 C.3    10  ILE10       0.0019
      7  CG2       -1.2290  -24.9520   42.0670 C.3    10  ILE10       0.0020
      8  CD1       -0.4910  -27.1070   39.9740 C.3    10  ILE10       0.0001
      9  N          0.5440  -22.0890   41.9260 N.am   11  GLY11      -0.1942
     10  CA         0.7420  -21.2340   43.0710 C.3    11  GLY11       0.2014
     11  C          2.1890  -21.1300   43.4840 C.2    11  GLY11       0.2639
     12  O          3.1110  -21.5870   42.7750 O.2    11  GLY11      -0.2714
     13  N          2.3740  -20.5070   44.6420 N.am   12  GLU12      -0.1963
     14  CA         3.6730  -20.3520   45.2630 C.3    12  GLU12       0.1733
     15  C          3.6610  -21.1280   46.5590 C.2    12  GLU12       0.2617
     16  O          2.8920  -20.8200   47.4630 O.2    12  GLU12      -0.2715
     17  CB         3.9540  -18.8720   45.5070 C.3    12  GLU12       0.0429
     18  CG         3.8720  -18.0480   44.2250 C.3    12  GLU12       0.1163
     19  CD         3.9780  -16.5530   44.4480 C.2    12  GLU12       0.3649
     20  OE1        4.5900  -15.8850   43.5870 O.co2  12  GLU12      -0.2457
     21  OE2        3.4490  -16.0450   45.4620 O.co2  12  GLU12      -0.2457
     22  N          4.4870  -22.1690   46.6340 N.am   13  GLY13      -0.1940
     23  CA         4.5980  -22.9560   47.8360 C.3    13  GLY13       0.2014
     24  C          5.5590  -22.3330   48.8370 C.2    13  GLY13       0.2639
     25  O          6.0410  -21.2090   48.6520 O.2    13  GLY13      -0.2714
     26  N          5.8090  -23.0540   49.9250 N.am   14  THR14      -0.1950
     27  CA         6.8090  -22.6430   50.9230 C.3    14  THR14       0.1897
     28  C          8.2160  -22.5400   50.3320 C.2    14  THR14       0.2313
     29  O          8.9430  -21.5880   50.5960 O.2    14  THR14      -0.2863
     30  CB         6.8330  -23.6220   52.1190 C.3    14  THR14       0.1794
     31  OG1        5.4960  -23.8330   52.5890 O.3    14  THR14      -0.2208
     32  CG2        7.6860  -23.0830   53.2540 C.3    14  THR14       0.0378
     33  N          4.9530  -23.7050   41.9460 N.3    18  VAL18      -0.1245
     34  CA         4.2940  -24.9420   41.5190 C.3    18  VAL18       0.1561
     35  C          3.5750  -24.6800   40.1960 C.2    18  VAL18       0.2260
     36  O          2.7860  -23.7400   40.1000 O.2    18  VAL18      -0.2867
     37  CB         3.2760  -25.4260   42.5580 C.3    18  VAL18       0.0252
     38  CG1        2.6720  -26.7740   42.1470 C.3    18  VAL18       0.0019
     39  CG2        3.9130  -25.5500   43.9300 C.3    18  VAL18       0.0019
     40  N          1.7760  -31.9940   38.7770 N.3    31  ALA31      -0.1245
     41  CA         2.1260  -30.7480   39.4500 C.3    31  ALA31       0.1562
     42  C          3.6260  -30.7500   39.6350 C.2    31  ALA31       0.2260
     43  O          4.1820  -31.6420   40.2600 O.2    31  ALA31      -0.2867
     44  CB         1.4140  -30.6230   40.7820 C.3    31  ALA31       0.0290
     45  N         -0.5580  -37.2770   48.5750 N.3    56  VAL56      -0.1245
     46  CA        -0.2950  -36.9220   47.2030 C.3    56  VAL56       0.1561
     47  C          0.9290  -37.6780   46.7110 C.2    56  VAL56       0.2260
     48  O          1.9730  -37.6130   47.3260 O.2    56  VAL56      -0.2867
     49  CB        -0.0910  -35.4030   47.0560 C.3    56  VAL56       0.0252
     50  CG1        0.2030  -35.0340   45.6170 C.3    56  VAL56       0.0019
     51  CG2       -1.3450  -34.6710   47.5060 C.3    56  VAL56       0.0019
     52  N          4.7340  -34.2960   41.2430 N.3    72  PHE72      -0.1227
     53  CA         3.6320  -34.8400   42.0240 C.3    72  PHE72       0.1736
     54  C          2.4480  -35.1530   41.1410 C.2    72  PHE72       0.2595
     55  O          2.2340  -34.5140   40.1090 O.2    72  PHE72      -0.2718
     56  CB         3.1390  -33.8110   43.0480 C.3    72  PHE72       0.0547
     57  CG         4.1270  -33.4880   44.1150 C.ar   72  PHE72      -0.0202
     58  CD1        4.3180  -34.3530   45.1860 C.ar   72  PHE72      -0.0042
     59  CD2        4.8370  -32.2970   44.0830 C.ar   72  PHE72      -0.0042
     60  CE1        5.2250  -34.0470   46.1820 C.ar   72  PHE72      -0.0003
     61  CE2        5.7340  -31.9870   45.0850 C.ar   72  PHE72      -0.0003
     62  CZ         5.9350  -32.8700   46.1240 C.ar   72  PHE72      -0.0000
     63  N          1.6030  -36.0720   41.5990 N.am   73  GLU73      -0.1965
     64  CA         0.2880  -36.2130   40.9980 C.3    73  GLU73       0.1733
     65  C         -0.4480  -34.8650   41.0880 C.2    73  GLU73       0.2616
     66  O         -0.2780  -34.1230   42.0480 O.2    73  GLU73      -0.2715
     67  CB        -0.5250  -37.3420   41.6850 C.3    73  GLU73       0.0429
     68  CG        -1.5360  -36.8790   42.7150 C.3    73  GLU73       0.1163
     69  CD        -2.2870  -38.0120   43.3840 C.2    73  GLU73       0.3649
     70  OE1       -3.4430  -38.2740   42.9860 O.co2  73  GLU73      -0.2457
     71  OE2       -1.7370  -38.6230   44.3190 O.co2  73  GLU73      -0.2457
     72  N         -1.2340  -34.5540   40.0620 N.am   74  PHE74      -0.1960
     73  CA        -2.0260  -33.3510   40.0070 C.3    74  PHE74       0.1771
     74  C         -3.4190  -33.5600   40.5990 C.2    74  PHE74       0.2619
     75  O         -4.1130  -34.5360   40.2810 O.2    74  PHE74      -0.2715
     76  CB        -2.1550  -32.8710   38.5570 C.3    74  PHE74       0.0574
     77  CG        -2.9720  -31.6310   38.4120 C.ar   74  PHE74      -0.0200
     78  CD1       -4.2830  -31.6860   37.9610 C.ar   74  PHE74      -0.0042
     79  CD2       -2.4310  -30.4020   38.7400 C.ar   74  PHE74      -0.0042
     80  CE1       -5.0360  -30.5390   37.8380 C.ar   74  PHE74      -0.0003
     81  CE2       -3.1730  -29.2480   38.6030 C.ar   74  PHE74      -0.0003
     82  CZ        -4.4810  -29.3120   38.1610 C.ar   74  PHE74      -0.0000
     83  N         -3.8120  -32.6540   41.4860 N.am   75  LEU75      -0.1963
     84  CA        -5.1890  -32.5750   41.9530 C.3    75  LEU75       0.1728
     85  C         -5.6980  -31.1860   41.6000 C.2    75  LEU75       0.2616
     86  O         -4.9200  -30.2270   41.5500 O.2    75  LEU75      -0.2715
     87  CB        -5.3060  -32.8500   43.4530 C.3    75  LEU75       0.0311
     88  CG        -5.2080  -34.3260   43.8500 C.3    75  LEU75       0.0022
     89  CD1       -3.8030  -34.6650   44.3180 C.3    75  LEU75       0.0001
     90  CD2       -6.2360  -34.6820   44.9210 C.3    75  LEU75       0.0001
     91  N         -6.9980  -31.0640   41.3930 N.am   76  HIS76      -0.1959
     92  CA        -7.5460  -29.8610   40.7620 C.3    76  HIS76       0.1787
     93  C         -7.8080  -28.6960   41.7310 C.2    76  HIS76       0.2620
     94  O         -7.9130  -27.5630   41.2920 O.2    76  HIS76      -0.2715
     95  CB        -8.8110  -30.2050   39.9490 C.3    76  HIS76       0.0785
     96  CG        -8.5300  -30.8700   38.6290 C.ar   76  HIS76       0.0821
     97  ND1       -8.2050  -32.2060   38.5170 N.ar   76  HIS76      -0.2267
     98  CD2       -8.5380  -30.3810   37.3650 C.ar   76  HIS76       0.1154
     99  CE1       -8.0160  -32.5100   37.2460 C.ar   76  HIS76       0.1986
    100  NE2       -8.2200  -31.4230   36.5230 N.ar   76  HIS76      -0.2212
    101  N         -7.9060  -28.9550   43.0440 N.am   77  GLN77      -0.1963
    102  CA        -8.1940  -27.8700   44.0020 C.3    77  GLN77       0.1733
    103  C         -7.6500  -28.1400   45.4060 C.2    77  GLN77       0.2616
    104  O         -7.5180  -29.2890   45.7920 O.2    77  GLN77      -0.2715
    105  CB        -9.7080  -27.6520   44.0660 C.3    77  GLN77       0.0408
    106  CG       -10.1650  -26.5040   44.9410 C.3    77  GLN77       0.0908
    107  CD       -11.5620  -26.0450   44.5860 C.2    77  GLN77       0.2608
    108  OE1      -11.7710  -25.4150   43.5490 O.2    77  GLN77      -0.2717
    109  NE2      -12.5220  -26.3610   45.4320 N.am   77  GLN77      -0.0878
    110  N         -7.3620  -27.0810   46.1620 N.am   78  ASP78      -0.1971
    111  CA        -7.0230  -27.2100   47.5850 C.3    78  ASP78       0.1709
    112  C         -8.2140  -26.9210   48.4990 C.2    78  ASP78       0.2293
    113  O         -9.2350  -26.3410   48.0750 O.2    78  ASP78      -0.2864
    114  CB        -5.8000  -26.3610   47.9670 C.3    78  ASP78       0.1436
    115  CG        -6.0910  -24.8660   48.0200 C.2    78  ASP78       0.3671
    116  OD1       -7.1090  -24.4070   47.4600 O.co2  78  ASP78      -0.2456
    117  OD2       -5.2540  -24.1490   48.6020 O.co2  78  ASP78      -0.2456
    118  N         -9.3660  -23.0820   49.0610 N.3    81  LYS81      -0.1245
    119  CA       -10.2860  -22.5630   48.0480 C.3    81  LYS81       0.1561
    120  C        -11.7030  -23.1120   48.2150 C.2    81  LYS81       0.2260
    121  O        -12.6730  -22.3730   48.0840 O.2    81  LYS81      -0.2867
    122  CB        -9.7720  -22.8410   46.6270 C.3    81  LYS81       0.0271
    123  CG       -10.5210  -22.0540   45.5630 C.3    81  LYS81       0.0035
    124  CD       -10.1480  -22.4850   44.1530 C.3    81  LYS81       0.0206
    125  CE       -11.1360  -21.9320   43.1350 C.3    81  LYS81       0.1093
    126  NZ       -10.9470  -22.5150   41.7780 N.3    81  LYS81      -0.1314
    127  N         -4.0710  -25.1000   52.6920 N.3   123  GLN123     -0.1231
    128  CA        -3.4110  -24.9360   51.3980 C.3   123  GLN123      0.1698
    129  C         -2.6120  -26.1440   50.9170 C.2   123  GLN123      0.2592
    130  O         -2.3040  -26.2060   49.7170 O.2   123  GLN123     -0.2718
    131  CB        -2.5080  -23.6830   51.4260 C.3   123  GLN123      0.0381
    132  CG        -3.2750  -22.3790   51.6330 C.3   123  GLN123      0.0905
    133  CD        -3.3460  -21.8980   53.0930 C.2   123  GLN123      0.2608
    134  OE1       -3.4410  -22.6880   54.0430 O.2   123  GLN123     -0.2717
    135  NE2       -3.3260  -20.5790   53.2680 N.am  123  GLN123     -0.0878
    136  N         -2.2400  -27.0810   51.8100 N.am  124  ASN124     -0.1974
    137  CA        -1.5960  -28.3260   51.3760 C.3   124  ASN124      0.1688
    138  C         -2.4800  -29.5820   51.5380 C.2   124  ASN124      0.2292
    139  O         -1.9940  -30.7090   51.5200 O.2   124  ASN124     -0.2864
    140  CB        -0.1880  -28.5030   51.9410 C.3   124  ASN124      0.1181
    141  CG        -0.1120  -28.4420   53.4440 C.2   124  ASN124      0.2629
    142  OD1       -1.0130  -28.8910   54.1490 O.2   124  ASN124     -0.2716
    143  ND2        1.0210  -27.9300   53.9490 N.am  124  ASN124     -0.0877
    144  N         -5.4180  -31.3650   49.4730 N.3   126  LEU126     -0.1245
    145  CA        -5.8860  -31.2990   48.0970 C.3   126  LEU126      0.1561
    146  C         -7.0670  -32.2420   47.8740 C.2   126  LEU126      0.2260
    147  O         -7.1110  -33.3310   48.4400 O.2   126  LEU126     -0.2867
    148  CB        -4.7350  -31.5900   47.1390 C.3   126  LEU126      0.0270
    149  CG        -3.4710  -30.7430   47.3530 C.3   126  LEU126      0.0019
    150  CD1       -2.4880  -31.1390   46.2860 C.3   126  LEU126      0.0001
    151  CD2       -3.7420  -29.2520   47.2740 C.3   126  LEU126      0.0001
    152  N         -0.5790  -32.9970   50.9410 N.3   136  ALA136     -0.1231
    153  CA         0.5800  -32.6310   50.1170 C.3   136  ALA136      0.1694
    154  C          1.7570  -32.1460   50.9720 C.2   136  ALA136      0.2592
    155  O          1.5700  -31.7050   52.1130 O.2   136  ALA136     -0.2718
    156  CB         0.1960  -31.5420   49.1400 C.3   136  ALA136      0.0304
    157  N          2.9540  -32.2390   50.3970 N.am  137  ASP137     -0.1974
    158  CA         4.2130  -31.7710   51.0140 C.3   137  ASP137      0.1709
    159  C          4.6470  -32.5610   52.2520 C.2   137  ASP137      0.2293
    160  O          5.4250  -32.0640   53.0720 O.2   137  ASP137     -0.2864
    161  CB         4.1360  -30.2710   51.3530 C.3   137  ASP137      0.1436
    162  CG         4.2140  -29.3870   50.1350 C.2   137  ASP137      0.3671
    163  OD1        4.4020  -29.8800   49.0050 O.co2 137  ASP137     -0.2456
    164  OD2        4.1090  -28.1610   50.3210 O.co2 137  ASP137     -0.2456
@<TRIPOS>BOND
     1   100    99   ar
     2   100    98   ar
     3    99    97   ar
     4    98    96   ar
     5    80    78   ar
     6    80    82   ar
     7    78    77   ar
     8    82    81   ar
     9    77    76    1
    10    77    79   ar
    11    97    96   ar
    12    76    73    1
    13    81    79   ar
    14    96    95    1
    15    40    41    1
    16     1     2    1
    17    41    42    1
    18    41    44    1
    19    42    43    2
    20     6     8    1
    21     6     5    1
    22    95    92    1
    23    73    72    1
    24    73    74    1
    25    72    65   am
    26    36    35    2
    27    55    54    2
    28    35    34    1
    29     2     5    1
    30     2     3    1
    31    75    74    2
    32    74    83   am
    33     5     7    1
    34    92    91    1
    35    92    93    1
    36    64    65    1
    37    64    63    1
    38    64    67    1
    39    65    66    2
    40    54    63   am
    41    54    53    1
    42    52    53    1
    43    94    93    2
    44    91    85   am
    45     3     9   am
    46     3     4    2
    47    83    84    1
    48    34    33    1
    49    34    37    1
    50    86    85    2
    51    85    84    1
    52    67    68    1
    53    93   101   am
    54   126   125    1
    55     9    10    1
    56    84    87    1
    57    53    56    1
    58    38    37    1
    59    37    39    1
    60    68    69    1
    61    12    11    2
    62    70    69   ar
    63   101   102    1
    64    56    57    1
    65    10    11    1
    66   125   124    1
    67    69    71   ar
    68    87    88    1
    69    11    13   am
    70   108   107    2
    71    20    19   ar
    72    88    89    1
    73    88    90    1
    74   102   105    1
    75   102   103    1
    76   105   106    1
    77    59    57   ar
    78    59    61   ar
    79    57    58   ar
    80   124   123    1
    81    18    19    1
    82    18    17    1
    83    19    21   ar
    84   107   106    1
    85   107   109   am
    86    13    14    1
    87    61    62   ar
    88    58    60   ar
    89    14    17    1
    90    14    15    1
    91   103   104    2
    92   103   110   am
    93   123   122    1
    94    50    49    1
    95    62    60   ar
    96   110   111    1
    97   150   149    1
    98    15    22   am
    99    15    16    2
   100   122   119    1
   101    22    23    1
   102    47    46    1
   103    47    48    2
   104    49    46    1
   105    49    51    1
   106   148   149    1
   107   148   145    1
   108    46    45    1
   109   151   149    1
   110   116   115   ar
   111   111   114    1
   112   111   112    1
   113    23    24    1
   114   146   145    1
   115   146   147    2
   116   114   115    1
   117   115   117   ar
   118   119   120    1
   119   119   118    1
   120   113   112    2
   121   121   120    2
   122   145   144    1
   123    25    24    2
   124    24    26   am
   125   163   162   ar
   126   156   153    1
   127   130   129    2
   128    26    27    1
   129   153   152    1
   130   153   154    1
   131   162   164   ar
   132   162   161    1
   133    28    29    2
   134    28    27    1
   135   157   154   am
   136   157   158    1
   137   129   128    1
   138   129   136   am
   139    27    30    1
   140   154   155    2
   141   158   161    1
   142   158   159    1
   143   137   138    1
   144   137   136    1
   145   137   140    1
   146   128   131    1
   147   128   127    1
   148   131   132    1
   149   139   138    2
   150   132   133    1
   151   140   141    1
   152    30    31    1
   153    30    32    1
   154   159   160    2
   155   133   135   am
   156   133   134    2
   157   141   143   am
   158   141   142    2
