@<TRIPOS>MOLECULE
tmp/4rj5A00.pdb
 165 156 0 0 0
SMALL
GASTEIGER

@<TRIPOS>ATOM
      1  N        -46.3690    4.6800  -19.3150 N.3    22  LEU22      -0.1231
      2  CA       -47.0880    3.6000  -18.6350 C.3    22  LEU22       0.1693
      3  C        -46.2540    2.3140  -18.6240 C.2    22  LEU22       0.2593
      4  O        -46.2160    1.6200  -17.6070 O.2    22  LEU22      -0.2718
      5  CB       -48.4690    3.3470  -19.2650 C.3    22  LEU22       0.0284
      6  CG       -49.5120    4.4550  -19.1510 C.3    22  LEU22       0.0019
      7  CD1      -50.5520    4.3220  -20.2350 C.3    22  LEU22       0.0001
      8  CD2      -50.1790    4.4540  -17.7930 C.3    22  LEU22       0.0001
      9  N        -45.5900    2.0260  -19.7440 N.am   23  GLY23      -0.1942
     10  CA       -44.7460    0.8470  -19.9000 C.3    23  GLY23       0.2014
     11  C        -44.0500    0.7620  -21.2400 C.2    23  GLY23       0.2639
     12  O        -44.6000    1.1870  -22.2580 O.2    23  GLY23      -0.2714
     13  N        -42.8330    0.2030  -21.2440 N.am   24  SER24      -0.1949
     14  CA       -42.0090    0.0310  -22.4430 C.3    24  SER24       0.1924
     15  C        -41.5810   -1.4280  -22.5980 C.2    24  SER24       0.2314
     16  O        -41.3330   -2.1050  -21.5980 O.2    24  SER24      -0.2863
     17  CB       -40.7820    0.9380  -22.3790 C.3    24  SER24       0.2116
     18  OG       -40.0090    0.8660  -23.5660 O.3    24  SER24      -0.2180
     19  N        -42.0440   -3.6470  -28.5890 N.3    27  PHE27      -0.1241
     20  CA       -42.7960   -2.8110  -29.5330 C.3    27  PHE27       0.1605
     21  C        -42.2550   -1.3710  -29.6190 C.2    27  PHE27       0.2264
     22  O        -42.1450   -0.8080  -30.7130 O.2    27  PHE27      -0.2867
     23  CB       -44.2970   -2.7920  -29.1410 C.3    27  PHE27       0.0534
     24  CG       -44.5750   -2.4910  -27.6810 C.ar   27  PHE27      -0.0203
     25  CD1      -44.7620   -1.1830  -27.2450 C.ar   27  PHE27      -0.0042
     26  CD2      -44.6490   -3.5160  -26.7430 C.ar   27  PHE27      -0.0042
     27  CE1      -44.9810   -0.9040  -25.8940 C.ar   27  PHE27      -0.0003
     28  CE2      -44.8810   -3.2370  -25.3930 C.ar   27  PHE27      -0.0003
     29  CZ       -45.0540   -1.9340  -24.9790 C.ar   27  PHE27      -0.0000
     30  N        -45.5600    2.8470  -24.6210 N.3    30  VAL30      -0.1245
     31  CA       -46.9560    3.2800  -24.4610 C.3    30  VAL30       0.1561
     32  C        -47.0040    4.3600  -23.3690 C.2    30  VAL30       0.2260
     33  O        -46.5510    4.1230  -22.2480 O.2    30  VAL30      -0.2867
     34  CB       -47.9280    2.0920  -24.1780 C.3    30  VAL30       0.0252
     35  CG1      -49.3370    2.5820  -23.8450 C.3    30  VAL30       0.0019
     36  CG2      -47.9740    1.1240  -25.3570 C.3    30  VAL30       0.0019
     37  N        -54.0600    6.9540  -24.4260 N.3    47  ALA47      -0.1245
     38  CA       -52.9400    6.0300  -24.4340 C.3    47  ALA47       0.1562
     39  C        -52.2800    6.2270  -25.8110 C.2    47  ALA47       0.2260
     40  O        -52.9390    6.0580  -26.8460 O.2    47  ALA47      -0.2867
     41  CB       -53.4340    4.6070  -24.2800 C.3    47  ALA47       0.0290
     42  N        -49.2970    5.0680  -28.3300 N.3    49  LYS49      -0.1245
     43  CA       -48.3590    3.9780  -28.6330 C.3    49  LYS49       0.1561
     44  C        -47.4390    4.3320  -29.8200 C.2    49  LYS49       0.2260
     45  O        -47.9140    4.3560  -30.9570 O.2    49  LYS49      -0.2867
     46  CB       -49.1400    2.6750  -28.9080 C.3    49  LYS49       0.0271
     47  CG       -48.2760    1.4550  -29.2220 C.3    49  LYS49       0.0035
     48  CD       -49.0880    0.3780  -29.9150 C.3    49  LYS49       0.0206
     49  CE       -48.3000   -0.8900  -30.1030 C.3    49  LYS49       0.1093
     50  NZ       -49.1210   -1.9620  -30.7220 N.3    49  LYS49      -0.1314
     51  N        -52.4750   -2.0560  -37.8540 N.3    62  GLU62      -0.1245
     52  CA       -53.1960   -2.1120  -36.5800 C.3    62  GLU62       0.1567
     53  C        -54.1660   -0.9380  -36.5410 C.2    62  GLU62       0.2260
     54  O        -55.3300   -1.1370  -36.1920 O.2    62  GLU62      -0.2867
     55  CB       -52.2180   -2.0660  -35.3920 C.3    62  GLU62       0.0388
     56  CG       -52.8200   -2.4870  -34.0590 C.3    62  GLU62       0.1160
     57  CD       -51.9260   -2.3500  -32.8370 C.2    62  GLU62       0.3649
     58  OE1      -50.7900   -1.8380  -32.9700 O.co2  62  GLU62      -0.2457
     59  OE2      -52.3670   -2.7620  -31.7400 O.co2  62  GLU62      -0.2457
     60  N        -58.2610   -1.1030  -36.1990 N.3    66  MET66      -0.1245
     61  CA       -58.7700   -0.3480  -35.0480 C.3    66  MET66       0.1570
     62  C        -59.7390    0.7610  -35.4010 C.2    66  MET66       0.2261
     63  O        -60.6640    1.0210  -34.6330 O.2    66  MET66      -0.2867
     64  CB       -57.6260    0.2260  -34.2220 C.3    66  MET66       0.0387
     65  CG       -57.0400   -0.7570  -33.2870 C.3    66  MET66       0.0595
     66  SD       -56.3510    0.0490  -31.8370 S.3    66  MET66      -0.1393
     67  CE       -55.2190   -1.2600  -31.3100 C.3    66  MET66       0.0692
     68  N        -61.6970   -1.6810  -28.1220 N.3    75  CYS75      -0.1235
     69  CA       -60.9700   -0.4050  -28.0810 C.3    75  CYS75       0.1677
     70  C        -60.9430    0.2400  -29.4640 C.2    75  CYS75       0.2270
     71  O        -60.4900   -0.3830  -30.4300 O.2    75  CYS75      -0.2867
     72  CB       -59.5540   -0.5880  -27.5400 C.3    75  CYS75       0.0956
     73  SG       -59.4740   -1.3160  -25.8860 S.3    75  CYS75      -0.0801
     74  N        -55.1570    6.2820  -28.6120 N.3    90  MET90      -0.1230
     75  CA       -56.2850    5.4480  -28.2100 C.3    90  MET90       0.1702
     76  C        -56.8460    5.8650  -26.8670 C.2    90  MET90       0.2592
     77  O        -56.2200    6.6480  -26.1600 O.2    90  MET90      -0.2718
     78  CB       -55.8520    3.9810  -28.1440 C.3    90  MET90       0.0401
     79  CG       -55.0910    3.5100  -29.3610 C.3    90  MET90       0.0596
     80  SD       -53.8670    2.2980  -28.8780 S.3    90  MET90      -0.1393
     81  CE       -54.9170    0.9520  -28.6500 C.3    90  MET90       0.0692
     82  N        -58.0370    5.3490  -26.5230 N.am   91  GLN91      -0.1966
     83  CA       -58.7000    5.6280  -25.2530 C.3    91  GLN91       0.1733
     84  C        -57.8860    5.0410  -24.0980 C.2    91  GLN91       0.2616
     85  O        -57.5190    3.8630  -24.1450 O.2    91  GLN91      -0.2715
     86  CB       -60.1160    5.0290  -25.2560 C.3    91  GLN91       0.0408
     87  CG       -60.8600    5.2000  -23.9360 C.3    91  GLN91       0.0908
     88  CD       -62.1170    4.3890  -23.8440 C.2    91  GLN91       0.2608
     89  OE1      -62.2230    3.2860  -24.3880 O.2    91  GLN91      -0.2717
     90  NE2      -63.0750    4.8940  -23.0850 N.am   91  GLN91      -0.0878
     91  N        -57.6070    5.8600  -23.0640 N.am   92  LEU92      -0.1963
     92  CA       -56.9000    5.3840  -21.8820 C.3    92  LEU92       0.1728
     93  C        -57.8340    4.4770  -21.0880 C.2    92  LEU92       0.2616
     94  O        -58.9680    4.8580  -20.7850 O.2    92  LEU92      -0.2715
     95  CB       -56.4050    6.5450  -21.0050 C.3    92  LEU92       0.0311
     96  CG       -55.5910    6.1530  -19.7630 C.3    92  LEU92       0.0022
     97  CD1      -54.0980    6.1110  -20.0660 C.3    92  LEU92       0.0001
     98  CD2      -55.8520    7.1110  -18.6250 C.3    92  LEU92       0.0001
     99  N        -57.3610    3.2610  -20.8140 N.am   93  MET93      -0.1964
    100  CA       -58.0310    2.2320  -20.0180 C.3    93  MET93       0.1722
    101  C        -57.2610    2.2950  -18.6950 C.2    93  MET93       0.2458
    102  O        -56.1420    1.7810  -18.6190 O.2    93  MET93      -0.2730
    103  CB       -57.9280    0.8710  -20.7280 C.3    93  MET93       0.0427
    104  CG       -58.5580    0.8720  -22.1300 C.3    93  MET93       0.0599
    105  SD       -60.3490    1.1670  -22.1480 S.3    93  MET93      -0.1393
    106  CE       -60.9130   -0.4270  -21.7840 C.3    93  MET93       0.0692
    107  N        -57.7720    3.0960  -17.7180 N.am   94  PRO94      -0.2716
    108  CA       -56.9800    3.4230  -16.5220 C.3    94  PRO94       0.1536
    109  C        -56.4430    2.2850  -15.6720 C.2    94  PRO94       0.2599
    110  O        -55.3710    2.4420  -15.0960 O.2    94  PRO94      -0.2715
    111  CB       -57.9340    4.2930  -15.7040 C.3    94  PRO94       0.0310
    112  CG       -58.8190    4.9130  -16.6940 C.3    94  PRO94       0.0237
    113  CD       -59.0480    3.8420  -17.7100 C.3    94  PRO94       0.0939
    114  N        -57.1660    1.1670  -15.5880 N.am   95  PHE95      -0.1960
    115  CA       -56.7950    0.0400  -14.7340 C.3    95  PHE95       0.1771
    116  C        -55.8900   -1.0140  -15.4120 C.2    95  PHE95       0.2620
    117  O        -55.6080   -2.0630  -14.8150 O.2    95  PHE95      -0.2715
    118  CB       -58.0660   -0.5940  -14.1540 C.3    95  PHE95       0.0574
    119  CG       -58.8760    0.3530  -13.2990 C.ar   95  PHE95      -0.0200
    120  CD1      -59.8180    1.2030  -13.8710 C.ar   95  PHE95      -0.0042
    121  CD2      -58.6920    0.4030  -11.9230 C.ar   95  PHE95      -0.0042
    122  CE1      -60.5550    2.0880  -13.0820 C.ar   95  PHE95      -0.0003
    123  CE2      -59.4360    1.2830  -11.1340 C.ar   95  PHE95      -0.0003
    124  CZ       -60.3610    2.1190  -11.7190 C.ar   95  PHE95      -0.0000
    125  N        -55.4180   -0.7090  -16.6240 N.am   96  GLY96      -0.1940
    126  CA       -54.5540   -1.5940  -17.3930 C.3    96  GLY96       0.2014
    127  C        -55.2650   -2.8390  -17.8740 C.2    96  GLY96       0.2639
    128  O        -56.4880   -2.8370  -18.0220 O.2    96  GLY96      -0.2714
    129  N        -54.5050   -3.9100  -18.1280 N.am   97  CYS97      -0.1967
    130  CA       -55.0720   -5.1600  -18.6290 C.3    97  CYS97       0.1712
    131  C        -55.7300   -5.9940  -17.5310 C.2    97  CYS97       0.2296
    132  O        -55.3670   -5.8830  -16.3530 O.2    97  CYS97      -0.2864
    133  CB       -54.0410   -5.9620  -19.4150 C.3    97  CYS97       0.0983
    134  SG       -52.9220   -6.9390  -18.3860 S.3    97  CYS97      -0.0798
    135  N        -53.3860   -8.6320  -15.3750 N.3   100  ASP100     -0.1239
    136  CA       -52.7320   -8.0280  -14.2260 C.3   100  ASP100      0.1674
    137  C        -53.7570   -7.6330  -13.1730 C.2   100  ASP100      0.2266
    138  O        -53.4850   -7.8010  -11.9850 O.2   100  ASP100     -0.2867
    139  CB       -51.8650   -6.8330  -14.6430 C.3   100  ASP100      0.1410
    140  CG       -50.5980   -7.2230  -15.3830 C.2   100  ASP100      0.3668
    141  OD1      -50.2360   -6.5180  -16.3470 O.co2 100  ASP100     -0.2456
    142  OD2      -49.9540   -8.2250  -14.9830 O.co2 100  ASP100     -0.2456
    143  N        -58.5480   -4.9920  -21.8170 N.3   144  LEU144     -0.1245
    144  CA       -58.2180   -3.8780  -20.9250 C.3   144  LEU144      0.1561
    145  C        -59.4030   -3.4470  -20.0850 C.2   144  LEU144      0.2260
    146  O        -60.5500   -3.5850  -20.5080 O.2   144  LEU144     -0.2867
    147  CB       -57.6470   -2.6860  -21.6920 C.3   144  LEU144      0.0270
    148  CG       -56.3270   -2.8820  -22.4280 C.3   144  LEU144      0.0019
    149  CD1      -56.2300   -1.9080  -23.5570 C.3   144  LEU144      0.0001
    150  CD2      -55.1300   -2.7250  -21.5060 C.3   144  LEU144      0.0001
    151  N        -58.6990   -5.6790  -27.0030 N.3   154  THR154     -0.1203
    152  CA       -57.6790   -4.8790  -27.6790 C.3   154  THR154      0.1994
    153  C        -56.6450   -5.7390  -28.4290 C.2   154  THR154      0.2617
    154  O        -56.7970   -6.9640  -28.5160 O.2   154  THR154     -0.2717
    155  CB       -57.0320   -3.9060  -26.6790 C.3   154  THR154      0.1784
    156  OG1      -56.4400   -2.8340  -27.4070 O.3   154  THR154     -0.2211
    157  CG2      -55.9990   -4.5840  -25.7600 C.3   154  THR154      0.0376
    158  N        -55.5780   -5.0790  -28.9370 N.am  155  ASP155     -0.1973
    159  CA       -54.4430   -5.6620  -29.6480 C.3   155  ASP155      0.1709
    160  C        -54.8590   -6.2930  -30.9710 C.2   155  ASP155      0.2293
    161  O        -55.1180   -7.5010  -31.0620 O.2   155  ASP155     -0.2864
    162  CB       -53.6330   -6.6230  -28.7600 C.3   155  ASP155      0.1436
    163  CG       -52.1790   -6.6930  -29.1460 C.2   155  ASP155      0.3671
    164  OD1      -51.8070   -7.6280  -29.8940 O.co2 155  ASP155     -0.2456
    165  OD2      -51.4090   -5.8060  -28.7130 O.co2 155  ASP155     -0.2456
@<TRIPOS>BOND
     1    51    52    1
     2    52    53    1
     3    52    55    1
     4    53    54    2
     5    60    61    1
     6    62    61    1
     7    62    63    2
     8    55    56    1
     9    61    64    1
    10    64    65    1
    11    56    57    1
    12    65    66    1
    13    58    57   ar
    14    57    59   ar
    15    66    67    1
    16   161   160    2
    17   160   159    1
    18    45    44    2
    19    50    49    1
    20    22    21    2
    21    71    70    2
    22    49    48    1
    23    48    47    1
    24   164   163   ar
    25    44    43    1
    26   159   158    1
    27   159   162    1
    28    21    20    1
    29    20    23    1
    30    20    19    1
    31    70    69    1
    32    79    80    1
    33    79    78    1
    34    47    46    1
    35   163   162    1
    36   163   165   ar
    37    23    24    1
    38   158   153   am
    39    46    43    1
    40    80    81    1
    41    43    42    1
    42    74    75    1
    43   154   153    2
    44   153   152    1
    45    75    78    1
    46    75    76    1
    47    68    69    1
    48    69    72    1
    49    24    25   ar
    50    24    26   ar
    51   152   151    1
    52   152   155    1
    53    72    73    1
    54   156   155    1
    55    25    27   ar
    56    76    82   am
    57    76    77    2
    58    40    39    2
    59    26    28   ar
    60   155   157    1
    61    82    83    1
    62    27    29   ar
    63    39    38    1
    64    28    29   ar
    65    36    34    1
    66    86    83    1
    67    86    87    1
    68    83    84    1
    69    30    31    1
    70    31    34    1
    71    31    32    1
    72    38    37    1
    73    38    41    1
    74    89    88    2
    75    34    35    1
    76    85    84    2
    77    84    91   am
    78    87    88    1
    79    88    90   am
    80    18    17    1
    81   149   148    1
    82    32    33    2
    83    91    92    1
    84    15    14    1
    85    15    16    2
    86    14    17    1
    87    14    13    1
    88   148   147    1
    89   148   150    1
    90    12    11    2
    91   105   104    1
    92   105   106    1
    93   104   103    1
    94    92    93    1
    95    92    95    1
    96   143   144    1
    97   147   144    1
    98    13    11   am
    99    11    10    1
   100    93    99   am
   101    93    94    2
   102    95    96    1
   103   144   145    1
   104    99   100    1
   105   103   100    1
   106   146   145    2
   107     7     6    1
   108    97    96    1
   109   100   101    1
   110    10     9    1
   111    96    98    1
   112     9     3   am
   113   133   130    1
   114   133   134    1
   115     1     2    1
   116     5     6    1
   117     5     2    1
   118     6     8    1
   119   101   102    2
   120   101   107   am
   121     2     3    1
   122   130   129    1
   123   130   131    1
   124     3     4    2
   125   129   127   am
   126   128   127    2
   127   127   126    1
   128   107   113    1
   129   107   108    1
   130   113   112    1
   131   131   132    2
   132   126   125    1
   133   112   111    1
   134   125   116   am
   135   108   111    1
   136   108   109    1
   137   141   140   ar
   138   109   114   am
   139   109   110    2
   140   114   115    1
   141   116   117    2
   142   116   115    1
   143   140   142   ar
   144   140   139    1
   145   135   136    1
   146   115   118    1
   147   139   136    1
   148   136   137    1
   149   118   119    1
   150   120   119   ar
   151   120   122   ar
   152   119   121   ar
   153   137   138    2
   154   122   124   ar
   155   121   123   ar
   156   124   123   ar
