@<TRIPOS>MOLECULE
tmp/4rj7A00.pdb
 169 161 0 0 0
SMALL
GASTEIGER

@<TRIPOS>ATOM
      1  N        -46.4080    4.4810  -19.2150 N.3    22  LEU22      -0.1231
      2  CA       -47.2030    3.4270  -18.5690 C.3    22  LEU22       0.1693
      3  C        -46.4110    2.1120  -18.5520 C.2    22  LEU22       0.2593
      4  O        -46.4220    1.4080  -17.5440 O.2    22  LEU22      -0.2718
      5  CB       -48.5580    3.2260  -19.2620 C.3    22  LEU22       0.0284
      6  CG       -49.6320    4.2540  -18.9640 C.3    22  LEU22       0.0019
      7  CD1      -50.7200    4.2010  -20.0100 C.3    22  LEU22       0.0001
      8  CD2      -50.2180    4.0540  -17.5920 C.3    22  LEU22       0.0001
      9  N        -45.7300    1.8140  -19.6620 N.am   23  GLY23      -0.1942
     10  CA       -44.9240    0.6110  -19.8280 C.3    23  GLY23       0.2014
     11  C        -44.2330    0.4880  -21.1730 C.2    23  GLY23       0.2639
     12  O        -44.5180    1.2400  -22.1110 O.2    23  GLY23      -0.2714
     13  N        -43.3040   -0.4720  -21.2610 N.am   24  SER24      -0.1949
     14  CA       -42.5180   -0.7790  -22.4540 C.3    24  SER24       0.1924
     15  C        -42.4370   -2.2910  -22.6190 C.2    24  SER24       0.2314
     16  O        -42.1630   -3.0020  -21.6480 O.2    24  SER24      -0.2863
     17  CB       -41.1140   -0.1870  -22.3450 C.3    24  SER24       0.2116
     18  OG       -40.4260   -0.6550  -21.1950 O.3    24  SER24      -0.2180
     19  N        -42.7800   -4.2670  -28.4510 N.3    27  PHE27      -0.1241
     20  CA       -43.3650   -3.4450  -29.5150 C.3    27  PHE27       0.1605
     21  C        -42.7680   -2.0240  -29.5110 C.2    27  PHE27       0.2264
     22  O        -42.2900   -1.5500  -30.5470 O.2    27  PHE27      -0.2867
     23  CB       -44.9110   -3.4080  -29.3760 C.3    27  PHE27       0.0534
     24  CG       -45.4250   -3.0020  -28.0090 C.ar   27  PHE27      -0.0203
     25  CD1      -45.7820   -1.6860  -27.7460 C.ar   27  PHE27      -0.0042
     26  CD2      -45.5350   -3.9350  -26.9810 C.ar   27  PHE27      -0.0042
     27  CE1      -46.2120   -1.3040  -26.4730 C.ar   27  PHE27      -0.0003
     28  CE2      -45.9820   -3.5550  -25.7120 C.ar   27  PHE27      -0.0003
     29  CZ       -46.3190   -2.2430  -25.4670 C.ar   27  PHE27      -0.0000
     30  N        -45.9440    2.5540  -24.3040 N.3    30  VAL30      -0.1245
     31  CA       -47.3000    3.0540  -24.0670 C.3    30  VAL30       0.1561
     32  C        -47.1960    4.2140  -23.0850 C.2    30  VAL30       0.2260
     33  O        -46.6620    4.0580  -21.9780 O.2    30  VAL30      -0.2867
     34  CB       -48.3340    2.0260  -23.5180 C.3    30  VAL30       0.0252
     35  CG1      -49.7250    2.3130  -24.0670 C.3    30  VAL30       0.0019
     36  CG2      -47.9210    0.5820  -23.7660 C.3    30  VAL30       0.0019
     37  N        -54.0390    7.0270  -24.3250 N.3    47  ALA47      -0.1245
     38  CA       -52.8970    6.1310  -24.3170 C.3    47  ALA47       0.1562
     39  C        -52.2670    6.3150  -25.6980 C.2    47  ALA47       0.2260
     40  O        -52.9790    6.3380  -26.7130 O.2    47  ALA47      -0.2867
     41  CB       -53.3390    4.6930  -24.1300 C.3    47  ALA47       0.0290
     42  N        -49.4010    4.7820  -28.2380 N.3    49  LYS49      -0.1245
     43  CA       -48.5340    3.6390  -28.5680 C.3    49  LYS49       0.1561
     44  C        -47.5050    4.0110  -29.6760 C.2    49  LYS49       0.2260
     45  O        -47.9120    4.3910  -30.7800 O.2    49  LYS49      -0.2867
     46  CB       -49.4020    2.4410  -29.0190 C.3    49  LYS49       0.0271
     47  CG       -48.6460    1.1390  -29.2690 C.3    49  LYS49       0.0035
     48  CD       -49.5630    0.0860  -29.8620 C.3    49  LYS49       0.0206
     49  CE       -48.8540   -1.2310  -30.0700 C.3    49  LYS49       0.1093
     50  NZ       -49.8100   -2.3770  -30.0570 N.3    49  LYS49      -0.1314
     51  N        -58.1990   -1.0670  -36.0220 N.3    65  MET65      -0.1245
     52  CA       -58.7100   -0.3020  -34.8760 C.3    65  MET65       0.1570
     53  C        -59.6550    0.8420  -35.2860 C.2    65  MET65       0.2261
     54  O        -60.5540    1.1750  -34.5230 O.2    65  MET65      -0.2867
     55  CB       -57.5550    0.2790  -34.0640 C.3    65  MET65       0.0387
     56  CG       -56.8920   -0.6650  -33.1200 C.3    65  MET65       0.0595
     57  SD       -56.2520    0.3680  -31.7710 S.3    65  MET65      -0.1393
     58  CE       -54.6420   -0.3110  -31.5640 C.3    65  MET65       0.0692
     59  N        -55.2720    6.1240  -28.5640 N.3    89  MET89      -0.1230
     60  CA       -56.4910    5.4680  -28.1530 C.3    89  MET89       0.1702
     61  C        -56.9280    5.9210  -26.7800 C.2    89  MET89       0.2592
     62  O        -56.2420    6.7090  -26.1370 O.2    89  MET89      -0.2718
     63  CB       -56.3650    3.9400  -28.2610 C.3    89  MET89       0.0401
     64  CG       -55.2490    3.3410  -27.4560 C.3    89  MET89       0.0596
     65  SD       -54.1920    2.3610  -28.5470 S.3    89  MET89      -0.1393
     66  CE       -52.7110    2.3460  -27.5740 C.3    89  MET89       0.0692
     67  N        -58.1070    5.4660  -26.3690 N.am   90  GLN90      -0.1966
     68  CA       -58.7340    5.7490  -25.0920 C.3    90  GLN90       0.1733
     69  C        -57.8830    5.1570  -23.9660 C.2    90  GLN90       0.2616
     70  O        -57.4420    4.0040  -24.0640 O.2    90  GLN90      -0.2715
     71  CB       -60.1340    5.1150  -25.0760 C.3    90  GLN90       0.0408
     72  CG       -60.9400    5.3900  -23.8250 C.3    90  GLN90       0.0908
     73  CD       -62.1370    4.4950  -23.7280 C.2    90  GLN90       0.2608
     74  OE1      -62.2160    3.4250  -24.3480 O.2    90  GLN90      -0.2717
     75  NE2      -63.0590    4.8820  -22.8860 N.am   90  GLN90      -0.0878
     76  N        -57.6400    5.9530  -22.9070 N.am   91  LEU91      -0.1963
     77  CA       -56.9140    5.4530  -21.7470 C.3    91  LEU91       0.1728
     78  C        -57.8470    4.5610  -20.9390 C.2    91  LEU91       0.2616
     79  O        -58.9500    4.9710  -20.5860 O.2    91  LEU91      -0.2715
     80  CB       -56.3780    6.6070  -20.8910 C.3    91  LEU91       0.0311
     81  CG       -55.6500    6.2410  -19.5990 C.3    91  LEU91       0.0022
     82  CD1      -54.3620    5.4700  -19.8830 C.3    91  LEU91       0.0001
     83  CD2      -55.3670    7.4840  -18.7710 C.3    91  LEU91       0.0001
     84  N        -57.4140    3.3260  -20.6890 N.am   92  MET92      -0.1964
     85  CA       -58.1140    2.3290  -19.8680 C.3    92  MET92       0.1722
     86  C        -57.3940    2.4180  -18.5190 C.2    92  MET92       0.2458
     87  O        -56.2750    1.9310  -18.3890 O.2    92  MET92      -0.2730
     88  CB       -58.0070    0.9760  -20.5580 C.3    92  MET92       0.0427
     89  CG       -58.6400    1.0070  -21.9560 C.3    92  MET92       0.0599
     90  SD       -60.4240    1.3240  -21.9940 S.3    92  MET92      -0.1393
     91  CE       -60.9880   -0.3080  -21.7150 C.3    92  MET92       0.0692
     92  N        -57.9220    3.2350  -17.5730 N.am   93  PRO93      -0.2716
     93  CA       -57.1200    3.5880  -16.3770 C.3    93  PRO93       0.1536
     94  C        -56.6050    2.4590  -15.4890 C.2    93  PRO93       0.2599
     95  O        -55.6510    2.6920  -14.7520 O.2    93  PRO93      -0.2715
     96  CB       -58.0430    4.5140  -15.5710 C.3    93  PRO93       0.0310
     97  CG       -59.1110    4.9330  -16.4950 C.3    93  PRO93       0.0237
     98  CD       -59.2190    3.9520  -17.5980 C.3    93  PRO93       0.0939
     99  N        -57.2330    1.2730  -15.5280 N.am   94  PHE94      -0.1960
    100  CA       -56.8870    0.1690  -14.6420 C.3    94  PHE94       0.1771
    101  C        -55.9770   -0.8990  -15.2660 C.2    94  PHE94       0.2620
    102  O        -55.6790   -1.9060  -14.6120 O.2    94  PHE94      -0.2715
    103  CB       -58.1590   -0.4500  -14.0590 C.3    94  PHE94       0.0574
    104  CG       -58.9640    0.5080  -13.2240 C.ar   94  PHE94      -0.0200
    105  CD1      -59.9200    1.3350  -13.8100 C.ar   94  PHE94      -0.0042
    106  CD2      -58.7670    0.5950  -11.8500 C.ar   94  PHE94      -0.0042
    107  CE1      -60.6420    2.2590  -13.0390 C.ar   94  PHE94      -0.0003
    108  CE2      -59.4770    1.5250  -11.0840 C.ar   94  PHE94      -0.0003
    109  CZ       -60.4150    2.3430  -11.6780 C.ar   94  PHE94      -0.0000
    110  N        -55.5000   -0.6510  -16.4850 N.am   95  GLY95      -0.1940
    111  CA       -54.6020   -1.5600  -17.1960 C.3    95  GLY95       0.2014
    112  C        -55.2770   -2.8290  -17.6440 C.2    95  GLY95       0.2639
    113  O        -56.5070   -2.8730  -17.7430 O.2    95  GLY95      -0.2714
    114  N        -54.4780   -3.8710  -17.9100 N.am   96  CYS96      -0.1967
    115  CA       -54.9890   -5.1380  -18.4200 C.3    96  CYS96       0.1712
    116  C        -55.6470   -5.9950  -17.3410 C.2    96  CYS96       0.2296
    117  O        -55.2760   -5.9400  -16.1720 O.2    96  CYS96      -0.2864
    118  CB       -53.9210   -5.9070  -19.1960 C.3    96  CYS96       0.0983
    119  SG       -52.7080   -6.7610  -18.1570 S.3    96  CYS96      -0.0798
    120  N        -53.3260   -8.4660  -15.0710 N.3    99  ASP99      -0.1239
    121  CA       -52.6800   -7.8770  -13.8970 C.3    99  ASP99       0.1674
    122  C        -53.7170   -7.4780  -12.8620 C.2    99  ASP99       0.2266
    123  O        -53.4650   -7.5970  -11.6630 O.2    99  ASP99      -0.2867
    124  CB       -51.8140   -6.6690  -14.2730 C.3    99  ASP99       0.1410
    125  CG       -50.6720   -6.9600  -15.2320 C.2    99  ASP99       0.3668
    126  OD1      -50.2850   -6.0410  -15.9810 O.co2  99  ASP99      -0.2456
    127  OD2      -50.1460   -8.1030  -15.2130 O.co2  99  ASP99      -0.2456
    128  N        -54.3000  -10.6730  -20.9690 N.3   140  ARG140     -0.1231
    129  CA       -53.3660   -9.5470  -21.1440 C.3   140  ARG140      0.1694
    130  C        -53.8500   -8.5470  -22.2250 C.2   140  ARG140      0.2592
    131  O        -53.3850   -7.4090  -22.2550 O.2   140  ARG140     -0.2718
    132  CB       -51.9500  -10.0600  -21.4930 C.3   140  ARG140      0.0321
    133  CG       -51.7870  -10.4970  -22.9400 C.3   140  ARG140      0.0489
    134  CD       -50.4290  -11.1230  -23.2530 C.3   140  ARG140      0.2205
    135  NE       -50.6470  -12.4350  -23.8750 N.pl3 140  ARG140     -0.0865
    136  CZ       -50.7300  -12.6440  -25.1840 C.cat 140  ARG140      0.5346
    137  NH1      -50.5240  -11.6450  -26.0400 N.pl3 140  ARG140      0.1354
    138  NH2      -50.9740  -13.8610  -25.6510 N.pl3 140  ARG140      0.1354
    139  N        -54.7390   -8.9940  -23.1350 N.am  141  ASN141     -0.1974
    140  CA       -55.2830   -8.1940  -24.2360 C.3   141  ASN141      0.1688
    141  C        -56.7460   -7.7770  -24.0090 C.2   141  ASN141      0.2292
    142  O        -57.4720   -7.4540  -24.9560 O.2   141  ASN141     -0.2864
    143  CB       -55.0810   -8.9110  -25.5690 C.3   141  ASN141      0.1181
    144  CG       -53.6420   -8.9270  -25.9910 C.2   141  ASN141      0.2629
    145  OD1      -52.8490   -8.0360  -25.6510 O.2   141  ASN141     -0.2716
    146  ND2      -53.2800   -9.9120  -26.7900 N.am  141  ASN141     -0.0877
    147  N        -58.5810   -4.9110  -21.6200 N.3   143  LEU143     -0.1245
    148  CA       -58.2990   -3.7240  -20.7990 C.3   143  LEU143      0.1561
    149  C        -59.4530   -3.3470  -19.9090 C.2   143  LEU143      0.2260
    150  O        -60.6090   -3.5970  -20.2510 O.2   143  LEU143     -0.2867
    151  CB       -57.8650   -2.5210  -21.6550 C.3   143  LEU143      0.0270
    152  CG       -56.4870   -2.5800  -22.3050 C.3   143  LEU143      0.0019
    153  CD1      -56.3920   -1.5690  -23.3890 C.3   143  LEU143      0.0001
    154  CD2      -55.3510   -2.4130  -21.2990 C.3   143  LEU143      0.0001
    155  N        -58.6050   -5.5110  -26.8090 N.3   153  THR153     -0.1203
    156  CA       -57.6140   -4.7280  -27.5350 C.3   153  THR153      0.1994
    157  C        -56.5970   -5.6580  -28.2110 C.2   153  THR153      0.2617
    158  O        -56.7540   -6.8840  -28.1600 O.2   153  THR153     -0.2717
    159  CB       -56.9760   -3.6860  -26.6090 C.3   153  THR153      0.1784
    160  OG1      -56.2600   -2.7460  -27.4150 O.3   153  THR153     -0.2211
    161  CG2      -56.0580   -4.3090  -25.5710 C.3   153  THR153      0.0376
    162  N        -55.5350   -5.0590  -28.7820 N.am  154  ASP154     -0.1973
    163  CA       -54.4090   -5.6700  -29.4790 C.3   154  ASP154      0.1709
    164  C        -54.8520   -6.3430  -30.8000 C.2   154  ASP154      0.2293
    165  O        -55.0420   -7.5590  -30.8950 O.2   154  ASP154     -0.2864
    166  CB       -53.5700   -6.5880  -28.5720 C.3   154  ASP154      0.1436
    167  CG       -52.1780   -6.8780  -29.0990 C.2   154  ASP154      0.3671
    168  OD1      -51.7090   -6.1310  -29.9850 O.co2 154  ASP154     -0.2456
    169  OD2      -51.5610   -7.8560  -28.6360 O.co2 154  ASP154     -0.2456
@<TRIPOS>BOND
     1    51    52    1
     2    53    52    1
     3    53    54    2
     4    52    55    1
     5    55    56    1
     6    56    57    1
     7    57    58    1
     8   165   164    2
     9   164   163    1
    10    45    44    2
    11    22    21    2
    12    49    50    1
    13    49    48    1
    14   168   167   ar
    15    48    47    1
    16    44    43    1
    17    20    21    1
    18    20    23    1
    19    20    19    1
    20   163   162    1
    21   163   166    1
    22    23    24    1
    23    47    46    1
    24   167   169   ar
    25   167   166    1
    26    46    43    1
    27   162   157   am
    28    43    42    1
    29    59    60    1
    30    65    66    1
    31    65    64    1
    32    63    60    1
    33    63    64    1
    34   157   158    2
    35   157   156    1
    36    60    61    1
    37    24    25   ar
    38    24    26   ar
    39    25    27   ar
    40   156   155    1
    41   156   159    1
    42   160   159    1
    43    26    28   ar
    44   146   144   am
    45    61    67   am
    46    61    62    2
    47    40    39    2
    48   159   161    1
    49    27    29   ar
    50    67    68    1
    51   137   136    1
    52   144   145    2
    53   144   143    1
    54    28    29   ar
    55    39    38    1
    56   138   136    1
    57   143   140    1
    58   136   135    2
    59    68    71    1
    60    68    69    1
    61    71    72    1
    62   142   141    2
    63    74    73    2
    64    37    38    1
    65    38    41    1
    66    30    31    1
    67   140   141    1
    68   140   139    1
    69    35    34    1
    70    31    34    1
    71    31    32    1
    72    70    69    2
    73    69    76   am
    74   135   134    1
    75    72    73    1
    76    36    34    1
    77    73    75   am
    78   153   152    1
    79   134   133    1
    80   139   130   am
    81    32    33    2
    82   133   132    1
    83    76    77    1
    84    15    14    1
    85    15    16    2
    86    14    17    1
    87    14    13    1
    88    17    18    1
    89   152   151    1
    90   152   154    1
    91   131   130    2
    92   130   129    1
    93    12    11    2
    94    90    89    1
    95    90    91    1
    96    89    88    1
    97    77    78    1
    98    77    80    1
    99   151   148    1
   100   147   148    1
   101   132   129    1
   102    13    11   am
   103    11    10    1
   104   129   128    1
   105    78    84   am
   106    78    79    2
   107    80    81    1
   108   148   149    1
   109    84    85    1
   110    88    85    1
   111   150   149    2
   112     7     6    1
   113    82    81    1
   114    85    86    1
   115    10     9    1
   116     9     3   am
   117    81    83    1
   118     5     6    1
   119     5     2    1
   120     1     2    1
   121   118   115    1
   122   118   119    1
   123     6     8    1
   124     2     3    1
   125     3     4    2
   126    86    87    2
   127    86    92   am
   128   115   114    1
   129   115   116    1
   130   114   112   am
   131   113   112    2
   132   112   111    1
   133    98    92    1
   134    98    97    1
   135    92    93    1
   136   116   117    2
   137   111   110    1
   138    97    96    1
   139   110   101   am
   140    93    96    1
   141    93    94    1
   142   126   125   ar
   143    99    94   am
   144    99   100    1
   145    94    95    2
   146   101   100    1
   147   101   102    2
   148   125   127   ar
   149   125   124    1
   150   120   121    1
   151   100   103    1
   152   124   121    1
   153   103   104    1
   154   121   122    1
   155   105   104   ar
   156   105   107   ar
   157   104   106   ar
   158   107   109   ar
   159   122   123    2
   160   106   108   ar
   161   109   108   ar
