@<TRIPOS>MOLECULE
tmp/4rj8A00.pdb
 151 141 0 0 0
SMALL
GASTEIGER

@<TRIPOS>ATOM
      1  N        -46.6530    4.1580  -19.2400 N.3    22  LEU22      -0.1231
      2  CA       -47.5350    3.1060  -18.7320 C.3    22  LEU22       0.1693
      3  C        -46.8700    1.7250  -18.8450 C.2    22  LEU22       0.2592
      4  O        -47.0510    0.8840  -17.9670 O.2    22  LEU22      -0.2718
      5  CB       -48.8810    3.1230  -19.4720 C.3    22  LEU22       0.0284
      6  CG       -49.7870    4.3200  -19.2310 C.3    22  LEU22       0.0019
      7  CD1      -50.8810    4.3820  -20.2700 C.3    22  LEU22       0.0001
      8  CD2      -50.3780    4.2860  -17.8530 C.3    22  LEU22       0.0001
      9  N        -46.1160    1.5180  -19.9240 N.am   23  GLY23      -0.1957
     10  CA       -45.3950    0.2830  -20.2060 C.3    23  GLY23       0.1869
     11  C        -44.4800    0.4040  -21.4060 C.2    23  GLY23       0.2309
     12  O        -44.7280    1.2110  -22.3060 O.2    23  GLY23      -0.2863
     13  N        -42.0000   -3.3990  -29.0280 N.3    27  PHE27      -0.1241
     14  CA       -42.7910   -2.5430  -29.9240 C.3    27  PHE27       0.1605
     15  C        -42.3760   -1.0540  -29.8540 C.2    27  PHE27       0.2264
     16  O        -42.2850   -0.3730  -30.8800 O.2    27  PHE27      -0.2867
     17  CB       -44.2980   -2.6950  -29.5940 C.3    27  PHE27       0.0534
     18  CG       -44.6750   -2.3860  -28.1600 C.ar   27  PHE27      -0.0203
     19  CD1      -45.1350   -1.1240  -27.8000 C.ar   27  PHE27      -0.0042
     20  CD2      -44.5670   -3.3550  -27.1690 C.ar   27  PHE27      -0.0042
     21  CE1      -45.4560   -0.8300  -26.4730 C.ar   27  PHE27      -0.0003
     22  CE2      -44.9020   -3.0640  -25.8440 C.ar   27  PHE27      -0.0003
     23  CZ       -45.3440   -1.8050  -25.5050 C.ar   27  PHE27      -0.0000
     24  N        -45.7600    2.8310  -24.4130 N.3    30  VAL30      -0.1245
     25  CA       -47.1290    3.3250  -24.2290 C.3    30  VAL30       0.1561
     26  C        -47.0980    4.3850  -23.1280 C.2    30  VAL30       0.2260
     27  O        -46.6060    4.1190  -22.0290 O.2    30  VAL30      -0.2867
     28  CB       -48.1800    2.2070  -23.9450 C.3    30  VAL30       0.0252
     29  CG1      -49.5710    2.7910  -23.6910 C.3    30  VAL30       0.0019
     30  CG2      -48.2390    1.1980  -25.0840 C.3    30  VAL30       0.0019
     31  N        -54.0340    7.0620  -24.1900 N.3    47  ALA47      -0.1245
     32  CA       -52.9050    6.1490  -24.1490 C.3    47  ALA47       0.1562
     33  C        -52.2420    6.3380  -25.5100 C.2    47  ALA47       0.2260
     34  O        -52.9010    6.2230  -26.5540 O.2    47  ALA47      -0.2867
     35  CB       -53.3760    4.7200  -23.9770 C.3    47  ALA47       0.0290
     36  N        -49.4120    5.0840  -28.0490 N.3    49  LYS49      -0.1245
     37  CA       -48.4850    4.0190  -28.4160 C.3    49  LYS49       0.1561
     38  C        -47.4670    4.6010  -29.4040 C.2    49  LYS49       0.2260
     39  O        -47.8200    4.9710  -30.5280 O.2    49  LYS49      -0.2867
     40  CB       -49.2140    2.8100  -29.0190 C.3    49  LYS49       0.0271
     41  CG       -48.3110    1.5900  -29.2250 C.3    49  LYS49       0.0035
     42  CD       -49.0240    0.4710  -29.9700 C.3    49  LYS49       0.0206
     43  CE       -48.0630   -0.6440  -30.2620 C.3    49  LYS49       0.1093
     44  NZ       -48.7680   -1.8610  -30.7350 N.3    49  LYS49      -0.1314
     45  N        -52.1800   -2.1320  -37.7440 N.3    62  GLU62      -0.1245
     46  CA       -52.9030   -2.1350  -36.4780 C.3    62  GLU62       0.1567
     47  C        -53.8630   -0.9450  -36.4520 C.2    62  GLU62       0.2260
     48  O        -54.9960   -1.1150  -36.0190 O.2    62  GLU62      -0.2867
     49  CB       -51.9220   -2.0690  -35.2920 C.3    62  GLU62       0.0388
     50  CG       -52.5200   -2.4880  -33.9610 C.3    62  GLU62       0.1160
     51  CD       -51.7000   -2.1840  -32.7220 C.2    62  GLU62       0.3649
     52  OE1      -50.5740   -1.6550  -32.8570 O.co2  62  GLU62      -0.2457
     53  OE2      -52.1960   -2.4630  -31.6070 O.co2  62  GLU62      -0.2457
     54  N        -57.9090   -1.1100  -35.9310 N.3    66  MET66      -0.1245
     55  CA       -58.3550   -0.3570  -34.7530 C.3    66  MET66       0.1570
     56  C        -59.2700    0.8320  -35.1130 C.2    66  MET66       0.2261
     57  O        -60.1540    1.1640  -34.3310 O.2    66  MET66      -0.2867
     58  CB       -57.1550    0.0790  -33.8990 C.3    66  MET66       0.0387
     59  CG       -57.2020   -0.4440  -32.4990 C.3    66  MET66       0.0595
     60  SD       -56.1910    0.4850  -31.3100 S.3    66  MET66      -0.1393
     61  CE       -54.6220   -0.1750  -31.6370 C.3    66  MET66       0.0692
     62  N        -61.7350   -1.8250  -28.1500 N.3    75  CYS75      -0.1221
     63  CA       -60.9500   -0.5740  -28.1530 C.3    75  CYS75       0.1808
     64  C        -60.7690   -0.0780  -29.5670 C.2    75  CYS75       0.2601
     65  O        -60.2060   -0.7920  -30.4080 O.2    75  CYS75      -0.2717
     66  CB       -59.5980   -0.7680  -27.4730 C.3    75  CYS75       0.0970
     67  SG       -59.6910   -1.0570  -25.6910 S.3    75  CYS75      -0.0800
     68  N        -61.1920    1.1590  -29.8090 N.am   76  ARG76      -0.1979
     69  CA       -61.1370    1.8840  -31.0820 C.3    76  ARG76       0.1597
     70  C        -59.8990    2.8060  -31.1480 C.2    76  ARG76       0.2287
     71  O        -59.4090    3.2620  -30.1070 O.2    76  ARG76      -0.2864
     72  CB       -62.3810    2.7830  -31.1480 C.3    76  ARG76       0.0334
     73  CG       -62.7520    3.2520  -32.5210 C.3    76  ARG76       0.0492
     74  CD       -63.8790    4.2470  -32.4880 C.3    76  ARG76       0.2205
     75  NE       -63.6860    5.1680  -33.6000 N.pl3  76  ARG76      -0.0865
     76  CZ       -63.2110    6.4020  -33.4830 C.cat  76  ARG76       0.5346
     77  NH1      -62.9660    6.9180  -32.2830 N.pl3  76  ARG76       0.1354
     78  NH2      -63.0310    7.1520  -34.5610 N.pl3  76  ARG76       0.1354
     79  N        -55.0270    6.2920  -28.3740 N.3    90  MET90      -0.1230
     80  CA       -56.0870    5.3780  -27.9380 C.3    90  MET90       0.1702
     81  C        -56.7230    5.8470  -26.6380 C.2    90  MET90       0.2592
     82  O        -56.2180    6.7780  -26.0060 O.2    90  MET90      -0.2718
     83  CB       -55.5000    3.9620  -27.7590 C.3    90  MET90       0.0401
     84  CG       -54.5330    3.5640  -28.8790 C.3    90  MET90       0.0596
     85  SD       -53.5680    2.0920  -28.5620 S.3    90  MET90      -0.1393
     86  CE       -52.5340    2.6390  -27.1810 C.3    90  MET90       0.0692
     87  N        -57.8420    5.2160  -26.2410 N.am   91  GLN91      -0.1966
     88  CA       -58.5240    5.5350  -24.9820 C.3    91  GLN91       0.1733
     89  C        -57.6680    5.0250  -23.8170 C.2    91  GLN91       0.2616
     90  O        -57.1100    3.9190  -23.8990 O.2    91  GLN91      -0.2715
     91  CB       -59.8960    4.8510  -24.9320 C.3    91  GLN91       0.0408
     92  CG       -60.7200    5.1840  -23.6910 C.3    91  GLN91       0.0908
     93  CD       -61.9990    4.4060  -23.6070 C.2    91  GLN91       0.2608
     94  OE1      -62.1490    3.3330  -24.1900 O.2    91  GLN91      -0.2717
     95  NE2      -62.9340    4.9090  -22.8310 N.am   91  GLN91      -0.0878
     96  N        -57.5670    5.8290  -22.7320 N.am   92  LEU92      -0.1963
     97  CA       -56.8700    5.3970  -21.5210 C.3    92  LEU92       0.1728
     98  C        -57.7760    4.4090  -20.8250 C.2    92  LEU92       0.2616
     99  O        -58.9540    4.7000  -20.6050 O.2    92  LEU92      -0.2715
    100  CB       -56.5800    6.5760  -20.5910 C.3    92  LEU92       0.0311
    101  CG       -55.7720    6.2620  -19.3170 C.3    92  LEU92       0.0022
    102  CD1      -54.2880    6.0500  -19.6350 C.3    92  LEU92       0.0001
    103  CD2      -55.9620    7.3680  -18.2670 C.3    92  LEU92       0.0001
    104  N        -57.2400    3.2290  -20.5130 N.am   93  MET93      -0.1964
    105  CA       -57.9540    2.1600  -19.7980 C.3    93  MET93       0.1722
    106  C        -57.2490    2.1830  -18.4640 C.2    93  MET93       0.2458
    107  O        -56.2130    1.5510  -18.3350 O.2    93  MET93      -0.2730
    108  CB       -57.7850    0.8560  -20.5800 C.3    93  MET93       0.0427
    109  CG       -58.3820    0.9480  -21.9850 C.3    93  MET93       0.0599
    110  SD       -60.1770    1.2100  -22.0380 S.3    93  MET93      -0.1393
    111  CE       -60.7480   -0.4710  -21.7360 C.3    93  MET93       0.0692
    112  N        -57.6730    3.0860  -17.5310 N.am   94  PRO94      -0.2727
    113  CA       -56.8340    3.3970  -16.3560 C.3    94  PRO94       0.1402
    114  C        -56.4710    2.2630  -15.4030 C.2    94  PRO94       0.2269
    115  O        -55.5730    2.4460  -14.5860 O.2    94  PRO94      -0.2865
    116  CB       -57.6440    4.4890  -15.6290 C.3    94  PRO94       0.0296
    117  CG       -59.0270    4.3750  -16.1580 C.3    94  PRO94       0.0237
    118  CD       -58.8600    3.9710  -17.5670 C.3    94  PRO94       0.0939
    119  N        -55.4730   -0.7890  -16.3890 N.3    96  GLY96      -0.1210
    120  CA       -54.5710   -1.6700  -17.1310 C.3    96  GLY96       0.1956
    121  C        -55.2170   -2.9500  -17.6150 C.2    96  GLY96       0.2612
    122  O        -56.4420   -3.0100  -17.7390 O.2    96  GLY96      -0.2717
    123  N        -54.3960   -3.9830  -17.8890 N.am   97  CYS97      -0.1970
    124  CA       -54.8750   -5.2620  -18.4040 C.3    97  CYS97       0.1712
    125  C        -55.5760   -6.1020  -17.3460 C.2    97  CYS97       0.2296
    126  O        -55.2290   -6.0370  -16.1670 O.2    97  CYS97      -0.2864
    127  CB       -53.7720   -6.0380  -19.1180 C.3    97  CYS97       0.0983
    128  SG       -52.6230   -6.8900  -18.0100 S.3    97  CYS97      -0.0798
    129  N        -58.5700   -5.0130  -21.6490 N.3   144  LEU144     -0.1245
    130  CA       -58.2290   -3.8730  -20.7980 C.3   144  LEU144      0.1561
    131  C        -59.3790   -3.4280  -19.9400 C.2   144  LEU144      0.2260
    132  O        -60.5320   -3.6660  -20.2880 O.2   144  LEU144     -0.2867
    133  CB       -57.6230   -2.6960  -21.5790 C.3   144  LEU144      0.0270
    134  CG       -56.2990   -2.9280  -22.3140 C.3   144  LEU144      0.0019
    135  CD1      -55.7730   -1.6650  -22.7760 C.3   144  LEU144      0.0001
    136  CD2      -55.2390   -3.5230  -21.4420 C.3   144  LEU144      0.0001
    137  N        -58.6520   -5.5780  -26.8740 N.3   154  THR154     -0.1203
    138  CA       -57.7360   -4.7830  -27.6730 C.3   154  THR154      0.1994
    139  C        -56.6430   -5.6740  -28.2780 C.2   154  THR154      0.2617
    140  O        -56.7510   -6.9140  -28.2190 O.2   154  THR154     -0.2717
    141  CB       -57.2180   -3.5750  -26.8710 C.3   154  THR154      0.1784
    142  OG1      -56.6330   -2.6500  -27.8020 O.3   154  THR154     -0.2211
    143  CG2      -56.2260   -3.9680  -25.7490 C.3   154  THR154      0.0376
    144  N        -55.5790   -5.0260  -28.8250 N.am  155  ASP155     -0.1973
    145  CA       -54.4000   -5.6190  -29.4450 C.3   155  ASP155      0.1709
    146  C        -54.7560   -6.3150  -30.7630 C.2   155  ASP155      0.2293
    147  O        -54.8300   -7.5530  -30.8600 O.2   155  ASP155     -0.2864
    148  CB       -53.6050   -6.5190  -28.4760 C.3   155  ASP155      0.1436
    149  CG       -52.1110   -6.4550  -28.6850 C.2   155  ASP155      0.3671
    150  OD1      -51.6540   -6.7610  -29.8130 O.co2 155  ASP155     -0.2456
    151  OD2      -51.3940   -6.1020  -27.7220 O.co2 155  ASP155     -0.2456
@<TRIPOS>BOND
     1    45    46    1
     2    46    47    1
     3    46    49    1
     4    47    48    2
     5    54    55    1
     6    49    50    1
     7    56    55    1
     8    56    57    2
     9    55    58    1
    10    78    76    1
    11    50    51    1
    12    58    59    1
    13    75    76    2
    14    75    74    1
    15    76    77    1
    16    52    51   ar
    17    51    53   ar
    18    73    74    1
    19    73    72    1
    20    59    60    1
    21    61    60    1
    22    72    69    1
    23    70    69    1
    24    70    71    2
    25    69    68    1
    26    16    15    2
    27   147   146    2
    28   146   145    1
    29    44    43    1
    30    39    38    2
    31    65    64    2
    32    43    42    1
    33    42    41    1
    34    14    15    1
    35    14    17    1
    36    14    13    1
    37   150   149   ar
    38    68    64   am
    39    17    18    1
    40    64    63    1
    41   145   144    1
    42   145   148    1
    43    38    37    1
    44    41    40    1
    45    40    37    1
    46    84    85    1
    47    84    83    1
    48   144   139   am
    49   149   148    1
    50   149   151   ar
    51    85    86    1
    52    37    36    1
    53    79    80    1
    54   139   140    2
    55   139   138    1
    56    18    19   ar
    57    18    20   ar
    58    63    62    1
    59    63    66    1
    60    80    83    1
    61    80    81    1
    62   142   141    1
    63    19    21   ar
    64   138   137    1
    65   138   141    1
    66    66    67    1
    67    20    22   ar
    68   141   143    1
    69    81    87   am
    70    81    82    2
    71    34    33    2
    72    21    23   ar
    73    87    88    1
    74    22    23   ar
    75    33    32    1
    76    30    28    1
    77    88    91    1
    78    88    89    1
    79    91    92    1
    80    24    25    1
    81    25    28    1
    82    25    26    1
    83    31    32    1
    84    94    93    2
    85    32    35    1
    86    28    29    1
    87    90    89    2
    88    89    96   am
    89    92    93    1
    90    93    95   am
    91    26    27    2
    92   135   134    1
    93    96    97    1
    94   134   133    1
    95   134   136    1
    96    12    11    2
    97   110   109    1
    98   110   111    1
    99   109   108    1
   100   129   130    1
   101   133   130    1
   102    97    98    1
   103    97   100    1
   104    11    10    1
   105    98    99    2
   106    98   104   am
   107   130   131    1
   108   100   101    1
   109   108   105    1
   110   104   105    1
   111   132   131    2
   112     7     6    1
   113    10     9    1
   114     9     3   am
   115   105   106    1
   116   102   101    1
   117     5     6    1
   118     5     2    1
   119   101   103    1
   120     1     2    1
   121     6     8    1
   122   127   124    1
   123   127   128    1
   124     3     2    1
   125     3     4    2
   126   106   107    2
   127   106   112   am
   128   124   123    1
   129   124   125    1
   130   123   121   am
   131   122   121    2
   132   121   120    1
   133   118   112    1
   134   118   117    1
   135   112   113    1
   136   125   126    2
   137   120   119    1
   138   113   116    1
   139   113   114    1
   140   117   116    1
   141   114   115    2
