@<TRIPOS>MOLECULE
tmp/4rjjE08.pdb
 68 64 0 0 0
SMALL
GASTEIGER

@<TRIPOS>ATOM
      1  N         41.9620  -40.2260  -22.5380 N.3    24  ILE24      -0.1231
      2  CA        41.5490  -38.9680  -23.1040 C.3    24  ILE24       0.1678
      3  C         42.8390  -38.2930  -23.4930 C.2    24  ILE24       0.2434
      4  O         43.7230  -38.1250  -22.6610 O.2    24  ILE24      -0.2733
      5  CB        40.7660  -38.1200  -22.0730 C.3    24  ILE24       0.0265
      6  CG1       39.4560  -38.8400  -21.7070 C.3    24  ILE24       0.0019
      7  CG2       40.4900  -36.6960  -22.6210 C.3    24  ILE24       0.0020
      8  CD1       38.5550  -38.1160  -20.6950 C.3    24  ILE24       0.0001
      9  N         42.9600  -37.9250  -24.7730 N.am   25  PRO25      -0.2718
     10  CA        44.2100  -37.3730  -25.3010 C.3    25  PRO25       0.1535
     11  C         44.4310  -35.9090  -24.9140 C.2    25  PRO25       0.2599
     12  O         43.5090  -35.2130  -24.4550 O.2    25  PRO25      -0.2715
     13  CB        44.0320  -37.5030  -26.8200 C.3    25  PRO25       0.0310
     14  CG        42.5430  -37.3900  -27.0210 C.3    25  PRO25       0.0237
     15  CD        41.9340  -38.1010  -25.8180 C.3    25  PRO25       0.0939
     16  N         45.6610  -35.4420  -25.1110 N.am   26  GLY26      -0.1941
     17  CA        46.0030  -34.0670  -24.8220 C.3    26  GLY26       0.2014
     18  C         47.3880  -33.8350  -25.3530 C.2    26  GLY26       0.2638
     19  O         48.0930  -34.7960  -25.6530 O.2    26  GLY26      -0.2714
     20  N         47.7900  -32.5730  -25.4490 N.am   27  ALA27      -0.1977
     21  CA        49.0340  -32.2280  -26.1230 C.3    27  ALA27       0.1597
     22  C         50.2590  -32.9400  -25.5530 C.2    27  ALA27       0.2287
     23  O         51.0620  -33.4840  -26.3070 O.2    27  ALA27      -0.2864
     24  CB        49.2370  -30.7170  -26.1240 C.3    27  ALA27       0.0319
     25  N         38.3460  -38.5730  -17.1900 N.3    49  GLU49      -0.1245
     26  CA        39.4430  -39.4280  -16.7470 C.3    49  GLU49       0.1567
     27  C         39.1030  -40.2510  -15.5040 C.2    49  GLU49       0.2260
     28  O         39.6340  -41.3520  -15.3240 O.2    49  GLU49      -0.2867
     29  CB        40.7100  -38.6160  -16.4920 C.3    49  GLU49       0.0388
     30  CG        41.3440  -38.0200  -17.7550 C.3    49  GLU49       0.1160
     31  CD        40.7710  -36.6700  -18.0970 C.2    49  GLU49       0.3649
     32  OE1       39.7480  -36.2870  -17.4750 O.co2  49  GLU49      -0.2457
     33  OE2       41.3700  -35.9700  -18.9450 O.co2  49  GLU49      -0.2457
     34  N         46.5170  -37.0910  -20.2670 N.3    72  THR72      -0.1218
     35  CA        47.4680  -36.0200  -20.4830 C.3    72  THR72       0.1862
     36  C         47.9080  -35.3700  -19.1780 C.2    72  THR72       0.2287
     37  O         47.5040  -35.7920  -18.0800 O.2    72  THR72      -0.2866
     38  CB        46.9120  -34.9600  -21.4330 C.3    72  THR72       0.1770
     39  OG1       47.9990  -34.1900  -21.9720 O.3    72  THR72      -0.2211
     40  CG2       45.8990  -34.0610  -20.6890 C.3    72  THR72       0.0375
     41  N         45.4940  -31.3640  -15.4350 N.3    75  PRO75      -0.2102
     42  CA        44.1640  -31.8050  -14.9990 C.3    75  PRO75       0.1504
     43  C         43.8210  -33.2050  -15.5580 C.2    75  PRO75       0.2576
     44  O         43.0360  -33.9320  -14.9280 O.2    75  PRO75      -0.2718
     45  CB        43.2400  -30.7210  -15.5740 C.3    75  PRO75       0.0282
     46  CG        43.9700  -30.2390  -16.8010 C.3    75  PRO75       0.0208
     47  CD        45.4290  -30.2950  -16.4500 C.3    75  PRO75       0.0893
     48  N         44.4490  -33.6050  -16.6650 N.am   76  GLY76      -0.1957
     49  CA        44.3020  -34.9680  -17.1670 C.3    76  GLY76       0.1869
     50  C         44.7670  -35.9650  -16.1080 C.2    76  GLY76       0.2309
     51  O         44.0690  -36.9280  -15.7940 O.2    76  GLY76      -0.2863
     52  N         42.8100  -35.6060  -12.5430 N.3    79  ASN79      -0.1240
     53  CA        41.4800  -36.2210  -12.5920 C.3    79  ASN79       0.1653
     54  C         41.5030  -37.7210  -12.3000 C.2    79  ASN79       0.2266
     55  O         40.4530  -38.3280  -12.1680 O.2    79  ASN79      -0.2867
     56  CB        40.8060  -35.9780  -13.9470 C.3    79  ASN79       0.1155
     57  CG        40.0620  -34.6640  -13.9990 C.2    79  ASN79       0.2627
     58  OD1       39.9070  -33.9940  -12.9710 O.2    79  ASN79      -0.2716
     59  ND2       39.5670  -34.2980  -15.1880 N.am   79  ASN79      -0.0877
     60  N         49.7090  -26.6620  -17.3440 N.3   112  GLN112     -0.1245
     61  CA        49.4900  -28.0520  -16.9260 C.3   112  GLN112      0.1566
     62  C         50.6720  -28.7730  -16.2960 C.2   112  GLN112      0.2260
     63  O         50.7820  -29.9830  -16.4050 O.2   112  GLN112     -0.2867
     64  CB        48.9380  -28.8760  -18.0800 C.3   112  GLN112      0.0367
     65  CG        47.6930  -28.2670  -18.6700 C.3   112  GLN112      0.0905
     66  CD        47.1290  -29.1120  -19.7720 C.2   112  GLN112      0.2608
     67  OE1       45.9180  -29.2790  -19.8630 O.2   112  GLN112     -0.2717
     68  NE2       48.0050  -29.7100  -20.5790 N.am  112  GLN112     -0.0878
@<TRIPOS>BOND
     1    14    13    1
     2    14    15    1
     3    13    10    1
     4    23    22    2
     5    24    21    1
     6    21    22    1
     7    21    20    1
     8    15     9    1
     9    19    18    2
    10    20    18   am
    11    18    17    1
    12    10    11    1
    13    10     9    1
    14    16    11   am
    15    16    17    1
    16    11    12    2
    17     9     3   am
    18     3     2    1
    19     3     4    2
    20     2     1    1
    21     2     5    1
    22     7     5    1
    23     5     6    1
    24    39    38    1
    25     6     8    1
    26    38    40    1
    27    38    35    1
    28    68    66   am
    29    35    34    1
    30    35    36    1
    31    67    66    2
    32    66    65    1
    33    36    37    2
    34    33    31   ar
    35    65    64    1
    36    31    30    1
    37    31    32   ar
    38    64    61    1
    39    30    29    1
    40    60    61    1
    41    25    26    1
    42    49    48    1
    43    49    50    1
    44    61    62    1
    45    46    47    1
    46    46    45    1
    47    26    29    1
    48    26    27    1
    49    48    43   am
    50    47    41    1
    51    63    62    2
    52    50    51    2
    53    45    42    1
    54    43    42    1
    55    43    44    2
    56    27    28    2
    57    41    42    1
    58    59    57   am
    59    57    56    1
    60    57    58    2
    61    56    53    1
    62    53    52    1
    63    53    54    1
    64    54    55    2
