@<TRIPOS>MOLECULE
tmp/4rjjE05.pdb
 76 74 0 0 0
SMALL
GASTEIGER

@<TRIPOS>ATOM
      1  N         38.5090  -57.8870  -12.8380 N.3    62  LEU62      -0.1231
      2  CA        37.9280  -59.0330  -13.5360 C.3    62  LEU62       0.1693
      3  C         38.9440  -59.9540  -14.1930 C.2    62  LEU62       0.2592
      4  O         38.6570  -61.1240  -14.3680 O.2    62  LEU62      -0.2718
      5  CB        36.8900  -58.5950  -14.5750 C.3    62  LEU62       0.0284
      6  CG        35.5860  -58.0150  -14.0160 C.3    62  LEU62       0.0019
      7  CD1       34.7410  -57.4670  -15.1630 C.3    62  LEU62       0.0001
      8  CD2       34.8330  -59.0920  -13.2510 C.3    62  LEU62       0.0001
      9  N         40.1150  -59.4440  -14.5650 N.am   63  THR63      -0.1953
     10  CA        41.0440  -60.2640  -15.3230 C.3    63  THR63       0.1897
     11  C         42.2740  -60.6600  -14.5300 C.2    63  THR63       0.2313
     12  O         43.0090  -61.5530  -14.9480 O.2    63  THR63      -0.2863
     13  CB        41.4880  -59.5920  -16.6380 C.3    63  THR63       0.1794
     14  OG1       42.2590  -58.4160  -16.3340 O.3    63  THR63      -0.2208
     15  CG2       40.2580  -59.2380  -17.4970 C.3    63  THR63       0.0378
     16  N         38.7750  -65.7760   -8.2310 N.3   213  PRO213     -0.2116
     17  CA        38.2840  -67.0820   -8.6870 C.3   213  PRO213      0.1372
     18  C         39.0680  -68.2950   -8.1490 C.2   213  PRO213      0.2244
     19  O         38.4280  -69.2350   -7.6810 O.2   213  PRO213     -0.2868
     20  CB        38.3950  -66.9880  -10.2090 C.3   213  PRO213      0.0268
     21  CG        38.2090  -65.5190  -10.4960 C.3   213  PRO213      0.0207
     22  CD        38.8850  -64.8070   -9.3410 C.3   213  PRO213      0.0892
     23  N         32.3480  -66.2600   -8.7490 N.3   402  PRO402     -0.2102
     24  CA        33.4030  -65.2630   -8.5160 C.3   402  PRO402      0.1504
     25  C         33.2430  -64.0580   -9.4320 C.2   402  PRO402      0.2576
     26  O         32.9200  -64.2200  -10.6160 O.2   402  PRO402     -0.2718
     27  CB        34.6880  -66.0200   -8.8780 C.3   402  PRO402      0.0282
     28  CG        34.3410  -67.4890   -8.6030 C.3   402  PRO402      0.0208
     29  CD        32.8860  -67.6150   -8.9980 C.3   402  PRO402      0.0893
     30  N         33.4440  -62.8640   -8.8760 N.am  403  LEU403     -0.1966
     31  CA        33.4600  -61.6430   -9.6720 C.3   403  LEU403      0.1728
     32  C         32.1380  -61.3450  -10.3850 C.2   403  LEU403      0.2616
     33  O         32.1580  -60.7740  -11.4810 O.2   403  LEU403     -0.2715
     34  CB        34.6310  -61.6880  -10.6730 C.3   403  LEU403      0.0311
     35  CG        35.9980  -61.9710  -10.0050 C.3   403  LEU403      0.0022
     36  CD1       37.1360  -62.1250  -11.0130 C.3   403  LEU403      0.0001
     37  CD2       36.3500  -60.8490   -9.0320 C.3   403  LEU403      0.0001
     38  N         30.9970  -61.6880   -9.7730 N.am  404  THR404     -0.1951
     39  CA        29.6900  -61.3690  -10.3910 C.3   404  THR404      0.1897
     40  C         28.8670  -60.3300   -9.6340 C.2   404  THR404      0.2313
     41  O         27.7860  -59.9400  -10.0700 O.2   404  THR404     -0.2863
     42  CB        28.8050  -62.6140  -10.6460 C.3   404  THR404      0.1794
     43  OG1       28.6750  -63.3960   -9.4400 O.3   404  THR404     -0.2208
     44  CG2       29.3920  -63.4680  -11.7810 C.3   404  THR404      0.0378
     45  N         35.2690  -56.9680  -21.0820 N.3   427  VAL427     -0.1231
     46  CA        35.9330  -58.1670  -20.5800 C.3   427  VAL427      0.1692
     47  C         35.0670  -59.3880  -20.8800 C.2   427  VAL427      0.2592
     48  O         35.5410  -60.5400  -20.9210 O.2   427  VAL427     -0.2718
     49  CB        36.1810  -58.0380  -19.0510 C.3   427  VAL427      0.0266
     50  CG1       36.6900  -59.3460  -18.4580 C.3   427  VAL427      0.0020
     51  CG2       37.1970  -56.9590  -18.7980 C.3   427  VAL427      0.0020
     52  N         33.7700  -59.1350  -21.0270 N.am  428  LYS428     -0.1966
     53  CA        32.8170  -60.2080  -21.2570 C.3   428  LYS428      0.1713
     54  C         31.9300  -59.9830  -22.4770 C.2   428  LYS428      0.2458
     55  O         30.7360  -59.7350  -22.3480 O.2   428  LYS428     -0.2730
     56  CB        31.9940  -60.4130  -19.9930 C.3   428  LYS428      0.0311
     57  CG        32.8820  -60.9420  -18.8770 C.3   428  LYS428      0.0038
     58  CD        32.1920  -60.9980  -17.5560 C.3   428  LYS428      0.0206
     59  CE        32.8490  -62.0540  -16.7070 C.3   428  LYS428      0.1093
     60  NZ        33.4480  -63.1520  -17.5170 N.3   428  LYS428     -0.1314
     61  N         32.5200  -60.0870  -23.6730 N.am  429  PRO429     -0.2727
     62  CA        31.7650  -59.8600  -24.9120 C.3   429  PRO429      0.1402
     63  C         30.6700  -60.9180  -25.0370 C.2   429  PRO429      0.2269
     64  O         30.8960  -62.0680  -24.6270 O.2   429  PRO429     -0.2865
     65  CB        32.8210  -60.0390  -26.0170 C.3   429  PRO429      0.0296
     66  CG        33.8400  -60.9890  -25.4010 C.3   429  PRO429      0.0237
     67  CD        33.8800  -60.6060  -23.9270 C.3   429  PRO429      0.0939
     68  N         27.9310  -60.9500  -23.3550 N.3   431  GLU431     -0.1245
     69  CA        27.1760  -61.0330  -22.0920 C.3   431  GLU431      0.1567
     70  C         26.5230  -59.7050  -21.6710 C.2   431  GLU431      0.2260
     71  O         27.1440  -58.6460  -21.7720 O.2   431  GLU431     -0.2867
     72  CB        28.0900  -61.5030  -20.9480 C.3   431  GLU431      0.0388
     73  CG        28.8750  -62.7940  -21.1780 C.3   431  GLU431      0.1160
     74  CD        29.5920  -63.2490  -19.9080 C.2   431  GLU431      0.3649
     75  OE1       29.1870  -62.7990  -18.8090 O.co2 431  GLU431     -0.2457
     76  OE2       30.5590  -64.0440  -19.9950 O.co2 431  GLU431     -0.2457
@<TRIPOS>BOND
     1    65    66    1
     2    65    62    1
     3    66    67    1
     4    63    62    1
     5    63    64    2
     6    62    61    1
     7    67    61    1
     8    61    54   am
     9    68    69    1
    10    54    55    2
    11    54    53    1
    12    69    70    1
    13    69    72    1
    14    71    70    2
    15    53    52    1
    16    53    56    1
    17    73    72    1
    18    73    74    1
    19    45    46    1
    20    52    47   am
    21    48    47    2
    22    47    46    1
    23    46    49    1
    24    76    74   ar
    25    56    57    1
    26    74    75   ar
    27    49    51    1
    28    49    50    1
    29    57    58    1
    30    58    59    1
    31    60    59    1
    32    15    13    1
    33    13    14    1
    34    13    10    1
    35    10     9    1
    36    10    11    1
    37     7     6    1
    38    12    11    2
    39     5     6    1
    40     5     2    1
    41     9     3   am
    42     4     3    2
    43     3     2    1
    44     6     8    1
    45     2     1    1
    46    44    42    1
    47    33    32    2
    48    36    35    1
    49    34    35    1
    50    34    31    1
    51    42    39    1
    52    42    43    1
    53    26    25    2
    54    21    20    1
    55    21    22    1
    56    39    38    1
    57    39    40    1
    58    32    38   am
    59    32    31    1
    60    20    17    1
    61    41    40    2
    62    35    37    1
    63    31    30    1
    64    25    30   am
    65    25    24    1
    66    22    16    1
    67    29    23    1
    68    29    28    1
    69    27    28    1
    70    27    24    1
    71    23    24    1
    72    17    16    1
    73    17    18    1
    74    18    19    2
