@<TRIPOS>MOLECULE
tmp/4rjjE06.pdb
 86 78 0 0 0
SMALL
GASTEIGER

@<TRIPOS>ATOM
      1  N         43.6800  -48.7400   -5.5500 N.3    88  ASN88      -0.1225
      2  CA        44.8300  -49.0020   -4.6940 C.3    88  ASN88       0.1785
      3  C         44.4270  -49.4970   -3.3250 C.2    88  ASN88       0.2597
      4  O         45.2460  -50.0990   -2.6100 O.2    88  ASN88      -0.2718
      5  CB        45.7200  -47.7570   -4.5670 C.3    88  ASN88       0.1169
      6  CG        47.1000  -48.0860   -4.0300 C.2    88  ASN88       0.2627
      7  OD1       47.8460  -48.8710   -4.6290 O.2    88  ASN88      -0.2716
      8  ND2       47.4540  -47.4830   -2.8940 N.am   88  ASN88      -0.0877
      9  N         43.1690  -49.2530   -2.9500 N.am   89  THR89      -0.1953
     10  CA        42.7110  -49.6680   -1.6260 C.3    89  THR89       0.1897
     11  C         41.6930  -50.8110   -1.7100 C.2    89  THR89       0.2313
     12  O         41.2000  -51.3000   -0.6910 O.2    89  THR89      -0.2863
     13  CB        42.1440  -48.4830   -0.8210 C.3    89  THR89       0.1794
     14  OG1       41.0040  -47.9380   -1.4860 O.3    89  THR89      -0.2208
     15  CG2       43.2290  -47.4030   -0.6620 C.3    89  THR89       0.0378
     16  N         50.7790  -47.7350   -5.0250 N.3   125  LYS125     -0.1245
     17  CA        51.9100  -48.5670   -4.6080 C.3   125  LYS125      0.1561
     18  C         53.2070  -48.0560   -5.2210 C.2   125  LYS125      0.2260
     19  O         54.2800  -48.3660   -4.7310 O.2   125  LYS125     -0.2867
     20  CB        51.7460  -50.0330   -5.0390 C.3   125  LYS125      0.0271
     21  CG        50.4860  -50.7110   -4.6310 C.3   125  LYS125      0.0035
     22  CD        50.5000  -52.1590   -5.1130 C.3   125  LYS125      0.0206
     23  CE        51.6090  -52.9490   -4.4040 C.3   125  LYS125      0.1093
     24  NZ        51.4610  -54.3970   -4.7040 N.3   125  LYS125     -0.1314
     25  N         49.9290  -57.2080   -2.1680 N.3   151  GLN151     -0.1231
     26  CA        48.5320  -57.0210   -2.5250 C.3   151  GLN151      0.1698
     27  C         48.4130  -56.0760   -3.7220 C.2   151  GLN151      0.2592
     28  O         49.0350  -55.0180   -3.7600 O.2   151  GLN151     -0.2718
     29  CB        47.7600  -56.4650   -1.3200 C.3   151  GLN151      0.0381
     30  CG        46.3250  -56.0160   -1.6210 C.3   151  GLN151      0.0905
     31  CD        45.5180  -55.6840   -0.3490 C.2   151  GLN151      0.2608
     32  OE1       45.5440  -56.4430    0.6150 O.2   151  GLN151     -0.2717
     33  NE2       44.7950  -54.5540   -0.3550 N.am  151  GLN151     -0.0878
     34  N         47.5890  -56.4590   -4.6850 N.am  152  ALA152     -0.1980
     35  CA        47.4460  -55.7240   -5.9370 C.3   152  ALA152      0.1597
     36  C         46.9410  -54.3010   -5.7010 C.2   152  ALA152      0.2287
     37  O         46.1400  -54.0630   -4.7920 O.2   152  ALA152     -0.2864
     38  CB        46.5000  -56.4760   -6.8840 C.3   152  ALA152      0.0319
     39  N         41.4120  -58.0590    4.1400 N.3   276  ASP276     -0.1239
     40  CA        41.8420  -56.6580    4.2450 C.3   276  ASP276      0.1674
     41  C         40.8280  -55.9580    5.1540 C.2   276  ASP276      0.2266
     42  O         39.6380  -55.9060    4.8310 O.2   276  ASP276     -0.2867
     43  CB        41.8840  -56.0000    2.8570 C.3   276  ASP276      0.1410
     44  CG        42.2970  -54.5130    2.9000 C.2   276  ASP276      0.3668
     45  OD1       42.1900  -53.8480    3.9590 O.co2 276  ASP276     -0.2456
     46  OD2       42.7240  -53.9900    1.8520 O.co2 276  ASP276     -0.2456
     47  N         40.0420  -53.0930    5.7450 N.3   278  ILE278     -0.1245
     48  CA        39.3420  -51.9180    5.2250 C.3   278  ILE278      0.1561
     49  C         37.8460  -52.2080    5.0030 C.2   278  ILE278      0.2260
     50  O         36.9840  -51.3370    5.1640 O.2   278  ILE278     -0.2867
     51  CB        39.9990  -51.3700    3.9470 C.3   278  ILE278      0.0252
     52  CG1       39.5190  -49.9360    3.6900 C.3   278  ILE278      0.0019
     53  CG2       39.6950  -52.2700    2.7150 C.3   278  ILE278      0.0019
     54  CD1       40.2420  -49.2300    2.5600 C.3   278  ILE278      0.0001
     55  N         49.9720  -61.3950    2.2150 N.3   299  ILE299     -0.1231
     56  CA        50.8560  -60.4690    2.9350 C.3   299  ILE299      0.1692
     57  C         50.5830  -60.5820    4.4340 C.2   299  ILE299      0.2591
     58  O         49.5450  -61.1040    4.8400 O.2   299  ILE299     -0.2718
     59  CB        50.6480  -58.9990    2.4930 C.3   299  ILE299      0.0266
     60  CG1       49.1750  -58.6000    2.6560 C.3   299  ILE299      0.0019
     61  CG2       51.1600  -58.7770    1.0610 C.3   299  ILE299      0.0020
     62  CD1       48.9240  -57.1000    2.5160 C.3   299  ILE299      0.0001
     63  N         51.5030  -60.0880    5.2530 N.am  300  ILE300     -0.1980
     64  CA        51.3660  -60.1860    6.7030 C.3   300  ILE300      0.1595
     65  C         50.2220  -59.3370    7.2220 C.2   300  ILE300      0.2287
     66  O         49.7850  -58.3960    6.5490 O.2   300  ILE300     -0.2864
     67  CB        52.6780  -59.8070    7.4270 C.3   300  ILE300      0.0276
     68  CG1       52.9740  -58.3150    7.2750 C.3   300  ILE300      0.0022
     69  CG2       53.8870  -60.6610    6.9140 C.3   300  ILE300      0.0022
     70  CD1       54.1860  -57.8790    8.1090 C.3   300  ILE300      0.0001
     71  N         48.1230  -56.5920    9.5140 N.3   302  ASP302     -0.1239
     72  CA        48.2610  -55.3720   10.3000 C.3   302  ASP302      0.1674
     73  C         47.8280  -55.7190   11.7290 C.2   302  ASP302      0.2266
     74  O         46.7030  -56.2020   11.9400 O.2   302  ASP302     -0.2867
     75  CB        47.3300  -54.2550    9.7960 C.3   302  ASP302      0.1410
     76  CG        47.4360  -54.0170    8.2940 C.2   302  ASP302      0.3668
     77  OD1       48.5570  -54.1650    7.7440 O.co2 302  ASP302     -0.2456
     78  OD2       46.3850  -53.6820    7.6740 O.co2 302  ASP302     -0.2456
     79  N         37.2050  -47.5350   -0.6000 N.3   411  MET411     -0.1245
     80  CA        37.0330  -46.0930   -0.6370 C.3   411  MET411      0.1570
     81  C         35.5390  -45.7490   -0.6260 C.2   411  MET411      0.2261
     82  O         35.1660  -44.6090   -0.3520 O.2   411  MET411     -0.2867
     83  CB        37.7100  -45.5540   -1.8940 C.3   411  MET411      0.0387
     84  CG        39.0330  -44.8210   -1.7050 C.3   411  MET411      0.0595
     85  SD        39.3610  -44.0690   -0.0920 S.3   411  MET411     -0.1393
     86  CE        40.5820  -45.1960    0.5640 C.3   411  MET411      0.0692
@<TRIPOS>BOND
     1    38    35    1
     2    35    36    1
     3    35    34    1
     4    36    37    2
     5     1     2    1
     6    18    19    2
     7    18    17    1
     8    22    21    1
     9    22    23    1
    10    20    21    1
    11    20    17    1
    12    16    17    1
    13    24    23    1
    14     2     5    1
    15     2     3    1
    16    34    27   am
    17     7     6    2
    18     5     6    1
    19     6     8   am
    20    28    27    2
    21    27    26    1
    22     3     9   am
    23     3     4    2
    24     9    10    1
    25    26    25    1
    26    26    29    1
    27    83    84    1
    28    83    80    1
    29    11    10    1
    30    11    12    2
    31    84    85    1
    32    10    13    1
    33    30    29    1
    34    30    31    1
    35    14    13    1
    36    13    15    1
    37    80    81    1
    38    80    79    1
    39    81    82    2
    40    33    31   am
    41    31    32    2
    42    85    86    1
    43    61    59    1
    44    46    44   ar
    45    55    56    1
    46    59    60    1
    47    59    56    1
    48    62    60    1
    49    54    52    1
    50    53    51    1
    51    43    44    1
    52    43    40    1
    53    44    45   ar
    54    56    57    1
    55    52    51    1
    56    51    48    1
    57    39    40    1
    58    40    41    1
    59    57    58    2
    60    57    63   am
    61    42    41    2
    62    49    50    2
    63    49    48    1
    64    48    47    1
    65    63    64    1
    66    66    65    2
    67    64    65    1
    68    64    67    1
    69    69    67    1
    70    68    67    1
    71    68    70    1
    72    78    76   ar
    73    77    76   ar
    74    76    75    1
    75    71    72    1
    76    75    72    1
    77    72    73    1
    78    73    74    2
