@<TRIPOS>MOLECULE
tmp/4rjjE04.pdb
 91 86 0 0 0
SMALL
GASTEIGER

@<TRIPOS>ATOM
      1  N         29.9030  -52.4980    7.6820 N.3   254  LEU254     -0.1231
      2  CA        29.1910  -51.2390    7.9770 C.3   254  LEU254      0.1693
      3  C         28.7350  -51.0720    9.4350 C.2   254  LEU254      0.2592
      4  O         29.3040  -50.2800   10.1810 O.2   254  LEU254     -0.2718
      5  CB        28.0200  -51.0200    7.0000 C.3   254  LEU254      0.0284
      6  CG        28.5130  -50.9120    5.5500 C.3   254  LEU254      0.0019
      7  CD1       27.3570  -50.7880    4.5950 C.3   254  LEU254      0.0001
      8  CD2       29.5100  -49.7440    5.3470 C.3   254  LEU254      0.0001
      9  N         27.7270  -51.8320    9.8370 N.am  255  PHE255     -0.1962
     10  CA        27.2100  -51.7760   11.2060 C.3   255  PHE255      0.1771
     11  C         27.2680  -53.1550   11.8350 C.2   255  PHE255      0.2619
     12  O         26.9790  -54.1570   11.1780 O.2   255  PHE255     -0.2715
     13  CB        25.7570  -51.2970   11.2210 C.3   255  PHE255      0.0574
     14  CG        25.5420  -49.9900   10.5170 C.ar  255  PHE255     -0.0200
     15  CD1       25.8470  -48.7920   11.1510 C.ar  255  PHE255     -0.0042
     16  CD2       25.0490  -49.9570    9.2110 C.ar  255  PHE255     -0.0042
     17  CE1       25.6540  -47.5730   10.4990 C.ar  255  PHE255     -0.0003
     18  CE2       24.8570  -48.7460    8.5520 C.ar  255  PHE255     -0.0003
     19  CZ        25.1610  -47.5500    9.1960 C.ar  255  PHE255     -0.0000
     20  N         27.6500  -53.2180   13.1040 N.am  256  ARG256     -0.1977
     21  CA        27.6890  -54.5020   13.7740 C.3   256  ARG256      0.1597
     22  C         26.2980  -54.9110   14.2580 C.2   256  ARG256      0.2287
     23  O         25.9710  -54.7330   15.4300 O.2   256  ARG256     -0.2864
     24  CB        28.6610  -54.4930   14.9480 C.3   256  ARG256      0.0334
     25  CG        28.9310  -55.8940   15.4640 C.3   256  ARG256      0.0492
     26  CD        29.1360  -55.9160   16.9490 C.3   256  ARG256      0.2205
     27  NE        29.3810  -57.2840   17.3990 N.pl3 256  ARG256     -0.0865
     28  CZ        28.5840  -57.9500   18.2290 C.cat 256  ARG256      0.5346
     29  NH1       27.5060  -57.3560   18.7280 N.pl3 256  ARG256      0.1354
     30  NH2       28.8750  -59.1970   18.5790 N.pl3 256  ARG256      0.1354
     31  N         35.0230  -53.9940   15.2300 N.3   284  PHE284     -0.1241
     32  CA        33.5760  -54.1640   15.2000 C.3   284  PHE284      0.1605
     33  C         33.1230  -55.5900   15.5030 C.2   284  PHE284      0.2264
     34  O         32.1310  -55.7780   16.1950 O.2   284  PHE284     -0.2867
     35  CB        33.0090  -53.6980   13.8650 C.3   284  PHE284      0.0534
     36  CG        33.1600  -52.2300   13.6380 C.ar  284  PHE284     -0.0203
     37  CD1       32.5530  -51.3200   14.5020 C.ar  284  PHE284     -0.0042
     38  CD2       33.9040  -51.7510   12.5680 C.ar  284  PHE284     -0.0042
     39  CE1       32.6910  -49.9530   14.3090 C.ar  284  PHE284     -0.0003
     40  CE2       34.0470  -50.3710   12.3550 C.ar  284  PHE284     -0.0003
     41  CZ        33.4390  -49.4720   13.2250 C.ar  284  PHE284     -0.0000
     42  N         27.4350  -46.7310   -4.5350 N.3   386  ILE386     -0.1245
     43  CA        27.5490  -46.4970   -3.0950 C.3   386  ILE386      0.1561
     44  C         26.3460  -45.7080   -2.5760 C.2   386  ILE386      0.2260
     45  O         25.8850  -44.7760   -3.2250 O.2   386  ILE386     -0.2867
     46  CB        28.8760  -45.7690   -2.7560 C.3   386  ILE386      0.0252
     47  CG1       30.0730  -46.7430   -2.7560 C.3   386  ILE386      0.0019
     48  CG2       28.7860  -45.1100   -1.3740 C.3   386  ILE386      0.0019
     49  CD1       29.8110  -48.1190   -2.1270 C.3   386  ILE386      0.0001
     50  N         34.6880  -46.7360   -0.9150 N.3   412  GLN412     -0.1245
     51  CA        33.2420  -46.5020   -0.9550 C.3   412  GLN412      0.1566
     52  C         32.9450  -45.3290   -1.8780 C.2   412  GLN412      0.2260
     53  O         32.3350  -44.3280   -1.4680 O.2   412  GLN412     -0.2867
     54  CB        32.6670  -46.2330    0.4400 C.3   412  GLN412      0.0367
     55  CG        32.8830  -47.3390    1.4760 C.3   412  GLN412      0.0905
     56  CD        32.4990  -46.8580    2.8820 C.2   412  GLN412      0.2608
     57  OE1       33.1890  -46.0220    3.4800 O.2   412  GLN412     -0.2717
     58  NE2       31.3620  -47.3370    3.3830 N.am  412  GLN412     -0.0878
     59  N         22.1190  -42.5230    2.4250 N.3   471  MET471     -0.1230
     60  CA        23.0200  -43.2160    3.3570 C.3   471  MET471      0.1702
     61  C         23.5780  -42.2170    4.3830 C.2   471  MET471      0.2592
     62  O         23.6670  -42.5190    5.5860 O.2   471  MET471     -0.2718
     63  CB        24.1500  -43.9560    2.6210 C.3   471  MET471      0.0401
     64  CG        25.0010  -44.8560    3.5340 C.3   471  MET471      0.0596
     65  SD        26.3040  -45.8040    2.6880 S.3   471  MET471     -0.1393
     66  CE        27.2300  -46.4250    4.0970 C.3   471  MET471      0.0692
     67  N         23.8820  -41.0070    3.9110 N.am  472  VAL472     -0.1980
     68  CA        24.2940  -39.9170    4.7910 C.3   472  VAL472      0.1595
     69  C         23.1040  -39.4570    5.6500 C.2   472  VAL472      0.2287
     70  O         23.2250  -39.3170    6.8710 O.2   472  VAL472     -0.2864
     71  CB        24.8390  -38.7130    3.9710 C.3   472  VAL472      0.0276
     72  CG1       25.2420  -37.5490    4.8950 C.3   472  VAL472      0.0022
     73  CG2       26.0150  -39.1430    3.0980 C.3   472  VAL472      0.0022
     74  N         21.9390  -41.6580    8.7810 N.3   475  GLN475     -0.1245
     75  CA        22.9880  -41.6100    9.7990 C.3   475  GLN475      0.1566
     76  C         22.9980  -40.2560   10.5130 C.2   475  GLN475      0.2260
     77  O         23.2890  -40.1730   11.7080 O.2   475  GLN475     -0.2867
     78  CB        24.3730  -41.8650    9.1800 C.3   475  GLN475      0.0367
     79  CG        24.6620  -43.2950    8.7130 C.3   475  GLN475      0.0905
     80  CD        26.1120  -43.4570    8.2730 C.2   475  GLN475      0.2608
     81  OE1       26.3940  -43.7850    7.1170 O.2   475  GLN475     -0.2717
     82  NE2       27.0400  -43.2070    9.1930 N.am  475  GLN475     -0.0878
     83  N         22.5060  -39.6110   14.5980 N.3   479  LYS479     -0.1245
     84  CA        23.4720  -38.9170   15.4480 C.3   479  LYS479      0.1561
     85  C         22.9130  -37.5970   15.9750 C.2   479  LYS479      0.2260
     86  O         23.0730  -37.2740   17.1540 O.2   479  LYS479     -0.2867
     87  CB        24.7740  -38.6350   14.6930 C.3   479  LYS479      0.0271
     88  CG        25.6100  -39.8540   14.3360 C.3   479  LYS479      0.0035
     89  CD        26.9550  -39.4130   13.7540 C.3   479  LYS479      0.0206
     90  CE        27.2340  -40.0140   12.3810 C.3   479  LYS479      0.1093
     91  NZ        28.5430  -39.5220   11.8230 N.3   479  LYS479     -0.1314
@<TRIPOS>BOND
     1    42    43    1
     2    45    44    2
     3    43    46    1
     4    43    44    1
     5    46    47    1
     6    46    48    1
     7    47    49    1
     8    52    53    2
     9    52    51    1
    10    51    50    1
    11    51    54    1
    12    54    55    1
    13    55    56    1
    14    59    60    1
    15    63    60    1
    16    63    64    1
    17    65    64    1
    18    65    66    1
    19    56    58   am
    20    56    57    2
    21    73    71    1
    22    60    61    1
    23    67    61   am
    24    67    68    1
    25    71    68    1
    26    71    72    1
    27    61    62    2
    28     7     6    1
    29    68    69    1
    30     8     6    1
    31     6     5    1
    32    69    70    2
    33     5     2    1
    34    81    80    2
    35     1     2    1
    36     2     3    1
    37    80    79    1
    38    80    82   am
    39    18    19   ar
    40    18    16   ar
    41    79    78    1
    42    74    75    1
    43    78    75    1
    44    19    17   ar
    45    16    14   ar
    46     3     9   am
    47     3     4    2
    48    75    76    1
    49     9    10    1
    50    17    15   ar
    51    76    77    2
    52    14    15   ar
    53    14    13    1
    54    12    11    2
    55    10    13    1
    56    10    11    1
    57    91    90    1
    58    11    20   am
    59    40    38   ar
    60    40    41   ar
    61    90    89    1
    62    38    36   ar
    63    20    21    1
    64    41    39   ar
    65    36    35    1
    66    36    37   ar
    67    89    88    1
    68    21    22    1
    69    21    24    1
    70    35    32    1
    71    22    23    2
    72    39    37   ar
    73    88    87    1
    74    83    84    1
    75    87    84    1
    76    24    25    1
    77    32    31    1
    78    32    33    1
    79    84    85    1
    80    25    26    1
    81    33    34    2
    82    85    86    2
    83    26    27    1
    84    27    28    2
    85    28    30    1
    86    28    29    1
