@<TRIPOS>MOLECULE
tmp/4rjjF05.pdb
 92 89 0 0 0
SMALL
GASTEIGER

@<TRIPOS>ATOM
      1  N         35.7000  -14.0670   -8.3080 N.3    60  LEU60      -0.1231
      2  CA        34.7760  -12.9590   -8.4260 C.3    60  LEU60       0.1693
      3  C         34.7900  -12.0140   -7.2300 C.2    60  LEU60       0.2592
      4  O         34.6000  -10.8180   -7.4120 O.2    60  LEU60      -0.2718
      5  CB        33.3760  -13.4790   -8.6890 C.3    60  LEU60       0.0284
      6  CG        33.2620  -14.1090  -10.0850 C.3    60  LEU60       0.0019
      7  CD1       31.9490  -14.8140  -10.1930 C.3    60  LEU60       0.0001
      8  CD2       33.3570  -13.0590  -11.1570 C.3    60  LEU60       0.0001
      9  N         35.0990  -12.5100   -6.0320 N.am   61  THR61      -0.1953
     10  CA        34.9530  -11.6830   -4.8290 C.3    61  THR61       0.1897
     11  C         36.2780  -11.2760   -4.1610 C.2    61  THR61       0.2313
     12  O         36.3060  -10.3490   -3.3540 O.2    61  THR61      -0.2863
     13  CB        34.0460  -12.3760   -3.7620 C.3    61  THR61       0.1794
     14  OG1       34.7230  -13.5090   -3.1880 O.3    61  THR61      -0.2208
     15  CG2       32.7110  -12.8100   -4.3880 C.3    61  THR61       0.0378
     16  N         39.7450   -6.2130  -10.4170 N.3   211  PRO211     -0.2116
     17  CA        39.0350   -4.9340  -10.6110 C.3   211  PRO211      0.1372
     18  C         39.8790   -3.7300  -10.2290 C.2   211  PRO211      0.2244
     19  O         39.9860   -2.8030  -11.0410 O.2   211  PRO211     -0.2868
     20  CB        37.8190   -5.0550   -9.6870 C.3   211  PRO211      0.0268
     21  CG        37.5490   -6.5480   -9.6450 C.3   211  PRO211      0.0207
     22  CD        38.9230   -7.1990   -9.6900 C.3   211  PRO211      0.0892
     23  N         28.4860  -11.6420  -16.6370 N.3   379  THR379     -0.1218
     24  CA        29.6640  -12.4840  -16.5650 C.3   379  THR379      0.1862
     25  C         29.5490  -13.6220  -17.5750 C.2   379  THR379      0.2287
     26  O         28.5030  -14.2850  -17.6750 O.2   379  THR379     -0.2866
     27  CB        29.8840  -13.0360  -15.1510 C.3   379  THR379      0.1770
     28  OG1       30.1840  -11.9460  -14.2670 O.3   379  THR379     -0.2211
     29  CG2       31.0690  -13.9890  -15.1430 C.3   379  THR379      0.0375
     30  N         34.6530   -5.0910  -18.9490 N.3   399  GLU399     -0.1231
     31  CA        34.5380   -4.9270  -17.5040 C.3   399  GLU399      0.1684
     32  C         35.3100   -6.0130  -16.8070 C.2   399  GLU399      0.2434
     33  O         35.2750   -7.1730  -17.2420 O.2   399  GLU399     -0.2733
     34  CB        33.0610   -5.0230  -17.1010 C.3   399  GLU399      0.0402
     35  CG        32.2080   -3.9070  -17.6710 C.3   399  GLU399      0.1161
     36  CD        30.9570   -3.6910  -16.8500 C.2   399  GLU399      0.3649
     37  OE1       30.1150   -2.8310  -17.2240 O.co2 399  GLU399     -0.2457
     38  OE2       30.8210   -4.3900  -15.8210 O.co2 399  GLU399     -0.2457
     39  N         35.9560   -5.6630  -15.6810 N.am  400  PRO400     -0.2718
     40  CA        36.6930   -6.6770  -14.9180 C.3   400  PRO400      0.1535
     41  C         35.7720   -7.8420  -14.5880 C.2   400  PRO400      0.2598
     42  O         34.5780   -7.6220  -14.3530 O.2   400  PRO400     -0.2715
     43  CB        37.0860   -5.9390  -13.6280 C.3   400  PRO400      0.0310
     44  CG        37.1030   -4.4680  -14.0130 C.3   400  PRO400      0.0237
     45  CD        35.9830   -4.3340  -15.0260 C.3   400  PRO400      0.0939
     46  N         36.3060   -9.0600  -14.6430 N.am  401  LEU401     -0.1964
     47  CA        35.5770  -10.2480  -14.2100 C.3   401  LEU401      0.1728
     48  C         34.2980  -10.5490  -14.9940 C.2   401  LEU401      0.2616
     49  O         33.3530  -11.1250  -14.4350 O.2   401  LEU401     -0.2715
     50  CB        35.2570  -10.1600  -12.7070 C.3   401  LEU401      0.0311
     51  CG        36.4270   -9.8740  -11.7550 C.3   401  LEU401      0.0022
     52  CD1       35.9200   -9.7180  -10.3280 C.3   401  LEU401      0.0001
     53  CD2       37.4930  -10.9730  -11.8250 C.3   401  LEU401      0.0001
     54  N         34.2620  -10.2140  -16.2830 N.am  402  THR402     -0.1951
     55  CA        33.0930  -10.5910  -17.0780 C.3   402  THR402      0.1897
     56  C         33.4140  -11.6080  -18.1890 C.2   402  THR402      0.2313
     57  O         32.5330  -11.9820  -18.9600 O.2   402  THR402     -0.2863
     58  CB        32.3290   -9.3580  -17.6380 C.3   402  THR402      0.1794
     59  OG1       33.1990   -8.5430  -18.4370 O.3   402  THR402     -0.2208
     60  CG2       31.7390   -8.5470  -16.4680 C.3   402  THR402      0.0378
     61  N         27.1570  -15.1850   -6.7090 N.3   425  VAL425     -0.1231
     62  CA        27.8710  -13.9750   -6.3350 C.3   425  VAL425      0.1692
     63  C         27.0970  -12.7820   -6.8490 C.2   425  VAL425      0.2592
     64  O         27.0700  -11.7200   -6.2250 O.2   425  VAL425     -0.2718
     65  CB        29.2880  -13.9630   -6.9490 C.3   425  VAL425      0.0266
     66  CG1       29.9140  -12.5900   -6.8370 C.3   425  VAL425      0.0020
     67  CG2       30.1630  -14.9970   -6.2700 C.3   425  VAL425      0.0020
     68  N         26.4180  -12.9890   -7.9720 N.am  426  LYS426     -0.1966
     69  CA        25.6590  -11.9290   -8.6210 C.3   426  LYS426      0.1713
     70  C         24.1960  -12.3030   -8.7800 C.2   426  LYS426      0.2458
     71  O         23.7350  -12.5600   -9.8980 O.2   426  LYS426     -0.2730
     72  CB        26.2640  -11.6160   -9.9820 C.3   426  LYS426      0.0311
     73  CG        27.6180  -10.8990   -9.9390 C.3   426  LYS426      0.0038
     74  CD        28.2010  -10.9210  -11.3410 C.3   426  LYS426      0.0206
     75  CE        28.4860   -9.5440  -11.8460 C.3   426  LYS426      0.1093
     76  NZ        28.6080   -9.5920  -13.3340 N.3   426  LYS426     -0.1314
     77  N         23.4600  -12.3430   -7.6560 N.am  427  PRO427     -0.2727
     78  CA        22.0480  -12.7260   -7.7330 C.3   427  PRO427      0.1402
     79  C         21.2370  -11.7260   -8.5590 C.2   427  PRO427      0.2269
     80  O         21.4870  -10.5160   -8.5050 O.2   427  PRO427     -0.2865
     81  CB        21.5950  -12.7350   -6.2600 C.3   427  PRO427      0.0296
     82  CG        22.5480  -11.8080   -5.5650 C.3   427  PRO427      0.0237
     83  CD        23.8710  -11.9830   -6.2830 C.3   427  PRO427      0.0939
     84  N         21.2630  -11.6550  -11.8300 N.3   429  GLU429     -0.1245
     85  CA        21.8470  -11.4310  -13.1510 C.3   429  GLU429      0.1567
     86  C         21.9450  -12.6960  -13.9680 C.2   429  GLU429      0.2260
     87  O         22.3130  -13.7530  -13.4400 O.2   429  GLU429     -0.2867
     88  CB        23.2570  -10.8270  -13.0640 C.3   429  GLU429      0.0388
     89  CG        23.4090   -9.5340  -12.2890 C.3   429  GLU429      0.1160
     90  CD        24.8060   -8.9550  -12.5000 C.2   429  GLU429      0.3649
     91  OE1       25.4620   -9.3650  -13.4890 O.co2 429  GLU429     -0.2457
     92  OE2       25.2460   -8.0980  -11.7000 O.co2 429  GLU429     -0.2457
@<TRIPOS>BOND
     1    57    56    2
     2    30    31    1
     3    59    58    1
     4    56    55    1
     5    26    25    2
     6    35    34    1
     7    35    36    1
     8    58    55    1
     9    58    60    1
    10    25    24    1
    11    31    34    1
    12    31    32    1
    13    33    32    2
    14    37    36   ar
    15    55    54    1
    16    36    38   ar
    17    32    39   am
    18    23    24    1
    19    24    27    1
    20    54    48   am
    21    39    45    1
    22    39    40    1
    23    27    29    1
    24    27    28    1
    25    45    44    1
    26    48    49    2
    27    48    47    1
    28    40    41    1
    29    40    43    1
    30    46    41   am
    31    46    47    1
    32    41    42    2
    33    47    50    1
    34    44    43    1
    35    86    87    2
    36    86    85    1
    37    91    90   ar
    38    76    75    1
    39    85    88    1
    40    85    84    1
    41    88    89    1
    42    50    51    1
    43    90    89    1
    44    90    92   ar
    45    75    74    1
    46    53    51    1
    47    51    52    1
    48    74    73    1
    49     8     6    1
    50    19    18    2
    51    17    16    1
    52    17    18    1
    53    17    20    1
    54    16    22    1
    55     7     6    1
    56     6     5    1
    57    72    73    1
    58    72    69    1
    59    71    70    2
    60    22    21    1
    61    20    21    1
    62    70    69    1
    63    70    77   am
    64     5     2    1
    65    69    68    1
    66    79    80    2
    67    79    78    1
    68     2     1    1
    69     2     3    1
    70    68    63   am
    71    78    77    1
    72    78    81    1
    73    77    83    1
    74     4     3    2
    75     3     9   am
    76    65    66    1
    77    65    62    1
    78    65    67    1
    79    63    62    1
    80    63    64    2
    81    61    62    1
    82    83    82    1
    83    81    82    1
    84     9    10    1
    85    10    11    1
    86    10    13    1
    87    15    13    1
    88    11    12    2
    89    13    14    1
