@<TRIPOS>MOLECULE
tmp/4rjjF04.pdb
 100 95 0 0 0
SMALL
GASTEIGER

@<TRIPOS>ATOM
      1  N         35.8940  -17.2830   -5.4450 N.3    58  GLY58      -0.1210
      2  CA        37.1580  -16.6630   -5.1250 C.3    58  GLY58       0.1956
      3  C         37.5690  -15.6420   -6.1780 C.2    58  GLY58       0.2612
      4  O         37.9810  -14.5240   -5.8450 O.2    58  GLY58      -0.2717
      5  N         37.4620  -16.0070   -7.4520 N.am   59  ARG59      -0.1965
      6  CA        37.8850  -15.0870   -8.5040 C.3    59  ARG59       0.1729
      7  C         36.9910  -13.8620   -8.5230 C.2    59  ARG59       0.2616
      8  O         37.4560  -12.7480   -8.7200 O.2    59  ARG59      -0.2715
      9  CB        37.8870  -15.7450   -9.8850 C.3    59  ARG59       0.0348
     10  CG        38.6410  -14.9200  -10.9240 C.3    59  ARG59       0.0492
     11  CD        38.7980  -15.6230  -12.2610 C.3    59  ARG59       0.2205
     12  NE        39.5950  -16.8480  -12.1760 N.pl3  59  ARG59      -0.0865
     13  CZ        40.0560  -17.5210  -13.2360 C.cat  59  ARG59       0.5346
     14  NH1       39.8290  -17.0740  -14.4680 N.pl3  59  ARG59       0.1354
     15  NH2       40.7680  -18.6340  -13.0710 N.pl3  59  ARG59       0.1354
     16  N         35.7000  -14.0670   -8.3080 N.am   60  LEU60      -0.1963
     17  CA        34.7760  -12.9590   -8.4260 C.3    60  LEU60       0.1728
     18  C         34.7900  -12.0140   -7.2300 C.2    60  LEU60       0.2617
     19  O         34.6000  -10.8180   -7.4120 O.2    60  LEU60      -0.2715
     20  CB        33.3760  -13.4790   -8.6890 C.3    60  LEU60       0.0311
     21  CG        33.2620  -14.1090  -10.0850 C.3    60  LEU60       0.0022
     22  CD1       31.9490  -14.8140  -10.1930 C.3    60  LEU60       0.0001
     23  CD2       33.3570  -13.0590  -11.1570 C.3    60  LEU60       0.0001
     24  N         35.0990  -12.5100   -6.0320 N.am   61  THR61      -0.1937
     25  CA        34.9530  -11.6830   -4.8290 C.3    61  THR61       0.2028
     26  C         36.2780  -11.2760   -4.1610 C.2    61  THR61       0.2643
     27  O         36.3060  -10.3490   -3.3540 O.2    61  THR61      -0.2714
     28  CB        34.0460  -12.3760   -3.7620 C.3    61  THR61       0.1808
     29  OG1       34.7230  -13.5090   -3.1880 O.3    61  THR61      -0.2208
     30  CG2       32.7110  -12.8100   -4.3880 C.3    61  THR61       0.0379
     31  N         37.3610  -11.9910   -4.4490 N.am   62  GLY62      -0.1939
     32  CA        38.6040  -11.7300   -3.7550 C.3    62  GLY62       0.2014
     33  C         38.6430  -12.3780   -2.3790 C.2    62  GLY62       0.2638
     34  O         39.6560  -12.3290   -1.6800 O.2    62  GLY62      -0.2714
     35  N         37.5360  -12.9800   -1.9710 N.am   63  LYS63      -0.1977
     36  CA        37.5230  -13.7530   -0.7330 C.3    63  LYS63       0.1596
     37  C         37.4180  -15.2220   -1.0600 C.2    63  LYS63       0.2287
     38  O         36.6860  -15.5970   -1.9710 O.2    63  LYS63      -0.2864
     39  CB        36.3800  -13.2980    0.1780 C.3    63  LYS63       0.0298
     40  CG        36.5860  -11.8780    0.6310 C.3    63  LYS63       0.0038
     41  CD        37.4660  -11.9130    1.8810 C.3    63  LYS63       0.0206
     42  CE        38.5110  -10.8010    1.8900 C.3    63  LYS63       0.1093
     43  NZ        39.8240  -11.2880    1.3000 N.3    63  LYS63      -0.1314
     44  N         45.4350  -18.2720   -9.5900 N.3    89  GLY89      -0.1225
     45  CA        45.3490  -17.0590   -8.7920 C.3    89  GLY89       0.1811
     46  C         44.0520  -16.8580   -8.0340 C.2    89  GLY89       0.2280
     47  O         43.7240  -15.7470   -7.6340 O.2    89  GLY89      -0.2866
     48  N         41.6210  -17.5450   -4.8360 N.3    91  PRO91      -0.2116
     49  CA        41.6680  -17.9710   -3.4340 C.3    91  PRO91       0.1372
     50  C         40.5640  -18.9950   -3.1240 C.2    91  PRO91       0.2244
     51  O         39.3840  -18.7540   -3.4370 O.2    91  PRO91      -0.2868
     52  CB        41.4460  -16.6580   -2.6660 C.3    91  PRO91       0.0268
     53  CG        40.5940  -15.8020   -3.6100 C.3    91  PRO91       0.0207
     54  CD        41.0540  -16.1940   -5.0150 C.3    91  PRO91       0.0892
     55  N         44.4210  -16.0330    0.4720 N.3   146  SER146     -0.1217
     56  CA        44.1800  -14.6710   -0.0080 C.3   146  SER146      0.1889
     57  C         45.4650  -13.9560   -0.3700 C.2   146  SER146      0.2288
     58  O         45.4800  -13.1200   -1.2600 O.2   146  SER146     -0.2866
     59  CB        43.4730  -13.8390    1.0670 C.3   146  SER146      0.2089
     60  OG        42.2320  -14.4150    1.4200 O.3   146  SER146     -0.2183
     61  N         47.4840  -15.3390   -4.7450 N.3   150  ALA150     -0.1245
     62  CA        46.3520  -16.0730   -4.1930 C.3   150  ALA150      0.1562
     63  C         46.2940  -17.4960   -4.7550 C.2   150  ALA150      0.2260
     64  O         46.7700  -17.7580   -5.8660 O.2   150  ALA150     -0.2867
     65  CB        45.0410  -15.3280   -4.4400 C.3   150  ALA150      0.0290
     66  N         42.4560   -8.1630  -11.8150 N.3   210  ARG210     -0.1231
     67  CA        41.6090   -7.8090  -10.6760 C.3   210  ARG210      0.1679
     68  C         40.9890   -6.4140  -10.8980 C.2   210  ARG210      0.2434
     69  O         41.6420   -5.5210  -11.4700 O.2   210  ARG210     -0.2733
     70  CB        42.4290   -7.8240   -9.3660 C.3   210  ARG210      0.0321
     71  CG        42.7360   -9.2110   -8.7860 C.3   210  ARG210      0.0489
     72  CD        43.8470   -9.9370   -9.5520 C.3   210  ARG210      0.2205
     73  NE        44.4870  -10.9730   -8.7310 N.pl3 210  ARG210     -0.0865
     74  CZ        44.2000  -12.2790   -8.7800 C.cat 210  ARG210      0.5346
     75  NH1       43.2760  -12.7560   -9.6270 N.pl3 210  ARG210      0.1354
     76  NH2       44.8480  -13.1170   -7.9780 N.pl3 210  ARG210      0.1354
     77  N         39.7450   -6.2130  -10.4170 N.am  211  PRO211     -0.2718
     78  CA        39.0350   -4.9340  -10.6110 C.3   211  PRO211      0.1535
     79  C         39.8790   -3.7300  -10.2290 C.2   211  PRO211      0.2598
     80  O         39.9860   -2.8030  -11.0410 O.2   211  PRO211     -0.2715
     81  CB        37.8190   -5.0550   -9.6870 C.3   211  PRO211      0.0310
     82  CG        37.5490   -6.5480   -9.6450 C.3   211  PRO211      0.0237
     83  CD        38.9230   -7.1990   -9.6900 C.3   211  PRO211      0.0939
     84  N         40.4810   -3.7450   -9.0410 N.am  212  GLU212     -0.1978
     85  CA        41.3380   -2.6330   -8.6110 C.3   212  GLU212      0.1602
     86  C         42.5730   -2.4470   -9.4830 C.2   212  GLU212      0.2287
     87  O         43.0600   -1.3310   -9.6380 O.2   212  GLU212     -0.2864
     88  CB        41.7750   -2.7740   -7.1450 C.3   212  GLU212      0.0415
     89  CG        40.6850   -2.4640   -6.1340 C.3   212  GLU212      0.1163
     90  CD        40.0860   -1.0640   -6.3370 C.2   212  GLU212      0.3649
     91  OE1       40.8680   -0.0950   -6.4630 O.co2 212  GLU212     -0.2457
     92  OE2       38.8360   -0.9260   -6.3780 O.co2 212  GLU212     -0.2457
     93  N         36.3060   -9.0600  -14.6430 N.3   401  LEU401     -0.1245
     94  CA        35.5770  -10.2480  -14.2100 C.3   401  LEU401      0.1561
     95  C         34.2980  -10.5490  -14.9940 C.2   401  LEU401      0.2260
     96  O         33.3530  -11.1250  -14.4350 O.2   401  LEU401     -0.2867
     97  CB        35.2570  -10.1600  -12.7070 C.3   401  LEU401      0.0270
     98  CG        36.4270   -9.8740  -11.7550 C.3   401  LEU401      0.0019
     99  CD1       35.9200   -9.7180  -10.3280 C.3   401  LEU401      0.0001
    100  CD2       37.4930  -10.9730  -11.8250 C.3   401  LEU401      0.0001
@<TRIPOS>BOND
     1    95    96    2
     2    95    94    1
     3    93    94    1
     4    14    13    1
     5    94    97    1
     6    13    15    1
     7    13    12    2
     8    97    98    1
     9    11    12    1
    10    11    10    1
    11   100    98    1
    12    66    67    1
    13    98    99    1
    14    69    68    2
    15    23    21    1
    16    80    79    2
    17    10     9    1
    18    68    67    1
    19    68    77   am
    20    67    70    1
    21    78    77    1
    22    78    79    1
    23    78    81    1
    24    77    83    1
    25    79    84   am
    26    22    21    1
    27    21    20    1
    28     9     6    1
    29    83    82    1
    30    81    82    1
    31    87    86    2
    32    75    74    1
    33    44    45    1
    34    72    71    1
    35    72    73    1
    36    86    85    1
    37    70    71    1
    38    84    85    1
    39    45    46    1
    40    74    73    2
    41    74    76    1
    42     8     7    2
    43    20    17    1
    44    85    88    1
    45     7     6    1
    46     7    16   am
    47     6     5    1
    48    17    16    1
    49    17    18    1
    50    46    47    2
    51     5     3   am
    52    19    18    2
    53    18    24   am
    54    88    89    1
    55    91    90   ar
    56    92    90   ar
    57    90    89    1
    58     3     4    2
    59     3     2    1
    60    24    25    1
    61    64    63    2
    62     1     2    1
    63    54    48    1
    64    54    53    1
    65    48    49    1
    66    25    26    1
    67    25    28    1
    68    63    62    1
    69    61    62    1
    70    31    26   am
    71    31    32    1
    72    65    62    1
    73    30    28    1
    74    26    27    2
    75    28    29    1
    76    32    33    1
    77    53    52    1
    78    51    50    2
    79    49    50    1
    80    49    52    1
    81    33    35   am
    82    33    34    2
    83    35    36    1
    84    38    37    2
    85    58    57    2
    86    37    36    1
    87    36    39    1
    88    57    56    1
    89    56    55    1
    90    56    59    1
    91    39    40    1
    92    40    41    1
    93    59    60    1
    94    43    42    1
    95    41    42    1
