@<TRIPOS>MOLECULE
tmp/4rjjE02.pdb
 174 171 0 0 0
SMALL
GASTEIGER

@<TRIPOS>ATOM
      1  N         41.1350  -40.0270   -7.4880 N.3    82  THR82      -0.1218
      2  CA        40.1880  -40.8700   -6.8070 C.3    82  THR82       0.1862
      3  C         40.1790  -42.2640   -7.3940 C.2    82  THR82       0.2287
      4  O         40.1690  -43.2600   -6.6650 O.2    82  THR82      -0.2866
      5  CB        38.7890  -40.2520   -6.8690 C.3    82  THR82       0.1770
      6  OG1       38.7850  -39.0230   -6.1210 O.3    82  THR82      -0.2211
      7  CG2       37.7580  -41.2110   -6.2980 C.3    82  THR82       0.0375
      8  N         27.4350  -46.7310   -4.5350 N.3   386  ILE386     -0.1231
      9  CA        27.5490  -46.4970   -3.0950 C.3   386  ILE386      0.1692
     10  C         26.3460  -45.7080   -2.5760 C.2   386  ILE386      0.2593
     11  O         25.8850  -44.7760   -3.2250 O.2   386  ILE386     -0.2718
     12  CB        28.8760  -45.7690   -2.7560 C.3   386  ILE386      0.0266
     13  CG1       30.0730  -46.7430   -2.7560 C.3   386  ILE386      0.0019
     14  CG2       28.7860  -45.1100   -1.3740 C.3   386  ILE386      0.0020
     15  CD1       29.8110  -48.1190   -2.1270 C.3   386  ILE386      0.0001
     16  N         25.8140  -46.1010   -1.4240 N.am  387  GLY387     -0.1942
     17  CA        24.6280  -45.4520   -0.8920 C.3   387  GLY387      0.2014
     18  C         23.7950  -46.4750   -0.1660 C.2   387  GLY387      0.2640
     19  O         24.2510  -47.5960    0.0660 O.2   387  GLY387     -0.2714
     20  N         22.5720  -46.0970    0.1860 N.am  388  SER388     -0.1935
     21  CA        21.6750  -46.9870    0.9140 C.3   388  SER388      0.2055
     22  C         21.2970  -48.2110    0.0960 C.2   388  SER388      0.2643
     23  O         21.2630  -49.3390    0.6180 O.2   388  SER388     -0.2714
     24  CB        20.4280  -46.2260    1.3440 C.3   388  SER388      0.2130
     25  OG        20.7450  -45.3670    2.4260 O.3   388  SER388     -0.2179
     26  N         21.0320  -47.9840   -1.1920 N.am  389  HIS389     -0.1973
     27  CA        20.7880  -49.0800   -2.1270 C.3   389  HIS389      0.1656
     28  C         21.9360  -50.0920   -2.0410 C.2   389  HIS389      0.2291
     29  O         21.7200  -51.3070   -2.0930 O.2   389  HIS389     -0.2864
     30  CB        20.6850  -48.5520   -3.5600 C.3   389  HIS389      0.0771
     31  CG        21.9850  -48.0630   -4.1100 C.ar  389  HIS389      0.0820
     32  ND1       22.4780  -46.7970   -3.8510 N.ar  389  HIS389     -0.2267
     33  CD2       22.9360  -48.6900   -4.8480 C.ar  389  HIS389      0.1154
     34  CE1       23.6500  -46.6580   -4.4390 C.ar  389  HIS389      0.1986
     35  NE2       23.9540  -47.7920   -5.0530 N.ar  389  HIS389     -0.2212
     36  N         37.2050  -47.5350   -0.6000 N.3   411  MET411     -0.1230
     37  CA        37.0330  -46.0930   -0.6370 C.3   411  MET411      0.1702
     38  C         35.5390  -45.7490   -0.6260 C.2   411  MET411      0.2592
     39  O         35.1660  -44.6090   -0.3520 O.2   411  MET411     -0.2718
     40  CB        37.7100  -45.5540   -1.8940 C.3   411  MET411      0.0401
     41  CG        39.0330  -44.8210   -1.7050 C.3   411  MET411      0.0596
     42  SD        39.3610  -44.0690   -0.0920 S.3   411  MET411     -0.1393
     43  CE        40.5820  -45.1960    0.5640 C.3   411  MET411      0.0692
     44  N         34.6880  -46.7360   -0.9150 N.am  412  GLN412     -0.1966
     45  CA        33.2420  -46.5020   -0.9550 C.3   412  GLN412      0.1733
     46  C         32.9450  -45.3290   -1.8780 C.2   412  GLN412      0.2617
     47  O         32.3350  -44.3280   -1.4680 O.2   412  GLN412     -0.2715
     48  CB        32.6670  -46.2330    0.4400 C.3   412  GLN412      0.0408
     49  CG        32.8830  -47.3390    1.4760 C.3   412  GLN412      0.0908
     50  CD        32.4990  -46.8580    2.8820 C.2   412  GLN412      0.2608
     51  OE1       33.1890  -46.0220    3.4800 O.2   412  GLN412     -0.2717
     52  NE2       31.3620  -47.3370    3.3830 N.am  412  GLN412     -0.0878
     53  N         33.4280  -45.4370   -3.1110 N.am  413  THR413     -0.1937
     54  CA        33.4480  -44.3170   -4.0470 C.3   413  THR413      0.2028
     55  C         32.1720  -44.1790   -4.8740 C.2   413  THR413      0.2642
     56  O         31.8110  -45.1090   -5.6060 O.2   413  THR413     -0.2714
     57  CB        34.6390  -44.4690   -5.0060 C.3   413  THR413      0.1808
     58  OG1       35.8550  -44.5490   -4.2460 O.3   413  THR413     -0.2208
     59  CG2       34.6930  -43.3090   -5.9980 C.3   413  THR413      0.0379
     60  N         31.5040  -43.0280   -4.7830 N.am  414  LEU414     -0.1977
     61  CA        30.3250  -42.7710   -5.6140 C.3   414  LEU414      0.1596
     62  C         30.6310  -42.7290   -7.1140 C.2   414  LEU414      0.2287
     63  O         31.6440  -42.1750   -7.5310 O.2   414  LEU414     -0.2864
     64  CB        29.6500  -41.4590   -5.2200 C.3   414  LEU414      0.0297
     65  CG        28.8200  -41.4900   -3.9430 C.3   414  LEU414      0.0022
     66  CD1       28.4260  -40.0730   -3.5350 C.3   414  LEU414      0.0001
     67  CD2       27.5910  -42.3360   -4.1790 C.3   414  LEU414      0.0001
     68  N         22.3260  -45.4220   -6.8450 N.3   438  GLY438     -0.1210
     69  CA        21.3210  -44.5060   -6.3440 C.3   438  GLY438      0.1956
     70  C         21.2250  -43.3520   -7.3290 C.2   438  GLY438      0.2612
     71  O         21.9920  -43.2960   -8.3010 O.2   438  GLY438     -0.2717
     72  N         20.3020  -42.4220   -7.0940 N.am  439  ASP439     -0.1959
     73  CA        20.1730  -41.2990   -8.0180 C.3   439  ASP439      0.1840
     74  C         21.2980  -40.2910   -7.8290 C.2   439  ASP439      0.2623
     75  O         21.7290  -39.6570   -8.7870 O.2   439  ASP439     -0.2715
     76  CB        18.7840  -40.6460   -7.9660 C.3   439  ASP439      0.1450
     77  CG        18.2310  -40.5420   -6.5610 C.2   439  ASP439      0.3671
     78  OD1       18.9450  -40.8940   -5.5880 O.co2 439  ASP439     -0.2456
     79  OD2       17.0580  -40.1250   -6.4390 O.co2 439  ASP439     -0.2456
     80  N         21.8210  -40.1990   -6.6130 N.am  440  GLY440     -0.1940
     81  CA        22.9360  -39.3110   -6.3650 C.3   440  GLY440      0.2014
     82  C         24.1830  -39.7740   -7.1020 C.2   440  GLY440      0.2639
     83  O         24.7770  -39.0150   -7.8730 O.2   440  GLY440     -0.2714
     84  N         24.5910  -41.0150   -6.8500 N.am  441  GLY441     -0.1954
     85  CA        25.7740  -41.5680   -7.4760 C.3   441  GLY441      0.1869
     86  C         25.6540  -41.7080   -8.9830 C.2   441  GLY441      0.2309
     87  O         26.6740  -41.6630   -9.6890 O.2   441  GLY441     -0.2863
     88  N         27.2260  -38.8200  -10.6630 N.3   444  PHE444     -0.1241
     89  CA        28.6960  -38.7010  -10.6080 C.3   444  PHE444      0.1605
     90  C         29.3740  -39.1580  -11.9080 C.2   444  PHE444      0.2264
     91  O         30.4250  -38.6310  -12.2740 O.2   444  PHE444     -0.2867
     92  CB        29.2960  -39.4720   -9.4260 C.3   444  PHE444      0.0534
     93  CG        29.3730  -38.6730   -8.1370 C.ar  444  PHE444     -0.0203
     94  CD1       28.2300  -38.4310   -7.3830 C.ar  444  PHE444     -0.0042
     95  CD2       30.5960  -38.2230   -7.6490 C.ar  444  PHE444     -0.0042
     96  CE1       28.2910  -37.7190   -6.1830 C.ar  444  PHE444     -0.0003
     97  CE2       30.6650  -37.5160   -6.4450 C.ar  444  PHE444     -0.0003
     98  CZ        29.5120  -37.2660   -5.7130 C.ar  444  PHE444     -0.0000
     99  N         17.9940  -46.6290   -8.2720 N.3   464  TRP464     -0.1241
    100  CA        17.0990  -46.5460   -7.1210 C.3   464  TRP464      0.1605
    101  C         16.7480  -45.0870   -6.8650 C.2   464  TRP464      0.2264
    102  O         17.6070  -44.2830   -6.4870 O.2   464  TRP464     -0.2867
    103  CB        17.7510  -47.1280   -5.8610 C.3   464  TRP464      0.0550
    104  CG        18.0100  -48.5990   -5.9100 C.ar  464  TRP464      0.0003
    105  CD1       18.4580  -49.3240   -6.9840 C.ar  464  TRP464      0.0946
    106  CD2       17.8190  -49.5430   -4.8420 C.ar  464  TRP464      0.0152
    107  NE1       18.5770  -50.6520   -6.6400 N.ar  464  TRP464     -0.2442
    108  CE2       18.1860  -50.8160   -5.3340 C.ar  464  TRP464      0.0810
    109  CE3       17.3820  -49.4360   -3.5160 C.ar  464  TRP464      0.0012
    110  CZ2       18.1320  -51.9750   -4.5490 C.ar  464  TRP464      0.0191
    111  CZ3       17.3310  -50.5940   -2.7320 C.ar  464  TRP464      0.0001
    112  CH2       17.7030  -51.8420   -3.2530 C.ar  464  TRP464      0.0015
    113  N         14.9390  -42.0010   -4.9940 N.3   466  ASP466     -0.1239
    114  CA        14.3980  -41.4240   -3.7490 C.3   466  ASP466      0.1674
    115  C         14.6060  -39.9000   -3.5930 C.2   466  ASP466      0.2266
    116  O         14.0290  -39.2910   -2.6900 O.2   466  ASP466     -0.2867
    117  CB        15.0180  -42.0990   -2.5200 C.3   466  ASP466      0.1410
    118  CG        16.3170  -41.4160   -2.0620 C.2   466  ASP466      0.3668
    119  OD1       17.1940  -41.1440   -2.9120 O.co2 466  ASP466     -0.2456
    120  OD2       16.4610  -41.1350   -0.8460 O.co2 466  ASP466     -0.2456
    121  N         17.4510  -38.1930   -2.5340 N.3   468  THR468     -0.1203
    122  CA        18.3770  -37.7370   -1.4820 C.3   468  THR468      0.1994
    123  C         19.7260  -38.4700   -1.4460 C.2   468  THR468      0.2618
    124  O         19.8950  -39.5320   -2.0470 O.2   468  THR468     -0.2717
    125  CB        17.7720  -37.8440   -0.0430 C.3   468  THR468      0.1784
    126  OG1       17.8280  -39.2070    0.4010 O.3   468  THR468     -0.2211
    127  CG2       16.3240  -37.3420    0.0140 C.3   468  THR468      0.0376
    128  N         20.6860  -37.8850   -0.7350 N.am  469  TYR469     -0.1961
    129  CA        21.8750  -38.6180   -0.3280 C.3   469  TYR469      0.1771
    130  C         21.5140  -39.4170    0.9340 C.2   469  TYR469      0.2620
    131  O         21.9260  -39.0540    2.0420 O.2   469  TYR469     -0.2715
    132  CB        23.0290  -37.6570   -0.0300 C.3   469  TYR469      0.0574
    133  CG        23.6540  -36.9810   -1.2460 C.ar  469  TYR469     -0.0198
    134  CD1       23.8430  -37.6740   -2.4400 C.ar  469  TYR469     -0.0009
    135  CD2       24.0810  -35.6530   -1.1830 C.ar  469  TYR469     -0.0009
    136  CE1       24.4340  -37.0560   -3.5510 C.ar  469  TYR469      0.0417
    137  CE2       24.6690  -35.0320   -2.2760 C.ar  469  TYR469      0.0417
    138  CZ        24.8470  -35.7390   -3.4570 C.ar  469  TYR469      0.1957
    139  OH        25.4240  -35.1330   -4.5500 O.3   469  TYR469     -0.2866
    140  N         20.7470  -40.4980    0.7610 N.am  470  ASP470     -0.1957
    141  CA        20.1080  -41.1940    1.8940 C.3   470  ASP470      0.1840
    142  C         21.0440  -41.8820    2.8980 C.2   470  ASP470      0.2622
    143  O         20.7610  -41.8580    4.1080 O.2   470  ASP470     -0.2715
    144  CB        19.0360  -42.1950    1.4290 C.3   470  ASP470      0.1450
    145  CG        18.2610  -42.8010    2.6030 C.2   470  ASP470      0.3671
    146  OD1       17.2540  -42.1880    3.0380 O.co2 470  ASP470     -0.2456
    147  OD2       18.6710  -43.8700    3.1140 O.co2 470  ASP470     -0.2456
    148  N         22.1190  -42.5230    2.4250 N.am  471  MET471     -0.1963
    149  CA        23.0200  -43.2160    3.3570 C.3   471  MET471      0.1736
    150  C         23.5780  -42.2170    4.3830 C.2   471  MET471      0.2616
    151  O         23.6670  -42.5190    5.5860 O.2   471  MET471     -0.2715
    152  CB        24.1500  -43.9560    2.6210 C.3   471  MET471      0.0427
    153  CG        25.0010  -44.8560    3.5340 C.3   471  MET471      0.0599
    154  SD        26.3040  -45.8040    2.6880 S.3   471  MET471     -0.1393
    155  CE        27.2300  -46.4250    4.0970 C.3   471  MET471      0.0692
    156  N         23.8820  -41.0070    3.9110 N.am  472  VAL472     -0.1977
    157  CA        24.2940  -39.9170    4.7910 C.3   472  VAL472      0.1596
    158  C         23.1040  -39.4570    5.6500 C.2   472  VAL472      0.2287
    159  O         23.2250  -39.3170    6.8710 O.2   472  VAL472     -0.2864
    160  CB        24.8390  -38.7130    3.9710 C.3   472  VAL472      0.0276
    161  CG1       25.2420  -37.5490    4.8950 C.3   472  VAL472      0.0022
    162  CG2       26.0150  -39.1430    3.0980 C.3   472  VAL472      0.0022
    163  N         12.4190  -45.4760    1.2170 N.3   535  TYR535     -0.1241
    164  CA        13.5500  -45.6130    2.1250 C.3   535  TYR535      0.1605
    165  C         13.1850  -45.4910    3.6040 C.2   535  TYR535      0.2264
    166  O         14.0750  -45.3070    4.4370 O.2   535  TYR535     -0.2867
    167  CB        14.6310  -44.5760    1.7840 C.3   535  TYR535      0.0534
    168  CG        15.5880  -45.0350    0.7030 C.ar  535  TYR535     -0.0201
    169  CD1       15.6400  -46.3680    0.3340 C.ar  535  TYR535     -0.0009
    170  CD2       16.4250  -44.1320    0.0420 C.ar  535  TYR535     -0.0009
    171  CE1       16.4980  -46.8120   -0.6500 C.ar  535  TYR535      0.0417
    172  CE2       17.2970  -44.5650   -0.9630 C.ar  535  TYR535      0.0417
    173  CZ        17.3250  -45.9180   -1.3020 C.ar  535  TYR535      0.1957
    174  OH        18.1710  -46.4060   -2.2840 O.3   535  TYR535     -0.2866
@<TRIPOS>BOND
     1    91    90    2
     2    90    89    1
     3    88    89    1
     4    89    92    1
     5    87    86    2
     6    92    93    1
     7    86    85    1
     8    75    74    2
     9    71    70    2
    10    99   100    1
    11    93    95   ar
    12    93    94   ar
    13    73    76    1
    14    73    74    1
    15    73    72    1
    16    76    77    1
    17    83    82    2
    18    74    80   am
    19    95    97   ar
    20    63    62    2
    21     1     2    1
    22    85    84    1
    23     3     2    1
    24     3     4    2
    25    94    96   ar
    26    70    72   am
    27    70    69    1
    28   100   101    1
    29   100   103    1
    30    62    61    1
    31    82    84   am
    32    82    81    1
    33   105   107   ar
    34   105   104   ar
    35     5     2    1
    36     5     7    1
    37     5     6    1
    38   101   102    2
    39    68    69    1
    40   107   108   ar
    41    80    81    1
    42    77    79   ar
    43    77    78   ar
    44    97    98   ar
    45    96    98   ar
    46    59    57    1
    47   104   103    1
    48   104   106   ar
    49    61    64    1
    50    61    60    1
    51    56    55    2
    52   108   106   ar
    53   108   110   ar
    54    64    65    1
    55    35    33   ar
    56    35    34   ar
    57    57    58    1
    58    57    54    1
    59   113   114    1
    60    55    60   am
    61    55    54    1
    62    33    31   ar
    63   106   109   ar
    64   139   138    1
    65   110   112   ar
    66     8     9    1
    67    34    32   ar
    68    67    65    1
    69    31    32   ar
    70    31    30    1
    71    54    53    1
    72    65    66    1
    73   114   115    1
    74   114   117    1
    75   115   116    2
    76    30    27    1
    77   136   138   ar
    78   136   134   ar
    79   109   111   ar
    80   138   137   ar
    81   112   111   ar
    82    11    10    2
    83    53    46   am
    84     9    12    1
    85     9    10    1
    86   119   118   ar
    87    12    13    1
    88    12    14    1
    89    13    15    1
    90    10    16   am
    91   121   122    1
    92   117   118    1
    93   134   133   ar
    94   174   173    1
    95   137   135   ar
    96    27    28    1
    97    27    26    1
    98    29    28    2
    99   118   120   ar
   100   124   123    2
   101    40    41    1
   102    40    37    1
   103    46    47    2
   104    46    45    1
   105    41    42    1
   106   122   123    1
   107   122   125    1
   108   123   128   am
   109    16    17    1
   110   173   172   ar
   111   173   171   ar
   112   133   135   ar
   113   133   132    1
   114    26    22   am
   115   172   170   ar
   116    45    44    1
   117    45    48    1
   118    44    38   am
   119    17    18    1
   120   128   129    1
   121   171   169   ar
   122    37    38    1
   123    37    36    1
   124    38    39    2
   125   129   132    1
   126   129   130    1
   127    18    19    2
   128    18    20   am
   129    42    43    1
   130   125   127    1
   131   125   126    1
   132   170   168   ar
   133    22    23    2
   134    22    21    1
   135    20    21    1
   136   169   168   ar
   137    48    49    1
   138   168   167    1
   139   140   130   am
   140   140   141    1
   141    21    24    1
   142   130   131    2
   143   163   164    1
   144    24    25    1
   145   144   141    1
   146   144   145    1
   147    49    50    1
   148   167   164    1
   149   141   142    1
   150   164   165    1
   151   148   142   am
   152   148   149    1
   153   145   146   ar
   154   145   147   ar
   155   152   149    1
   156   152   153    1
   157   154   153    1
   158   154   155    1
   159    50    52   am
   160    50    51    2
   161   142   143    2
   162   162   160    1
   163   149   150    1
   164   165   166    2
   165   156   150   am
   166   156   157    1
   167   160   157    1
   168   160   161    1
   169   150   151    2
   170   157   158    1
   171   158   159    2
