@<TRIPOS>MOLECULE
tmp/4rjjE07.pdb
 133 126 0 0 0
SMALL
GASTEIGER

@<TRIPOS>ATOM
      1  N         25.4810  -72.4760   -4.5160 N.3   242  ARG242     -0.1245
      2  CA        24.1450  -72.8380   -4.0750 C.3   242  ARG242      0.1563
      3  C         24.1090  -74.0220   -3.1150 C.2   242  ARG242      0.2260
      4  O         23.2770  -74.0510   -2.2060 O.2   242  ARG242     -0.2867
      5  CB        23.2420  -73.0810   -5.2880 C.3   242  ARG242      0.0307
      6  CG        22.8340  -71.7820   -5.9730 C.3   242  ARG242      0.0489
      7  CD        21.9690  -72.0060   -7.2170 C.3   242  ARG242      0.2205
      8  NE        21.6880  -70.7400   -7.8910 N.pl3 242  ARG242     -0.0865
      9  CZ        20.8230  -69.8230   -7.4580 C.cat 242  ARG242      0.5346
     10  NH1       20.1230  -70.0180   -6.3450 N.pl3 242  ARG242      0.1354
     11  NH2       20.6560  -68.7040   -8.1460 N.pl3 242  ARG242      0.1354
     12  N         24.6200  -72.8610    0.7750 N.3   245  GLU245     -0.1245
     13  CA        23.6870  -71.9320    1.4310 C.3   245  GLU245      0.1567
     14  C         23.4650  -72.2800    2.9080 C.2   245  GLU245      0.2260
     15  O         23.2860  -71.3990    3.7520 O.2   245  GLU245     -0.2867
     16  CB        22.3390  -71.9070    0.6760 C.3   245  GLU245      0.0388
     17  CG        21.2390  -71.0240    1.2910 C.3   245  GLU245      0.1160
     18  CD        21.3980  -69.5200    1.0640 C.2   245  GLU245      0.3649
     19  OE1       21.2790  -68.7550    2.0550 O.co2 245  GLU245     -0.2457
     20  OE2       21.6070  -69.0970   -0.0980 O.co2 245  GLU245     -0.2457
     21  N         17.3840  -65.4530    8.0000 N.3   349  HIS349     -0.1241
     22  CA        16.2190  -65.5610    7.1230 C.3   349  HIS349      0.1621
     23  C         15.1890  -64.4660    7.3980 C.2   349  HIS349      0.2264
     24  O         14.6710  -63.8230    6.4730 O.2   349  HIS349     -0.2867
     25  CB        15.5930  -66.9510    7.3020 C.3   349  HIS349      0.0745
     26  CG        14.3420  -67.1810    6.4990 C.ar  349  HIS349      0.0817
     27  ND1       13.1010  -66.7920    6.9350 N.ar  349  HIS349     -0.2268
     28  CD2       14.1590  -67.8040    5.3080 C.ar  349  HIS349      0.1154
     29  CE1       12.1890  -67.1440    6.0330 C.ar  349  HIS349      0.1986
     30  NE2       12.8050  -67.7580    5.0470 N.ar  349  HIS349     -0.2212
     31  N         15.9900  -61.0610    5.9920 N.3   352  GLU352     -0.1231
     32  CA        15.9060  -60.9330    4.5360 C.3   352  GLU352      0.1699
     33  C         14.4600  -60.7440    4.0480 C.2   352  GLU352      0.2592
     34  O         14.1980  -60.7610    2.8380 O.2   352  GLU352     -0.2718
     35  CB        16.5330  -62.1750    3.8770 C.3   352  GLU352      0.0402
     36  CG        17.9620  -62.4460    4.3410 C.3   352  GLU352      0.1161
     37  CD        18.5580  -63.7550    3.8350 C.2   352  GLU352      0.3649
     38  OE1       17.8640  -64.7930    3.7980 O.co2 352  GLU352     -0.2457
     39  OE2       19.7500  -63.7430    3.4730 O.co2 352  GLU352     -0.2457
     40  N         13.5270  -60.5550    4.9800 N.am  353  GLN353     -0.1966
     41  CA        12.1100  -60.4850    4.6230 C.3   353  GLN353      0.1733
     42  C         11.5740  -59.0770    4.7090 C.2   353  GLN353      0.2616
     43  O         11.9230  -58.3500    5.6360 O.2   353  GLN353     -0.2715
     44  CB        11.2880  -61.3830    5.5540 C.3   353  GLN353      0.0408
     45  CG        11.8040  -62.8250    5.6340 C.3   353  GLN353      0.0908
     46  CD        11.9410  -63.4680    4.2560 C.2   353  GLN353      0.2608
     47  OE1       11.0530  -63.3360    3.4100 O.2   353  GLN353     -0.2717
     48  NE2       13.0660  -64.1480    4.0190 N.am  353  GLN353     -0.0878
     49  N         10.6970  -58.7040    3.7750 N.am  354  VAL354     -0.1977
     50  CA         9.9460  -57.4550    3.9120 C.3   354  VAL354      0.1596
     51  C          9.0540  -57.5260    5.1490 C.2   354  VAL354      0.2287
     52  O          8.3260  -58.5000    5.3420 O.2   354  VAL354     -0.2864
     53  CB         9.0770  -57.1320    2.6540 C.3   354  VAL354      0.0276
     54  CG1        8.7850  -55.6500    2.5600 C.3   354  VAL354      0.0022
     55  CG2        9.7410  -57.6470    1.3770 C.3   354  VAL354      0.0022
     56  N         14.0770  -54.6270   -0.5000 N.3   366  LEU366     -0.1245
     57  CA        14.2100  -56.0710   -0.6350 C.3   366  LEU366      0.1561
     58  C         13.4130  -56.6010   -1.8370 C.2   366  LEU366      0.2260
     59  O         13.7620  -57.6290   -2.4210 O.2   366  LEU366     -0.2867
     60  CB        13.8000  -56.7650    0.6660 C.3   366  LEU366      0.0270
     61  CG        14.7890  -56.6970    1.8390 C.3   366  LEU366      0.0019
     62  CD1       14.1570  -57.2500    3.1240 C.3   366  LEU366      0.0001
     63  CD2       16.0620  -57.4710    1.5130 C.3   366  LEU366      0.0001
     64  N         15.8290  -55.9760   -4.6480 N.3   369  VAL369     -0.1231
     65  CA        16.8830  -56.9810   -4.5770 C.3   369  VAL369      0.1692
     66  C         16.4000  -58.3520   -5.0570 C.2   369  VAL369      0.2591
     67  O         17.0850  -59.0120   -5.8480 O.2   369  VAL369     -0.2718
     68  CB        17.4980  -57.0750   -3.1530 C.3   369  VAL369      0.0266
     69  CG1       18.4160  -58.2770   -3.0290 C.3   369  VAL369      0.0020
     70  CG2       18.2820  -55.8120   -2.8400 C.3   369  VAL369      0.0020
     71  N         15.2450  -58.7860   -4.5610 N.am  370  LYS370     -0.1980
     72  CA        14.6720  -60.0780   -4.9520 C.3   370  LYS370      0.1596
     73  C         14.4020  -60.2070   -6.4540 C.2   370  LYS370      0.2287
     74  O         14.8520  -61.1610   -7.1000 O.2   370  LYS370     -0.2864
     75  CB        13.3780  -60.3430   -4.1920 C.3   370  LYS370      0.0298
     76  CG        12.8160  -61.7310   -4.4330 C.3   370  LYS370      0.0038
     77  CD        11.4980  -61.9440   -3.7040 C.3   370  LYS370      0.0206
     78  CE        11.0350  -63.3890   -3.8130 C.3   370  LYS370      0.1093
     79  NZ        12.0610  -64.3320   -3.2640 N.3   370  LYS370     -0.1314
     80  N         17.5810  -60.0500   -8.5090 N.3   373  ARG373     -0.1231
     81  CA        18.3040  -61.3120   -8.4420 C.3   373  ARG373      0.1694
     82  C         17.6000  -62.3840   -9.2860 C.2   373  ARG373      0.2592
     83  O         18.2550  -63.1770   -9.9720 O.2   373  ARG373     -0.2718
     84  CB        18.4890  -61.7630   -6.9750 C.3   373  ARG373      0.0321
     85  CG        19.1290  -63.1580   -6.7880 C.3   373  ARG373      0.0489
     86  CD        20.6180  -63.1860   -7.1700 C.3   373  ARG373      0.2205
     87  NE        20.8130  -63.1700   -8.6210 N.pl3 373  ARG373     -0.0865
     88  CZ        21.9930  -63.1910   -9.2380 C.cat 373  ARG373      0.5346
     89  NH1       23.1170  -63.2650   -8.5340 N.pl3 373  ARG373      0.1354
     90  NH2       22.0440  -63.1640  -10.5680 N.pl3 373  ARG373      0.1354
     91  N         16.2670  -62.3690   -9.2680 N.am  374  ASN374     -0.1974
     92  CA        15.4740  -63.3890   -9.9510 C.3   374  ASN374      0.1688
     93  C         15.3640  -63.1430  -11.4450 C.2   374  ASN374      0.2292
     94  O         14.9520  -64.0280  -12.1980 O.2   374  ASN374     -0.2864
     95  CB        14.1020  -63.4680   -9.3040 C.3   374  ASN374      0.1181
     96  CG        14.1370  -64.2250   -7.9810 C.2   374  ASN374      0.2629
     97  OD1       15.2050  -64.4000   -7.3760 O.2   374  ASN374     -0.2716
     98  ND2       12.9680  -64.6090   -7.4910 N.am  374  ASN374     -0.0877
     99  N         22.1290  -58.3450    0.9040 N.3   396  TYR396     -0.1241
    100  CA        21.0200  -59.2180    0.5450 C.3   396  TYR396      0.1605
    101  C         20.9920  -59.7580   -0.8870 C.2   396  TYR396      0.2264
    102  O         20.2030  -60.6620   -1.1820 O.2   396  TYR396     -0.2867
    103  CB        19.6970  -58.5400    0.8770 C.3   396  TYR396      0.0534
    104  CG        19.5430  -58.2100    2.3500 C.ar  396  TYR396     -0.0201
    105  CD1       19.6060  -59.2120    3.3150 C.ar  396  TYR396     -0.0009
    106  CD2       19.3170  -56.9030    2.7720 C.ar  396  TYR396     -0.0009
    107  CE1       19.4670  -58.9230    4.6650 C.ar  396  TYR396      0.0417
    108  CE2       19.1720  -56.5990    4.1200 C.ar  396  TYR396      0.0417
    109  CZ        19.2420  -57.6180    5.0620 C.ar  396  TYR396      0.1957
    110  OH        19.0990  -57.3430    6.4050 O.3   396  TYR396     -0.2866
    111  N         22.3110  -62.1330   -3.2530 N.3   398  ARG398     -0.1245
    112  CA        23.1250  -63.3300   -3.3350 C.3   398  ARG398      0.1563
    113  C         23.9740  -63.3130   -4.5990 C.2   398  ARG398      0.2260
    114  O         23.5660  -62.7720   -5.6380 O.2   398  ARG398     -0.2867
    115  CB        22.2360  -64.5750   -3.3430 C.3   398  ARG398      0.0307
    116  CG        21.5080  -64.9100   -2.0260 C.3   398  ARG398      0.0489
    117  CD        22.5040  -65.3350   -0.9400 C.3   398  ARG398      0.2205
    118  NE        21.8250  -65.9230    0.2190 N.pl3 398  ARG398     -0.0865
    119  CZ        21.2900  -65.2410    1.2280 C.cat 398  ARG398      0.5346
    120  NH1       20.6940  -65.8990    2.2090 N.pl3 398  ARG398      0.1354
    121  NH2       21.3450  -63.9130    1.2620 N.pl3 398  ARG398      0.1354
    122  N         26.6940  -66.1730   -6.6750 N.3   400  TYR400     -0.1241
    123  CA        27.0460  -67.5880   -6.6710 C.3   400  TYR400      0.1605
    124  C         28.2540  -67.8890   -7.5480 C.2   400  TYR400      0.2264
    125  O         28.6160  -69.0560   -7.7350 O.2   400  TYR400     -0.2867
    126  CB        25.8420  -68.4260   -7.1050 C.3   400  TYR400      0.0534
    127  CG        24.6330  -68.2400   -6.2130 C.ar  400  TYR400     -0.0201
    128  CD1       24.5980  -68.7800   -4.9290 C.ar  400  TYR400     -0.0009
    129  CD2       23.5330  -67.5090   -6.6480 C.ar  400  TYR400     -0.0009
    130  CE1       23.4910  -68.6110   -4.1170 C.ar  400  TYR400      0.0417
    131  CE2       22.4280  -67.3240   -5.8360 C.ar  400  TYR400      0.0417
    132  CZ        22.4120  -67.8860   -4.5780 C.ar  400  TYR400      0.1957
    133  OH        21.3190  -67.7200   -3.7710 O.3   400  TYR400     -0.2866
@<TRIPOS>BOND
     1    94    93    2
     2    93    92    1
     3    90    88    1
     4    83    82    2
     5    92    95    1
     6    92    91    1
     7    95    96    1
     8    82    91   am
     9    82    81    1
    10    88    87    2
    11    88    89    1
    12    87    86    1
    13    80    81    1
    14    81    84    1
    15    11     9    1
    16    96    98   am
    17    96    97    2
    18     8     9    2
    19     8     7    1
    20   125   124    2
    21   124   123    1
    22     9    10    1
    23     7     6    1
    24    86    85    1
    25   126   123    1
    26   126   127    1
    27    74    73    2
    28    84    85    1
    29   122   123    1
    30   129   127   ar
    31   129   131   ar
    32    73    72    1
    33   127   128   ar
    34     6     5    1
    35    67    66    2
    36   131   132   ar
    37   114   113    2
    38     5     2    1
    39    66    65    1
    40    66    71   am
    41    72    71    1
    42    72    75    1
    43   128   130   ar
    44    64    65    1
    45   113   112    1
    46   132   130   ar
    47   132   133    1
    48    65    68    1
    49     1     2    1
    50    76    75    1
    51    76    77    1
    52     2     3    1
    53    78    77    1
    54    78    79    1
    55   115   112    1
    56   115   116    1
    57   112   111    1
    58    68    69    1
    59    68    70    1
    60     3     4    2
    61    59    58    2
    62   116   117    1
    63    58    57    1
    64   102   101    2
    65   117   118    1
    66   101   100    1
    67    57    56    1
    68    57    60    1
    69    20    18   ar
    70   118   119    2
    71   100   103    1
    72   100    99    1
    73    60    61    1
    74    16    17    1
    75    16    13    1
    76    12    13    1
    77   103   104    1
    78    18    17    1
    79    18    19   ar
    80   119   121    1
    81   119   120    1
    82    55    53    1
    83    13    14    1
    84    63    61    1
    85    61    62    1
    86   104   106   ar
    87   104   105   ar
    88    54    53    1
    89    53    50    1
    90   106   108   ar
    91    34    33    2
    92    14    15    2
    93   105   107   ar
    94    47    46    2
    95    39    37   ar
    96    49    50    1
    97    49    42   am
    98    38    37   ar
    99    37    36    1
   100    35    36    1
   101    35    32    1
   102    50    51    1
   103    48    46   am
   104    33    32    1
   105    33    40   am
   106   108   109   ar
   107    46    45    1
   108    32    31    1
   109    41    42    1
   110    41    40    1
   111    41    44    1
   112   107   109   ar
   113    42    43    2
   114    30    28   ar
   115    30    29   ar
   116   109   110    1
   117    51    52    2
   118    28    26   ar
   119    44    45    1
   120    29    27   ar
   121    24    23    2
   122    26    27   ar
   123    26    25    1
   124    22    25    1
   125    22    23    1
   126    22    21    1
