@<TRIPOS>MOLECULE
tmp/4rjkE06.pdb
 114 108 0 0 0
SMALL
GASTEIGER

@<TRIPOS>ATOM
      1  N         24.7260  -74.1240    0.7100 N.3   243  GLU243     -0.1245
      2  CA        23.8000  -73.2230    1.3770 C.3   243  GLU243      0.1567
      3  C         23.5740  -73.5460    2.8580 C.2   243  GLU243      0.2260
      4  O         23.4160  -72.6400    3.6680 O.2   243  GLU243     -0.2867
      5  CB        22.4630  -73.2230    0.6240 C.3   243  GLU243      0.0388
      6  CG        21.4340  -72.2460    1.1430 C.3   243  GLU243      0.1160
      7  CD        21.4690  -70.8790    0.4520 C.2   243  GLU243      0.3649
      8  OE1       21.1070  -69.8770    1.1200 O.co2 243  GLU243     -0.2457
      9  OE2       21.8300  -70.8120   -0.7500 O.co2 243  GLU243     -0.2457
     10  N         17.1650  -66.5510    8.1540 N.3   347  HIS347     -0.1241
     11  CA        16.0720  -66.6420    7.1860 C.3   347  HIS347      0.1621
     12  C         15.0020  -65.5570    7.3880 C.2   347  HIS347      0.2264
     13  O         14.5900  -64.8900    6.4330 O.2   347  HIS347     -0.2867
     14  CB        15.4170  -68.0310    7.2330 C.3   347  HIS347      0.0745
     15  CG        14.1600  -68.1210    6.4270 C.ar  347  HIS347      0.0817
     16  ND1       12.9100  -68.2530    7.0010 N.ar  347  HIS347     -0.2268
     17  CD2       13.9500  -68.0630    5.0900 C.ar  347  HIS347      0.1154
     18  CE1       11.9930  -68.2900    6.0540 C.ar  347  HIS347      0.1986
     19  NE2       12.5980  -68.1740    4.8820 N.ar  347  HIS347     -0.2212
     20  N         15.8320  -62.2250    6.0700 N.3   350  GLU350     -0.1231
     21  CA        15.7930  -62.0660    4.6260 C.3   350  GLU350      0.1699
     22  C         14.3820  -61.7520    4.1300 C.2   350  GLU350      0.2592
     23  O         14.1650  -61.5670    2.9270 O.2   350  GLU350     -0.2718
     24  CB        16.3200  -63.3420    3.9510 C.3   350  GLU350      0.0402
     25  CG        17.8040  -63.5850    4.1970 C.3   350  GLU350      0.1161
     26  CD        18.2870  -64.9770    3.8000 C.2   350  GLU350      0.3649
     27  OE1       17.4640  -65.9090    3.7420 O.co2 350  GLU350     -0.2457
     28  OE2       19.5060  -65.1400    3.5660 O.co2 350  GLU350     -0.2457
     29  N         13.4230  -61.6980    5.0540 N.am  351  GLN351     -0.1966
     30  CA        12.0120  -61.6130    4.6810 C.3   351  GLN351      0.1733
     31  C         11.4450  -60.2050    4.7510 C.2   351  GLN351      0.2616
     32  O         11.8050  -59.4260    5.6370 O.2   351  GLN351     -0.2715
     33  CB        11.1690  -62.5310    5.5710 C.3   351  GLN351      0.0408
     34  CG        11.5550  -64.0080    5.5340 C.3   351  GLN351      0.0908
     35  CD        11.5290  -64.6040    4.1320 C.2   351  GLN351      0.2608
     36  OE1       12.2950  -65.5240    3.8240 O.2   351  GLN351     -0.2717
     37  NE2       10.6450  -64.0900    3.2770 N.am  351  GLN351     -0.0878
     38  N         10.5560  -59.8890    3.8090 N.am  352  VAL352     -0.1977
     39  CA         9.8250  -58.6280    3.8300 C.3   352  VAL352      0.1596
     40  C          8.9430  -58.5900    5.0690 C.2   352  VAL352      0.2287
     41  O          8.1650  -59.5190    5.3100 O.2   352  VAL352     -0.2864
     42  CB         8.9600  -58.4440    2.5750 C.3   352  VAL352      0.0276
     43  CG1        8.2190  -57.1180    2.6340 C.3   352  VAL352      0.0022
     44  CG2        9.8210  -58.5230    1.3170 C.3   352  VAL352      0.0022
     45  N         13.9770  -55.7020   -0.5080 N.3   364  LEU364     -0.1245
     46  CA        14.0330  -57.1500   -0.6220 C.3   364  LEU364      0.1561
     47  C         13.2600  -57.6920   -1.8410 C.2   364  LEU364      0.2260
     48  O         13.6460  -58.7120   -2.4090 O.2   364  LEU364     -0.2867
     49  CB        13.5260  -57.7890    0.6760 C.3   364  LEU364      0.0270
     50  CG        14.5350  -57.7950    1.8440 C.3   364  LEU364      0.0019
     51  CD1       13.9080  -58.3120    3.1370 C.3   364  LEU364      0.0001
     52  CD2       15.7830  -58.6180    1.5080 C.3   364  LEU364      0.0001
     53  N         15.6890  -57.0620   -4.7490 N.3   367  VAL367     -0.1231
     54  CA        16.7040  -58.1090   -4.6530 C.3   367  VAL367      0.1692
     55  C         16.1790  -59.4400   -5.1750 C.2   367  VAL367      0.2591
     56  O         16.8130  -60.0630   -6.0310 O.2   367  VAL367     -0.2718
     57  CB        17.2050  -58.3190   -3.1990 C.3   367  VAL367      0.0266
     58  CG1       18.0110  -59.6150   -3.0840 C.3   367  VAL367      0.0020
     59  CG2       18.0510  -57.1490   -2.7530 C.3   367  VAL367      0.0020
     60  N         15.0190  -59.8600   -4.6710 N.am  368  LYS368     -0.1980
     61  CA        14.4720  -61.1710   -5.0040 C.3   368  LYS368      0.1596
     62  C         14.1720  -61.3100   -6.4910 C.2   368  LYS368      0.2287
     63  O         14.6100  -62.2620   -7.1340 O.2   368  LYS368     -0.2864
     64  CB        13.1990  -61.4510   -4.2060 C.3   368  LYS368      0.0298
     65  CG        12.7780  -62.9130   -4.2600 C.3   368  LYS368      0.0038
     66  CD        11.3300  -63.1240   -3.8650 C.3   368  LYS368      0.0206
     67  CE        11.0850  -64.5810   -3.4900 C.3   368  LYS368      0.1093
     68  NZ        11.8040  -64.9680   -2.2300 N.3   368  LYS368     -0.1314
     69  N         17.4180  -61.3410   -8.5840 N.3   371  ARG371     -0.1245
     70  CA        18.1230  -62.6160   -8.4760 C.3   371  ARG371      0.1563
     71  C         17.4270  -63.6900   -9.3010 C.2   371  ARG371      0.2260
     72  O         18.0760  -64.4450  -10.0240 O.2   371  ARG371     -0.2867
     73  CB        18.2250  -63.0660   -7.0260 C.3   371  ARG371      0.0307
     74  CG        18.9990  -64.3470   -6.8260 C.3   371  ARG371      0.0489
     75  CD        20.4800  -64.2280   -7.2070 C.3   371  ARG371      0.2205
     76  NE        20.7350  -64.4060   -8.6400 N.pl3 371  ARG371     -0.0865
     77  CZ        21.9470  -64.5560   -9.1810 C.cat 371  ARG371      0.5346
     78  NH1       23.0310  -64.5580   -8.4160 N.pl3 371  ARG371      0.1354
     79  NH2       22.0790  -64.7070  -10.4920 N.pl3 371  ARG371      0.1354
     80  N         21.9900  -59.5560    0.8660 N.3   394  TYR394     -0.1241
     81  CA        20.8720  -60.4350    0.5430 C.3   394  TYR394      0.1605
     82  C         20.8570  -60.9600   -0.9020 C.2   394  TYR394      0.2264
     83  O         20.1400  -61.9170   -1.2050 O.2   394  TYR394     -0.2867
     84  CB        19.5490  -59.7100    0.8510 C.3   394  TYR394      0.0534
     85  CG        19.3840  -59.3470    2.3170 C.ar  394  TYR394     -0.0201
     86  CD1       19.4030  -60.3330    3.3070 C.ar  394  TYR394     -0.0009
     87  CD2       19.2100  -58.0220    2.7190 C.ar  394  TYR394     -0.0009
     88  CE1       19.2590  -60.0130    4.6570 C.ar  394  TYR394      0.0417
     89  CE2       19.0660  -57.6920    4.0760 C.ar  394  TYR394      0.0417
     90  CZ        19.0890  -58.6930    5.0310 C.ar  394  TYR394      0.1957
     91  OH        18.9400  -58.3870    6.3630 O.3   394  TYR394     -0.2866
     92  N         22.1470  -63.2050   -3.4250 N.3   396  ARG396     -0.1245
     93  CA        22.9380  -64.4140   -3.5000 C.3   396  ARG396      0.1563
     94  C         23.8010  -64.3830   -4.7420 C.2   396  ARG396      0.2260
     95  O         23.3810  -63.9010   -5.7990 O.2   396  ARG396     -0.2867
     96  CB        22.0360  -65.6580   -3.5120 C.3   396  ARG396      0.0307
     97  CG        21.3190  -65.9610   -2.1970 C.3   396  ARG396      0.0489
     98  CD        22.2980  -66.3550   -1.1060 C.3   396  ARG396      0.2205
     99  NE        21.6680  -67.0980   -0.0120 N.pl3 396  ARG396     -0.0865
    100  CZ        21.1870  -66.5510    1.1040 C.cat 396  ARG396      0.5346
    101  NH1       20.6320  -67.3330    2.0250 N.pl3 396  ARG396      0.1354
    102  NH2       21.2630  -65.2320    1.3080 N.pl3 396  ARG396      0.1354
    103  N         26.5730  -67.2000   -6.7950 N.3   398  TYR398     -0.1241
    104  CA        26.9310  -68.6260   -6.8060 C.3   398  TYR398      0.1605
    105  C         28.1410  -68.9760   -7.6750 C.2   398  TYR398      0.2264
    106  O         28.4760  -70.1480   -7.8450 O.2   398  TYR398     -0.2867
    107  CB        25.7250  -69.4430   -7.2610 C.3   398  TYR398      0.0534
    108  CG        24.5870  -69.3850   -6.2660 C.ar  398  TYR398     -0.0201
    109  CD1       24.6640  -70.0710   -5.0590 C.ar  398  TYR398     -0.0009
    110  CD2       23.4470  -68.6270   -6.5190 C.ar  398  TYR398     -0.0009
    111  CE1       23.6380  -70.0090   -4.1330 C.ar  398  TYR398      0.0417
    112  CE2       22.4140  -68.5680   -5.6050 C.ar  398  TYR398      0.0417
    113  CZ        22.5170  -69.2550   -4.4110 C.ar  398  TYR398      0.1957
    114  OH        21.4950  -69.1960   -3.4920 O.3   398  TYR398     -0.2866
@<TRIPOS>BOND
     1    79    77    1
     2    72    71    2
     3    71    70    1
     4    77    76    2
     5    77    78    1
     6    76    75    1
     7    69    70    1
     8    70    73    1
     9   106   105    2
    10   105   104    1
    11   107   104    1
    12   107   108    1
    13    75    74    1
    14    63    62    2
    15    73    74    1
    16   104   103    1
    17   110   108   ar
    18   110   112   ar
    19    62    61    1
    20   108   109   ar
    21    56    55    2
    22    95    94    2
    23   112   113   ar
    24    55    60   am
    25    55    54    1
    26   109   111   ar
    27    61    60    1
    28    61    64    1
    29    53    54    1
    30    94    93    1
    31    54    57    1
    32   113   111   ar
    33   113   114    1
    34    65    64    1
    35    65    66    1
    36    66    67    1
    37    96    93    1
    38    96    97    1
    39    93    92    1
    40    67    68    1
    41    57    58    1
    42    57    59    1
    43    48    47    2
    44    97    98    1
    45    47    46    1
    46    83    82    2
    47    98    99    1
    48    82    81    1
    49     9     7   ar
    50    46    45    1
    51    46    49    1
    52    99   100    2
    53     7     8   ar
    54     7     6    1
    55    81    84    1
    56    81    80    1
    57     5     6    1
    58     5     2    1
    59    49    50    1
    60     1     2    1
    61    84    85    1
    62   100   102    1
    63   100   101    1
    64    44    42    1
    65     2     3    1
    66    52    50    1
    67    50    51    1
    68    85    87   ar
    69    85    86   ar
    70    42    43    1
    71    42    39    1
    72    87    89   ar
    73     3     4    2
    74    23    22    2
    75    37    35   am
    76    86    88   ar
    77    28    26   ar
    78    27    26   ar
    79    26    25    1
    80    38    39    1
    81    38    31   am
    82    36    35    2
    83    39    40    1
    84    24    25    1
    85    24    21    1
    86    89    90   ar
    87    22    21    1
    88    22    29   am
    89    35    34    1
    90    21    20    1
    91    88    90   ar
    92    30    31    1
    93    30    29    1
    94    30    33    1
    95    31    32    2
    96    19    17   ar
    97    19    18   ar
    98    90    91    1
    99    40    41    2
   100    17    15   ar
   101    34    33    1
   102    18    16   ar
   103    15    16   ar
   104    15    14    1
   105    13    12    2
   106    11    14    1
   107    11    12    1
   108    11    10    1
