@<TRIPOS>MOLECULE
tmp/4rjkD01.pdb
 77 74 0 0 0
SMALL
GASTEIGER

@<TRIPOS>ATOM
      1  N         33.0540  -77.3750  -31.5510 N.3   147  SER147     -0.1202
      2  CA        33.5260  -77.5990  -30.1760 C.3   147  SER147      0.2020
      3  C         33.0800  -78.9200  -29.5120 C.2   147  SER147      0.2619
      4  O         33.7940  -79.4670  -28.6780 O.2   147  SER147     -0.2717
      5  CB        33.0780  -76.4410  -29.2850 C.3   147  SER147      0.2103
      6  OG        33.4660  -75.2040  -29.8310 O.3   147  SER147     -0.2182
      7  N         31.8990  -79.4150  -29.8540 N.am  148  ALA148     -0.1965
      8  CA        31.3450  -80.6080  -29.1890 C.3   148  ALA148      0.1728
      9  C         32.1830  -81.8760  -29.4420 C.2   148  ALA148      0.2616
     10  O         32.6310  -82.1060  -30.5610 O.2   148  ALA148     -0.2715
     11  CB        29.9170  -80.8250  -29.6420 C.3   148  ALA148      0.0334
     12  N         32.4030  -82.6860  -28.4080 N.am  149  GLY149     -0.1955
     13  CA        33.2950  -83.8260  -28.5410 C.3   149  GLY149      0.1869
     14  C         32.6890  -84.7790  -29.5540 C.2   149  GLY149      0.2309
     15  O         31.4640  -84.9820  -29.5350 O.2   149  GLY149     -0.2863
     16  N         28.4610  -74.5110  -26.1160 N.3   177  ALA177     -0.1231
     17  CA        28.2990  -75.9440  -26.1920 C.3   177  ALA177      0.1679
     18  C         28.4750  -76.4920  -24.7880 C.2   177  ALA177      0.2434
     19  O         29.3910  -76.0940  -24.0830 O.2   177  ALA177     -0.2733
     20  CB        29.3200  -76.5520  -27.1720 C.3   177  ALA177      0.0304
     21  N         27.5850  -77.3970  -24.3680 N.am  178  PRO178     -0.2718
     22  CA        27.5790  -77.8770  -22.9820 C.3   178  PRO178      0.1535
     23  C         28.5370  -79.0440  -22.7460 C.2   178  PRO178      0.2598
     24  O         28.8500  -79.7800  -23.6750 O.2   178  PRO178     -0.2715
     25  CB        26.1210  -78.3070  -22.7790 C.3   178  PRO178      0.0310
     26  CG        25.6800  -78.7660  -24.1620 C.3   178  PRO178      0.0237
     27  CD        26.5030  -77.9930  -25.1740 C.3   178  PRO178      0.0939
     28  N         29.0030  -79.2090  -21.5120 N.am  179  LYS179     -0.1964
     29  CA        29.8380  -80.3560  -21.1600 C.3   179  LYS179      0.1728
     30  C         28.9780  -81.5250  -20.6580 C.2   179  LYS179      0.2616
     31  O         27.8930  -81.3230  -20.1120 O.2   179  LYS179     -0.2715
     32  CB        30.8800  -79.9550  -20.1060 C.3   179  LYS179      0.0311
     33  CG        30.3320  -79.8980  -18.6840 C.3   179  LYS179      0.0038
     34  CD        31.4460  -79.8840  -17.6320 C.3   179  LYS179      0.0206
     35  CE        30.9140  -80.2570  -16.2450 C.3   179  LYS179      0.1093
     36  NZ        31.8580  -81.1260  -15.4780 N.3   179  LYS179     -0.1314
     37  N         29.4510  -82.7490  -20.8710 N.am  180  LEU180     -0.1977
     38  CA        28.7770  -83.9180  -20.3260 C.3   180  LEU180      0.1596
     39  C         29.0690  -84.0410  -18.8350 C.2   180  LEU180      0.2287
     40  O         30.0070  -83.4240  -18.3210 O.2   180  LEU180     -0.2864
     41  CB        29.2270  -85.1750  -21.0510 C.3   180  LEU180      0.0297
     42  CG        28.8680  -85.3450  -22.5220 C.3   180  LEU180      0.0022
     43  CD1       29.5220  -86.6100  -23.0740 C.3   180  LEU180      0.0001
     44  CD2       27.3590  -85.4020  -22.6840 C.3   180  LEU180      0.0001
     45  N         35.0270  -89.1470  -24.6780 N.3   294  GLU294     -0.1231
     46  CA        33.8500  -88.2850  -24.6900 C.3   294  GLU294      0.1699
     47  C         32.8560  -88.7560  -25.7440 C.2   294  GLU294      0.2592
     48  O         31.7460  -88.2440  -25.8290 O.2   294  GLU294     -0.2718
     49  CB        34.2570  -86.8250  -24.9200 C.3   294  GLU294      0.0402
     50  CG        34.7240  -86.5470  -26.3280 C.3   294  GLU294      0.1161
     51  CD        35.8490  -85.5240  -26.4110 C.2   294  GLU294      0.3649
     52  OE1       36.5250  -85.5110  -27.4550 O.co2 294  GLU294     -0.2457
     53  OE2       36.0640  -84.7270  -25.4650 O.co2 294  GLU294     -0.2457
     54  N         33.2630  -89.7340  -26.5490 N.am  295  ILE295     -0.1966
     55  CA        32.3560  -90.4080  -27.4900 C.3   295  ILE295      0.1727
     56  C         32.5540  -91.9300  -27.4260 C.2   295  ILE295      0.2616
     57  O         33.5590  -92.4190  -26.8880 O.2   295  ILE295     -0.2715
     58  CB        32.5620  -89.9320  -28.9760 C.3   295  ILE295      0.0290
     59  CG1       34.0110  -90.1370  -29.4010 C.3   295  ILE295      0.0022
     60  CG2       32.1150  -88.4550  -29.1710 C.3   295  ILE295      0.0023
     61  CD1       34.2720  -89.9380  -30.8760 C.3   295  ILE295      0.0001
     62  N         31.5940  -92.6660  -27.9850 N.am  296  ILE296     -0.1977
     63  CA        31.5860  -94.1170  -28.1000 C.3   296  ILE296      0.1596
     64  C         32.8420  -94.6350  -28.8050 C.2   296  ILE296      0.2287
     65  O         33.4070  -93.9210  -29.6210 O.2   296  ILE296     -0.2864
     66  CB        30.2960  -94.5430  -28.8660 C.3   296  ILE296      0.0276
     67  CG1       29.2310  -95.0500  -27.8950 C.3   296  ILE296      0.0022
     68  CG2       30.5730  -95.5210  -30.0010 C.3   296  ILE296      0.0022
     69  CD1       28.7830  -94.0020  -26.9010 C.3   296  ILE296      0.0001
     70  N         32.0050  -93.5260  -21.0190 N.3   310  ILE310     -0.1245
     71  CA        31.7670  -92.3710  -21.8710 C.3   310  ILE310      0.1561
     72  C         31.1790  -91.2470  -21.0530 C.2   310  ILE310      0.2260
     73  O         30.2040  -91.4210  -20.3400 O.2   310  ILE310     -0.2867
     74  CB        30.8430  -92.7250  -23.0510 C.3   310  ILE310      0.0252
     75  CG1       31.3300  -94.0300  -23.7140 C.3   310  ILE310      0.0019
     76  CG2       30.7620  -91.5630  -24.0500 C.3   310  ILE310      0.0019
     77  CD1       32.7950  -94.0490  -24.1020 C.3   310  ILE310      0.0001
@<TRIPOS>BOND
     1     1     2    1
     2    61    59    1
     3    10     9    2
     4     2     3    1
     5     2     5    1
     6    68    66    1
     7     7     3   am
     8     7     8    1
     9     6     5    1
    10    11     8    1
    11    65    64    2
    12    14    15    2
    13    14    13    1
    14     3     4    2
    15     9     8    1
    16     9    12   am
    17    59    58    1
    18    60    58    1
    19    58    55    1
    20    66    63    1
    21    66    67    1
    22    64    63    1
    23    13    12    1
    24    63    62    1
    25    62    56   am
    26    67    69    1
    27    55    56    1
    28    55    54    1
    29    52    51   ar
    30    56    57    2
    31    20    17    1
    32    54    47   am
    33    51    50    1
    34    51    53   ar
    35    50    49    1
    36    17    16    1
    37    17    18    1
    38    48    47    2
    39    47    46    1
    40    27    21    1
    41    27    26    1
    42    49    46    1
    43    18    21   am
    44    18    19    2
    45    46    45    1
    46    21    22    1
    47    26    25    1
    48    77    75    1
    49    76    74    1
    50    75    74    1
    51    24    23    2
    52    43    42    1
    53    74    71    1
    54    22    25    1
    55    22    23    1
    56    23    28   am
    57    44    42    1
    58    42    41    1
    59    71    72    1
    60    71    70    1
    61    28    29    1
    62    29    30    1
    63    29    32    1
    64    72    73    2
    65    41    38    1
    66    37    30   am
    67    37    38    1
    68    30    31    2
    69    38    39    1
    70    32    33    1
    71    39    40    2
    72    33    34    1
    73    34    35    1
    74    35    36    1
