@<TRIPOS>MOLECULE
tmp/4rjkG04.pdb
 102 99 0 0 0
SMALL
GASTEIGER

@<TRIPOS>ATOM
      1  N         20.1810    8.3790   -8.1190 N.3    60  LEU60      -0.1231
      2  CA        21.1400    7.2900   -8.2700 C.3    60  LEU60       0.1693
      3  C         21.2430    6.3350   -7.0710 C.2    60  LEU60       0.2592
      4  O         21.8170    5.2660   -7.1900 O.2    60  LEU60      -0.2718
      5  CB        22.5240    7.8760   -8.5550 C.3    60  LEU60       0.0284
      6  CG        22.6700    8.5160   -9.9230 C.3    60  LEU60       0.0019
      7  CD1       23.9990    9.1780  -10.0270 C.3    60  LEU60       0.0001
      8  CD2       22.5220    7.4640  -11.0020 C.3    60  LEU60       0.0001
      9  N         20.7030    6.7080   -5.9210 N.am   61  THR61      -0.1953
     10  CA        20.9510    5.9290   -4.7180 C.3    61  THR61       0.1897
     11  C         19.6730    5.5780   -3.9950 C.2    61  THR61       0.2313
     12  O         19.6810    4.7390   -3.0990 O.2    61  THR61      -0.2863
     13  CB        21.8720    6.6810   -3.7090 C.3    61  THR61       0.1794
     14  OG1       21.1970    7.8450   -3.2120 O.3    61  THR61      -0.2208
     15  CG2       23.1910    7.1060   -4.3570 C.3    61  THR61       0.0378
     16  N         16.1600    0.6600  -10.4370 N.3   211  PRO211     -0.2116
     17  CA        16.8750   -0.6220  -10.5620 C.3   211  PRO211      0.1372
     18  C         16.0050   -1.8270  -10.1960 C.2   211  PRO211      0.2244
     19  O         15.8100   -2.6910  -11.0560 O.2   211  PRO211     -0.2868
     20  CB        18.0390   -0.4680   -9.5910 C.3   211  PRO211      0.0268
     21  CG        18.3090    1.0180   -9.5960 C.3   211  PRO211      0.0207
     22  CD        16.9330    1.6480   -9.6620 C.3   211  PRO211      0.0892
     23  N         28.0470    0.2020  -18.5050 N.3   377  HIS377     -0.1241
     24  CA        27.9470    0.6590  -17.1240 C.3   377  HIS377      0.1621
     25  C         28.1120    2.1760  -16.9440 C.2   377  HIS377      0.2264
     26  O         27.8320    2.7130  -15.8710 O.2   377  HIS377     -0.2867
     27  CB        29.0160   -0.0270  -16.2760 C.3   377  HIS377      0.0745
     28  CG        30.3790    0.5820  -16.4410 C.ar  377  HIS377      0.0817
     29  ND1       30.8950    1.5020  -15.5570 N.ar  377  HIS377     -0.2268
     30  CD2       31.3120    0.4370  -17.4170 C.ar  377  HIS377      0.1154
     31  CE1       32.0960    1.8830  -15.9650 C.ar  377  HIS377      0.1986
     32  NE2       32.3690    1.2550  -17.0950 N.ar  377  HIS377     -0.2212
     33  N         27.4870    5.8440  -16.7450 N.3   379  THR379     -0.1218
     34  CA        26.3670    6.7730  -16.6380 C.3   379  THR379      0.1862
     35  C         26.5240    8.0210  -17.5240 C.2   379  THR379      0.2287
     36  O         27.5090    8.7490  -17.4190 O.2   379  THR379     -0.2866
     37  CB        26.1720    7.2000  -15.1840 C.3   379  THR379      0.1770
     38  OG1       25.7400    6.0610  -14.4300 O.3   379  THR379     -0.2211
     39  CG2       25.1280    8.3070  -15.0780 C.3   379  THR379      0.0375
     40  N         21.5470   -0.5760  -19.0310 N.3   399  GLU399     -0.1231
     41  CA        21.5320   -0.7370  -17.5760 C.3   399  GLU399      0.1684
     42  C         20.7010    0.3480  -16.9020 C.2   399  GLU399      0.2434
     43  O         20.6250    1.4620  -17.3930 O.2   399  GLU399     -0.2733
     44  CB        22.9490   -0.7000  -17.0130 C.3   399  GLU399      0.0402
     45  CG        23.8940   -1.7440  -17.5500 C.3   399  GLU399      0.1161
     46  CD        25.1620   -1.8210  -16.7210 C.2   399  GLU399      0.3649
     47  OE1       26.0700   -2.6020  -17.0850 O.co2 399  GLU399     -0.2457
     48  OE2       25.2440   -1.1090  -15.6920 O.co2 399  GLU399     -0.2457
     49  N         20.0790    0.0310  -15.7630 N.am  400  PRO400     -0.2718
     50  CA        19.3580    1.0920  -15.0440 C.3   400  PRO400      0.1535
     51  C         20.2830    2.2510  -14.6460 C.2   400  PRO400      0.2598
     52  O         21.4510    2.0100  -14.3130 O.2   400  PRO400     -0.2715
     53  CB        18.8190    0.3680  -13.7920 C.3   400  PRO400      0.0310
     54  CG        18.8020   -1.1050  -14.1570 C.3   400  PRO400      0.0237
     55  CD        19.9270   -1.2960  -15.1330 C.3   400  PRO400      0.0939
     56  N         19.7680    3.4800  -14.6890 N.am  401  LEU401     -0.1964
     57  CA        20.4900    4.6530  -14.1890 C.3   401  LEU401      0.1728
     58  C         21.7840    4.9360  -14.9530 C.2   401  LEU401      0.2616
     59  O         22.7820    5.3500  -14.3590 O.2   401  LEU401     -0.2715
     60  CB        20.8080    4.4980  -12.6870 C.3   401  LEU401      0.0311
     61  CG        19.6100    4.1690  -11.7920 C.3   401  LEU401      0.0022
     62  CD1       19.9930    4.1430  -10.3100 C.3   401  LEU401      0.0001
     63  CD2       18.4730    5.1410  -12.0440 C.3   401  LEU401      0.0001
     64  N         21.7700    4.7280  -16.2640 N.am  402  THR402     -0.1951
     65  CA        22.9110    5.0990  -17.0900 C.3   402  THR402      0.1897
     66  C         22.5520    6.0210  -18.2660 C.2   402  THR402      0.2313
     67  O         23.4030    6.3020  -19.1170 O.2   402  THR402     -0.2863
     68  CB        23.6330    3.8420  -17.6400 C.3   402  THR402      0.1794
     69  OG1       22.7070    3.0260  -18.3720 O.3   402  THR402     -0.2208
     70  CG2       24.2470    3.0330  -16.4940 C.3   402  THR402      0.0378
     71  N         28.8280    9.6200   -6.5700 N.3   425  VAL425     -0.1231
     72  CA        28.1420    8.3650   -6.2650 C.3   425  VAL425      0.1692
     73  C         28.9040    7.1450   -6.7820 C.2   425  VAL425      0.2592
     74  O         28.9360    6.0930   -6.1370 O.2   425  VAL425     -0.2718
     75  CB        26.7310    8.3640   -6.8650 C.3   425  VAL425      0.0266
     76  CG1       26.1200    6.9480   -6.8440 C.3   425  VAL425      0.0020
     77  CG2       25.8610    9.3730   -6.1260 C.3   425  VAL425      0.0020
     78  N         29.5300    7.2870   -7.9430 N.am  426  LYS426     -0.1966
     79  CA        30.2850    6.1830   -8.5270 C.3   426  LYS426      0.1713
     80  C         31.7700    6.5380   -8.6760 C.2   426  LYS426      0.2458
     81  O         32.2670    6.7600   -9.7760 O.2   426  LYS426     -0.2730
     82  CB        29.6740    5.8010   -9.8710 C.3   426  LYS426      0.0311
     83  CG        28.1800    5.5230   -9.7750 C.3   426  LYS426      0.0038
     84  CD        27.5060    5.4980  -11.1410 C.3   426  LYS426      0.0206
     85  CE        27.9090    4.2810  -11.9340 C.3   426  LYS426      0.1093
     86  NZ        27.4300    4.4030  -13.3290 N.3   426  LYS426     -0.1314
     87  N         32.4940    6.5840   -7.5560 N.am  427  PRO427     -0.2727
     88  CA        33.8780    7.0350   -7.6910 C.3   427  PRO427      0.1402
     89  C         34.7370    6.0200   -8.4480 C.2   427  PRO427      0.2269
     90  O         34.5280    4.8130   -8.3350 O.2   427  PRO427     -0.2865
     91  CB        34.3360    7.2130   -6.2460 C.3   427  PRO427      0.0296
     92  CG        33.3870    6.4260   -5.4210 C.3   427  PRO427      0.0237
     93  CD        32.1260    6.2450   -6.1710 C.3   427  PRO427      0.0939
     94  N         34.7060    5.9400  -11.7120 N.3   429  GLU429     -0.1245
     95  CA        34.0720    5.7920  -13.0200 C.3   429  GLU429      0.1567
     96  C         34.0130    7.0780  -13.8140 C.2   429  GLU429      0.2260
     97  O         33.7510    8.1420  -13.2620 O.2   429  GLU429     -0.2867
     98  CB        32.6530    5.2580  -12.8640 C.3   429  GLU429      0.0388
     99  CG        32.5590    3.8210  -12.3630 C.3   429  GLU429      0.1160
    100  CD        31.1950    3.2070  -12.6290 C.2   429  GLU429      0.3649
    101  OE1       30.5780    3.5640  -13.6540 O.co2 429  GLU429     -0.2457
    102  OE2       30.7330    2.3740  -11.8190 O.co2 429  GLU429     -0.2457
@<TRIPOS>BOND
     1    67    66    2
     2    40    41    1
     3    23    24    1
     4    69    68    1
     5    66    65    1
     6    68    65    1
     7    68    70    1
     8    41    44    1
     9    41    42    1
    10    45    44    1
    11    45    46    1
    12    35    36    2
    13    35    34    1
    14    30    32   ar
    15    30    28   ar
    16    43    42    2
    17    24    25    1
    18    24    27    1
    19    32    31   ar
    20    65    64    1
    21    47    46   ar
    22    25    26    2
    23    42    49   am
    24    33    34    1
    25    46    48   ar
    26    34    37    1
    27    28    27    1
    28    28    29   ar
    29    64    58   am
    30    31    29   ar
    31    49    55    1
    32    49    50    1
    33    37    39    1
    34    37    38    1
    35    55    54    1
    36    50    51    1
    37    50    53    1
    38    58    59    2
    39    58    57    1
    40    56    51   am
    41    56    57    1
    42    51    52    2
    43    57    60    1
    44    54    53    1
    45    96    97    2
    46    96    95    1
    47   101   100   ar
    48    86    85    1
    49    95    98    1
    50    95    94    1
    51    98    99    1
    52    60    61    1
    53   100    99    1
    54   100   102   ar
    55    63    61    1
    56    85    84    1
    57    61    62    1
    58    84    83    1
    59    19    18    2
    60     8     6    1
    61    17    16    1
    62    17    18    1
    63    17    20    1
    64    16    22    1
    65     7     6    1
    66     6     5    1
    67    82    83    1
    68    82    79    1
    69    81    80    2
    70    22    21    1
    71    21    20    1
    72    80    79    1
    73    80    87   am
    74     5     2    1
    75    79    78    1
    76    89    90    2
    77    89    88    1
    78     2     1    1
    79     2     3    1
    80    78    73   am
    81    88    87    1
    82    88    91    1
    83    87    93    1
    84     4     3    2
    85     3     9   am
    86    75    76    1
    87    75    72    1
    88    75    77    1
    89    73    72    1
    90    73    74    2
    91    71    72    1
    92    91    92    1
    93    93    92    1
    94     9    10    1
    95    10    11    1
    96    10    13    1
    97    15    13    1
    98    11    12    2
    99    13    14    1
