@<TRIPOS>MOLECULE
tmp/4rjkG06.pdb
 77 73 0 0 0
SMALL
GASTEIGER

@<TRIPOS>ATOM
      1  N         26.5600   26.0530   -0.0720 N.3    22  ILE22      -0.1231
      2  CA        27.2740   27.3190   -0.0610 C.3    22  ILE22       0.1678
      3  C         27.0060   28.0240    1.2770 C.2    22  ILE22       0.2434
      4  O         25.8550   28.2920    1.6090 O.2    22  ILE22      -0.2733
      5  CB        26.8280   28.2240   -1.2280 C.3    22  ILE22       0.0265
      6  CG1       27.1610   27.5650   -2.5780 C.3    22  ILE22       0.0019
      7  CG2       27.4680   29.6160   -1.1080 C.3    22  ILE22       0.0020
      8  CD1       26.6030   28.2870   -3.7820 C.3    22  ILE22       0.0001
      9  N         28.0620   28.3150    2.0570 N.am   23  PRO23      -0.2718
     10  CA        27.8520   28.9170    3.3860 C.3    23  PRO23       0.1535
     11  C         27.3310   30.3550    3.3620 C.2    23  PRO23       0.2599
     12  O         27.3820   31.0600    2.3480 O.2    23  PRO23      -0.2715
     13  CB        29.2470   28.8740    4.0190 C.3    23  PRO23       0.0310
     14  CG        30.1930   28.8470    2.8530 C.3    23  PRO23       0.0237
     15  CD        29.4860   28.0660    1.7720 C.3    23  PRO23       0.0939
     16  N         26.8190   30.7820    4.5080 N.am   24  GLY24      -0.1941
     17  CA        26.3670   32.1470    4.6910 C.3    24  GLY24       0.2014
     18  C         26.1640   32.3520    6.1720 C.2    24  GLY24       0.2639
     19  O         26.1360   31.3800    6.9210 O.2    24  GLY24      -0.2714
     20  N         26.0060   33.6010    6.5960 N.am   25  ALA25      -0.1963
     21  CA        25.9430   33.9230    8.0210 C.3    25  ALA25       0.1728
     22  C         24.7790   33.2490    8.7610 C.2    25  ALA25       0.2616
     23  O         24.9410   32.7920    9.8920 O.2    25  ALA25      -0.2715
     24  CB        25.8700   35.4240    8.2030 C.3    25  ALA25       0.0334
     25  N         23.6120   33.1930    8.1340 N.am   26  LYS26      -0.1977
     26  CA        22.4150   32.6910    8.8060 C.3    26  LYS26       0.1596
     27  C         22.4700   31.1870    9.0810 C.2    26  LYS26       0.2287
     28  O         21.9190   30.7280   10.0760 O.2    26  LYS26      -0.2864
     29  CB        21.1600   33.0040    7.9890 C.3    26  LYS26       0.0298
     30  CG        20.4870   34.2920    8.3520 C.3    26  LYS26       0.0038
     31  CD        21.3750   35.4890    8.0730 C.3    26  LYS26       0.0206
     32  CE        20.6180   36.7800    8.3060 C.3    26  LYS26       0.1093
     33  NZ        21.5230   37.9460    8.3930 N.3    26  LYS26      -0.1314
     34  N         23.8200   27.7480   -5.9500 N.3    47  GLU47      -0.1245
     35  CA        22.8920   26.8720   -5.2400 C.3    47  GLU47       0.1567
     36  C         22.0020   26.0630   -6.1950 C.2    47  GLU47       0.2260
     37  O         21.5500   24.9810   -5.8550 O.2    47  GLU47      -0.2867
     38  CB        22.0010   27.6780   -4.2990 C.3    47  GLU47       0.0388
     39  CG        22.7090   28.2870   -3.1390 C.3    47  GLU47       0.1160
     40  CD        23.2980   29.6550   -3.4480 C.2    47  GLU47       0.3649
     41  OE1       23.2250   30.1040   -4.6160 O.co2  47  GLU47      -0.2457
     42  OE2       23.8230   30.2800   -2.5030 O.co2  47  GLU47      -0.2457
     43  N         22.1660   29.2350    2.8320 N.3    70  THR70      -0.1218
     44  CA        21.8240   30.2770    3.8180 C.3    70  THR70       0.1862
     45  C         20.4580   30.9490    3.5410 C.2    70  THR70       0.2287
     46  O         19.7170   30.5290    2.6540 O.2    70  THR70      -0.2866
     47  CB        22.9330   31.3590    3.8710 C.3    70  THR70       0.1770
     48  OG1       22.7800   32.1560    5.0500 O.3    70  THR70      -0.2211
     49  CG2       22.8770   32.2500    2.6300 C.3    70  THR70       0.0375
     50  N         18.6790   35.0640   -0.6180 N.3    73  PRO73      -0.2102
     51  CA        18.9890   34.6190   -1.9830 C.3    73  PRO73       0.1504
     52  C         19.5810   33.1860   -2.0580 C.2    73  PRO73       0.2576
     53  O         19.4500   32.5520   -3.0980 O.2    73  PRO73      -0.2718
     54  CB        19.9800   35.6730   -2.4650 C.3    73  PRO73       0.0282
     55  CG        20.6030   36.2310   -1.2130 C.3    73  PRO73       0.0208
     56  CD        19.6020   36.1030   -0.1240 C.3    73  PRO73       0.0893
     57  N         20.1910   32.6830   -0.9830 N.am   74  GLY74      -0.1957
     58  CA        20.6870   31.3100   -0.9450 C.3    74  GLY74       0.1869
     59  C         19.5700   30.2640   -0.9830 C.2    74  GLY74       0.2309
     60  O         19.6470   29.2920   -1.7350 O.2    74  GLY74      -0.2863
     61  N         17.5770   30.7630   -4.5220 N.3    77  ASN77      -0.1240
     62  CA        18.2800   30.1160   -5.6270 C.3    77  ASN77       0.1653
     63  C         18.0000   28.6050   -5.7680 C.2    77  ASN77       0.2266
     64  O         18.4680   27.9900   -6.7100 O.2    77  ASN77      -0.2867
     65  CB        19.7880   30.3260   -5.4780 C.3    77  ASN77       0.1155
     66  CG        20.2900   31.5660   -6.2070 C.2    77  ASN77       0.2627
     67  OD1       19.5200   32.3080   -6.8230 O.2    77  ASN77      -0.2716
     68  ND2       21.5940   31.7960   -6.1270 N.am   77  ASN77      -0.0877
     69  N         18.1760   39.5070    3.9250 N.3   110  GLN110     -0.1245
     70  CA        17.8970   38.1260    3.5350 C.3   110  GLN110      0.1566
     71  C         16.6520   37.5170    4.2180 C.2   110  GLN110      0.2260
     72  O         16.5080   36.2960    4.3100 O.2   110  GLN110     -0.2867
     73  CB        19.1500   37.2840    3.7760 C.3   110  GLN110      0.0367
     74  CG        20.3210   37.8090    2.9330 C.3   110  GLN110      0.0905
     75  CD        21.6360   37.1250    3.2290 C.2   110  GLN110      0.2608
     76  OE1       22.0150   36.9550    4.3850 O.2   110  GLN110     -0.2717
     77  NE2       22.3460   36.7260    2.1750 N.am  110  GLN110     -0.0878
@<TRIPOS>BOND
     1    67    66    2
     2    64    63    2
     3    66    68   am
     4    66    65    1
     5    36    37    2
     6    36    35    1
     7    34    35    1
     8    63    62    1
     9    62    65    1
    10    62    61    1
    11    35    38    1
    12    41    40   ar
    13    38    39    1
    14     8     6    1
    15    40    39    1
    16    40    42   ar
    17    53    52    2
    18     6     5    1
    19    54    51    1
    20    54    55    1
    21    52    51    1
    22    52    57   am
    23    51    50    1
    24    60    59    2
    25     5     7    1
    26     5     2    1
    27    55    56    1
    28    57    58    1
    29    59    58    1
    30    50    56    1
    31     1     2    1
    32     2     3    1
    33     3     4    2
    34     3     9   am
    35    15     9    1
    36    15    14    1
    37     9    10    1
    38    77    75   am
    39    12    11    2
    40    49    47    1
    41    46    45    2
    42    43    44    1
    43    14    13    1
    44    74    75    1
    45    74    73    1
    46    75    76    2
    47    11    10    1
    48    11    16   am
    49    10    13    1
    50    70    73    1
    51    70    69    1
    52    70    71    1
    53    45    44    1
    54    44    47    1
    55    47    48    1
    56    71    72    2
    57    16    17    1
    58    17    18    1
    59    18    20   am
    60    18    19    2
    61    20    21    1
    62    29    30    1
    63    29    26    1
    64    21    24    1
    65    21    22    1
    66    31    32    1
    67    31    30    1
    68    25    22   am
    69    25    26    1
    70    32    33    1
    71    22    23    2
    72    26    27    1
    73    27    28    2
