@<TRIPOS>MOLECULE
tmp/4rjkH01.pdb
 183 179 0 0 0
SMALL
GASTEIGER

@<TRIPOS>ATOM
      1  N         14.9410   34.4900   -7.5770 N.3    81  THR81      -0.1218
      2  CA        15.9000   35.2970   -6.8290 C.3    81  THR81       0.1862
      3  C         15.9530   36.7380   -7.3350 C.2    81  THR81       0.2287
      4  O         15.9580   37.6680   -6.5470 O.2    81  THR81      -0.2866
      5  CB        17.2920   34.6850   -6.8900 C.3    81  THR81       0.1770
      6  OG1       17.3120   33.4930   -6.0930 O.3    81  THR81      -0.2211
      7  CG2       18.3360   35.6810   -6.3680 C.3    81  THR81       0.0375
      8  N         28.6140   41.2860   -4.2720 N.3   383  ILE383     -0.1231
      9  CA        28.4830   41.0420   -2.8390 C.3   383  ILE383      0.1692
     10  C         29.6720   40.2330   -2.3310 C.2   383  ILE383      0.2593
     11  O         30.0900   39.2540   -2.9570 O.2   383  ILE383     -0.2718
     12  CB        27.1520   40.3220   -2.5230 C.3   383  ILE383      0.0266
     13  CG1       25.9840   41.2930   -2.7290 C.3   383  ILE383      0.0019
     14  CG2       27.1450   39.7420   -1.0990 C.3   383  ILE383      0.0020
     15  CD1       26.0190   42.4790   -1.7690 C.3   383  ILE383      0.0001
     16  N         30.2380   40.6620   -1.2070 N.am  384  GLY384     -0.1942
     17  CA        31.4110   40.0100   -0.6580 C.3   384  GLY384      0.2014
     18  C         32.2450   41.0080    0.1180 C.2   384  GLY384      0.2640
     19  O         31.7850   42.0940    0.4400 O.2   384  GLY384     -0.2714
     20  N         33.4760   40.6330    0.4290 N.am  385  SER385     -0.1935
     21  CA        34.3540   41.5090    1.1720 C.3   385  SER385      0.2055
     22  C         34.6650   42.7720    0.3500 C.2   385  SER385      0.2643
     23  O         34.6430   43.8900    0.8870 O.2   385  SER385     -0.2714
     24  CB        35.6280   40.7590    1.5620 C.3   385  SER385      0.2130
     25  OG        35.3590   39.7930    2.5720 O.3   385  SER385     -0.2179
     26  N         34.9220   42.5900   -0.9490 N.am  386  HIS386     -0.1973
     27  CA        35.1210   43.7060   -1.8830 C.3   386  HIS386      0.1656
     28  C         33.9810   44.7050   -1.7880 C.2   386  HIS386      0.2291
     29  O         34.1840   45.9160   -1.8660 O.2   386  HIS386     -0.2864
     30  CB        35.2240   43.2060   -3.3230 C.3   386  HIS386      0.0771
     31  CG        33.9340   42.6650   -3.8590 C.ar  386  HIS386      0.0820
     32  ND1       33.4660   41.4100   -3.5440 N.ar  386  HIS386     -0.2267
     33  CD2       32.9980   43.2250   -4.6660 C.ar  386  HIS386      0.1154
     34  CE1       32.3000   41.2120   -4.1390 C.ar  386  HIS386      0.1986
     35  NE2       31.9970   42.2990   -4.8270 N.ar  386  HIS386     -0.2212
     36  N         18.7750   42.0950   -0.3870 N.3   408  MET408     -0.1230
     37  CA        18.9560   40.6550   -0.3920 C.3   408  MET408      0.1702
     38  C         20.4260   40.2760   -0.3580 C.2   408  MET408      0.2592
     39  O         20.7600   39.1580    0.0220 O.2   408  MET408     -0.2718
     40  CB        18.3060   40.0410   -1.6200 C.3   408  MET408      0.0401
     41  CG        16.8610   39.6920   -1.4250 C.3   408  MET408      0.0596
     42  SD        16.6170   38.5340   -0.0600 S.3   408  MET408     -0.1393
     43  CE        15.4400   39.5390    0.8670 C.3   408  MET408      0.0692
     44  N         21.2960   41.2060   -0.7570 N.am  409  GLN409     -0.1966
     45  CA        22.7440   40.9460   -0.8250 C.3   409  GLN409      0.1733
     46  C         23.0060   39.7510   -1.7400 C.2   409  GLN409      0.2617
     47  O         23.5650   38.7410   -1.3220 O.2   409  GLN409     -0.2715
     48  CB        23.3350   40.7010    0.5770 C.3   409  GLN409      0.0408
     49  CG        22.8240   41.7060    1.6370 C.3   409  GLN409      0.0908
     50  CD        23.3750   41.4220    3.0130 C.2   409  GLN409      0.2608
     51  OE1       22.9130   40.5200    3.7110 O.2   409  GLN409     -0.2717
     52  NE2       24.3830   42.1870    3.4080 N.am  409  GLN409     -0.0878
     53  N         22.5960   39.8940   -2.9960 N.am  410  THR410     -0.1937
     54  CA        22.5190   38.7830   -3.9330 C.3   410  THR410      0.2028
     55  C         23.7850   38.6360   -4.7610 C.2   410  THR410      0.2642
     56  O         24.1340   39.5400   -5.5200 O.2   410  THR410     -0.2714
     57  CB        21.3200   38.9660   -4.8850 C.3   410  THR410      0.1808
     58  OG1       20.0960   38.9960   -4.1330 O.3   410  THR410     -0.2208
     59  CG2       21.2810   37.8610   -5.9170 C.3   410  THR410      0.0379
     60  N         24.4670   37.4980   -4.6320 N.am  411  LEU411     -0.1977
     61  CA        25.6820   37.2710   -5.4130 C.3   411  LEU411      0.1596
     62  C         25.3820   37.2550   -6.8900 C.2   411  LEU411      0.2287
     63  O         24.3570   36.7210   -7.3050 O.2   411  LEU411     -0.2864
     64  CB        26.3560   35.9580   -5.0290 C.3   411  LEU411      0.0297
     65  CG        27.0740   36.0310   -3.6880 C.3   411  LEU411      0.0022
     66  CD1       27.4600   34.6460   -3.2550 C.3   411  LEU411      0.0001
     67  CD2       28.2920   36.8990   -3.8450 C.3   411  LEU411      0.0001
     68  N         33.8170   40.0230   -6.5160 N.3   435  GLY435     -0.1210
     69  CA        34.7630   39.0310   -6.0400 C.3   435  GLY435      0.1956
     70  C         34.8330   37.8960   -7.0390 C.2   435  GLY435      0.2612
     71  O         34.0530   37.8590   -7.9950 O.2   435  GLY435     -0.2717
     72  N         35.7660   36.9670   -6.8490 N.am  436  ASP436     -0.1959
     73  CA        35.8830   35.8680   -7.8080 C.3   436  ASP436      0.1840
     74  C         34.7850   34.8390   -7.5640 C.2   436  ASP436      0.2623
     75  O         34.3050   34.2230   -8.5020 O.2   436  ASP436     -0.2715
     76  CB        37.2800   35.2200   -7.7770 C.3   436  ASP436      0.1450
     77  CG        37.8570   35.1010   -6.3820 C.2   436  ASP436      0.3671
     78  OD1       37.2210   35.5790   -5.4130 O.co2 436  ASP436     -0.2456
     79  OD2       38.9710   34.5450   -6.2670 O.co2 436  ASP436     -0.2456
     80  N         34.3600   34.6990   -6.3130 N.am  437  GLY437     -0.1940
     81  CA        33.2220   33.8650   -5.9800 C.3   437  GLY437      0.2014
     82  C         31.9490   34.3180   -6.6640 C.2   437  GLY437      0.2639
     83  O         31.3280   33.5710   -7.4130 O.2   437  GLY437     -0.2714
     84  N         31.5650   35.5620   -6.4230 N.am  438  GLY438     -0.1954
     85  CA        30.3770   36.1070   -7.0510 C.3   438  GLY438      0.1869
     86  C         30.4320   36.0840   -8.5670 C.2   438  GLY438      0.2309
     87  O         29.4280   35.7930   -9.2180 O.2   438  GLY438     -0.2863
     88  N         28.7900   33.3780  -10.6070 N.3   441  PHE441     -0.1241
     89  CA        27.3360   33.3070  -10.5350 C.3   441  PHE441      0.1605
     90  C         26.6470   33.8040  -11.8140 C.2   441  PHE441      0.2264
     91  O         25.5080   33.4270  -12.1010 O.2   441  PHE441     -0.2867
     92  CB        26.8240   34.1150   -9.3470 C.3   441  PHE441      0.0534
     93  CG        26.7190   33.3340   -8.0940 C.ar  441  PHE441     -0.0203
     94  CD1       27.8520   33.0130   -7.3680 C.ar  441  PHE441     -0.0042
     95  CD2       25.4870   32.9110   -7.6370 C.ar  441  PHE441     -0.0042
     96  CE1       27.7610   32.2770   -6.1930 C.ar  441  PHE441     -0.0003
     97  CE2       25.3850   32.1760   -6.4690 C.ar  441  PHE441     -0.0003
     98  CZ        26.5220   31.8610   -5.7440 C.ar  441  PHE441     -0.0000
     99  N         37.9660   41.1660   -7.8690 N.3   461  TRP461     -0.1241
    100  CA        38.8740   41.0730   -6.7320 C.3   461  TRP461      0.1605
    101  C         39.1800   39.6150   -6.4580 C.2   461  TRP461      0.2264
    102  O         38.3180   38.8510   -6.0020 O.2   461  TRP461     -0.2867
    103  CB        38.3030   41.7100   -5.4670 C.3   461  TRP461      0.0550
    104  CG        38.0750   43.1780   -5.5160 C.ar  461  TRP461      0.0003
    105  CD1       37.6420   43.9070   -6.5840 C.ar  461  TRP461      0.0946
    106  CD2       38.2530   44.1110   -4.4370 C.ar  461  TRP461      0.0152
    107  NE1       37.5240   45.2360   -6.2340 N.ar  461  TRP461     -0.2442
    108  CE2       37.8910   45.3880   -4.9170 C.ar  461  TRP461      0.0810
    109  CE3       38.6650   43.9880   -3.1000 C.ar  461  TRP461      0.0012
    110  CZ2       37.9340   46.5370   -4.1240 C.ar  461  TRP461      0.0191
    111  CZ3       38.7050   45.1290   -2.3050 C.ar  461  TRP461      0.0001
    112  CH2       38.3460   46.3900   -2.8230 C.ar  461  TRP461      0.0015
    113  N         41.0320   36.4790   -4.6900 N.3   463  ASP463     -0.1239
    114  CA        41.7040   35.9130   -3.5060 C.3   463  ASP463      0.1674
    115  C         41.5450   34.3890   -3.3760 C.2   463  ASP463      0.2266
    116  O         42.1640   33.7830   -2.5020 O.2   463  ASP463     -0.2867
    117  CB        41.1910   36.5670   -2.2130 C.3   463  ASP463      0.1410
    118  CG        39.8310   36.0040   -1.7580 C.2   463  ASP463      0.3668
    119  OD1       38.9490   35.7690   -2.6150 O.co2 463  ASP463     -0.2456
    120  OD2       39.6310   35.8080   -0.5370 O.co2 463  ASP463     -0.2456
    121  N         38.6070   32.7590   -2.5850 N.3   465  THR465     -0.1203
    122  CA        37.8310   32.4300   -1.3780 C.3   465  THR465      0.1994
    123  C         36.4630   33.1450   -1.2530 C.2   465  THR465      0.2618
    124  O         36.3000   34.2880   -1.6970 O.2   465  THR465     -0.2717
    125  CB        38.6900   32.7400   -0.1050 C.3   465  THR465      0.1784
    126  OG1       39.7170   31.7490    0.0330 O.3   465  THR465     -0.2211
    127  CG2       37.8600   32.7730    1.1680 C.3   465  THR465      0.0376
    128  N         35.4840   32.4450   -0.6710 N.am  466  TYR466     -0.1961
    129  CA        34.2670   33.0620   -0.1260 C.3   466  TYR466      0.1771
    130  C         34.5920   33.7660    1.1920 C.2   466  TYR466      0.2620
    131  O         34.2310   33.2840    2.2720 O.2   466  TYR466     -0.2715
    132  CB        33.1690   32.0150    0.1200 C.3   466  TYR466      0.0574
    133  CG        32.4620   31.4560   -1.1120 C.ar  466  TYR466     -0.0198
    134  CD1       32.1880   32.2650   -2.2150 C.ar  466  TYR466     -0.0009
    135  CD2       32.0450   30.1150   -1.1500 C.ar  466  TYR466     -0.0009
    136  CE1       31.5340   31.7570   -3.3230 C.ar  466  TYR466      0.0417
    137  CE2       31.3830   29.5960   -2.2540 C.ar  466  TYR466      0.0417
    138  CZ        31.1290   30.4230   -3.3400 C.ar  466  TYR466      0.1957
    139  OH        30.4700   29.9270   -4.4470 O.3   466  TYR466     -0.2866
    140  N         35.2600   34.9090    1.0990 N.am  467  ASP467     -0.1957
    141  CA        35.8750   35.5380    2.2620 C.3   467  ASP467      0.1840
    142  C         34.9250   36.1880    3.2700 C.2   467  ASP467      0.2622
    143  O         35.1670   36.0950    4.4780 O.2   467  ASP467     -0.2715
    144  CB        36.8830   36.5930    1.8060 C.3   467  ASP467      0.1450
    145  CG        37.8630   36.9560    2.8970 C.2   467  ASP467      0.3671
    146  OD1       38.8460   36.2020    3.0750 O.co2 467  ASP467     -0.2456
    147  OD2       37.6390   37.9730    3.5910 O.co2 467  ASP467     -0.2456
    148  N         33.8760   36.8650    2.8010 N.am  468  MET468     -0.1963
    149  CA        32.9780   37.5600    3.7290 C.3   468  MET468      0.1736
    150  C         32.3290   36.5600    4.6860 C.2   468  MET468      0.2616
    151  O         31.9800   36.8970    5.8170 O.2   468  MET468     -0.2715
    152  CB        31.9010   38.3560    2.9800 C.3   468  MET468      0.0427
    153  CG        31.0230   39.2140    3.9000 C.3   468  MET468      0.0599
    154  SD        29.8660   40.2910    3.0250 S.3   468  MET468     -0.1393
    155  CE        28.8460   40.8970    4.3880 C.3   468  MET468      0.0692
    156  N         32.1730   35.3260    4.2120 N.am  469  VAL469     -0.1977
    157  CA        31.7480   34.2200    5.0590 C.3   469  VAL469      0.1596
    158  C         32.8750   33.8130    6.0170 C.2   469  VAL469      0.2287
    159  O         32.6610   33.7010    7.2300 O.2   469  VAL469     -0.2864
    160  CB        31.3180   32.9940    4.2160 C.3   469  VAL469      0.0276
    161  CG1       30.8360   31.8680    5.1230 C.3   469  VAL469      0.0022
    162  CG2       30.2350   33.3850    3.2140 C.3   469  VAL469      0.0022
    163  N         33.9180   36.3720    9.0340 N.3   472  GLN472     -0.1245
    164  CA        32.8690   36.3130   10.0550 C.3   472  GLN472      0.1566
    165  C         32.8380   34.9740   10.8180 C.2   472  GLN472      0.2260
    166  O         32.4540   34.9330   11.9910 O.2   472  GLN472     -0.2867
    167  CB        31.5000   36.5530    9.4200 C.3   472  GLN472      0.0367
    168  CG        31.2320   37.9530    8.9210 C.3   472  GLN472      0.0905
    169  CD        29.7650   38.1490    8.5980 C.2   472  GLN472      0.2608
    170  OE1       29.3510   38.0660    7.4370 O.2   472  GLN472     -0.2717
    171  NE2       28.9620   38.3740    9.6320 N.am  472  GLN472     -0.0878
    172  N         43.5640   40.1930    1.4850 N.3   532  TYR532     -0.1241
    173  CA        42.4280   40.3420    2.3800 C.3   532  TYR532      0.1605
    174  C         42.7780   40.1860    3.8510 C.2   532  TYR532      0.2264
    175  O         41.8900   39.9970    4.6770 O.2   532  TYR532     -0.2867
    176  CB        41.3460   39.3290    2.0110 C.3   532  TYR532      0.0534
    177  CG        40.3780   39.8100    0.9470 C.ar  532  TYR532     -0.0201
    178  CD1       40.2390   41.1680    0.6670 C.ar  532  TYR532     -0.0009
    179  CD2       39.5870   38.9060    0.2380 C.ar  532  TYR532     -0.0009
    180  CE1       39.3430   41.6130   -0.2870 C.ar  532  TYR532      0.0417
    181  CE2       38.6930   39.3430   -0.7170 C.ar  532  TYR532      0.0417
    182  CZ        38.5770   40.7000   -0.9750 C.ar  532  TYR532      0.1957
    183  OH        37.6930   41.1420   -1.9270 O.3   532  TYR532     -0.2866
@<TRIPOS>BOND
     1    91    90    2
     2    90    89    1
     3    88    89    1
     4    89    92    1
     5    92    93    1
     6    87    86    2
     7    86    85    1
     8    75    74    2
     9    93    95   ar
    10    93    94   ar
    11    71    70    2
    12    99   100    1
    13    73    76    1
    14    73    74    1
    15    73    72    1
    16    76    77    1
    17    95    97   ar
    18     1     2    1
    19    74    80   am
    20    83    82    2
    21    94    96   ar
    22     3     2    1
    23     3     4    2
    24    63    62    2
    25    85    84    1
    26    70    72   am
    27    70    69    1
    28    62    61    1
    29     5     2    1
    30     5     7    1
    31     5     6    1
    32   100   101    1
    33   100   103    1
    34    82    84   am
    35    82    81    1
    36   105   107   ar
    37   105   104   ar
    38    68    69    1
    39    97    98   ar
    40   101   102    2
    41    77    79   ar
    42    77    78   ar
    43    80    81    1
    44   107   108   ar
    45    96    98   ar
    46    59    57    1
    47    56    55    2
    48   104   103    1
    49   104   106   ar
    50    61    64    1
    51    61    60    1
    52    64    65    1
    53   108   106   ar
    54   108   110   ar
    55    57    58    1
    56    57    54    1
    57    35    33   ar
    58    35    34   ar
    59    55    60   am
    60    55    54    1
    61   113   114    1
    62    33    31   ar
    63   139   138    1
    64   106   109   ar
    65     8     9    1
    66    34    32   ar
    67   110   112   ar
    68    54    53    1
    69    31    32   ar
    70    31    30    1
    71    67    65    1
    72    65    66    1
    73   114   115    1
    74   114   117    1
    75   115   116    2
    76   138   136   ar
    77   138   137   ar
    78   136   134   ar
    79    30    27    1
    80   109   111   ar
    81    53    46   am
    82    11    10    2
    83     9    12    1
    84     9    10    1
    85   112   111   ar
    86    13    12    1
    87    13    15    1
    88   119   118   ar
    89   121   122    1
    90    12    14    1
    91    10    16   am
    92   137   135   ar
    93   134   133   ar
    94   117   118    1
    95   183   182    1
    96    27    28    1
    97    27    26    1
    98    29    28    2
    99   118   120   ar
   100    46    47    2
   101    46    45    1
   102   124   123    2
   103    40    41    1
   104    40    37    1
   105    41    42    1
   106   122   123    1
   107   122   125    1
   108   123   128   am
   109    16    17    1
   110   135   133   ar
   111   133   132    1
   112   182   181   ar
   113   182   180   ar
   114    26    22   am
   115    45    44    1
   116    45    48    1
   117    44    38   am
   118   181   179   ar
   119   128   129    1
   120    17    18    1
   121    37    36    1
   122    37    38    1
   123    38    39    2
   124   180   178   ar
   125   129   132    1
   126   129   130    1
   127   125   126    1
   128   125   127    1
   129    42    43    1
   130    18    20   am
   131    18    19    2
   132   179   177   ar
   133    22    23    2
   134    22    21    1
   135    20    21    1
   136    48    49    1
   137   178   177   ar
   138   177   176    1
   139   140   130   am
   140   140   141    1
   141    21    24    1
   142   130   131    2
   143   172   173    1
   144    24    25    1
   145    49    50    1
   146   144   141    1
   147   144   145    1
   148   176   173    1
   149   141   142    1
   150   173   174    1
   151   148   142   am
   152   148   149    1
   153   145   146   ar
   154   145   147   ar
   155   152   149    1
   156   152   153    1
   157    50    52   am
   158    50    51    2
   159   154   153    1
   160   154   155    1
   161   162   160    1
   162   142   143    2
   163   149   150    1
   164   174   175    2
   165   156   150   am
   166   156   157    1
   167   160   157    1
   168   160   161    1
   169   150   151    2
   170   157   158    1
   171   158   159    2
   172   170   169    2
   173   169   168    1
   174   169   171   am
   175   168   167    1
   176   163   164    1
   177   167   164    1
   178   164   165    1
   179   165   166    2
