@<TRIPOS>MOLECULE
tmp/4rjkC03.pdb
 91 86 0 0 0
SMALL
GASTEIGER

@<TRIPOS>ATOM
      1  N         47.7680  -80.7140  -70.5100 N.3    59  GLY59      -0.1210
      2  CA        46.4910  -81.0030  -71.1330 C.3    59  GLY59       0.1956
      3  C         46.0060  -79.9080  -72.0820 C.2    59  GLY59       0.2612
      4  O         45.5320  -80.2030  -73.1660 O.2    59  GLY59      -0.2717
      5  N         46.1290  -78.6450  -71.6920 N.am   60  ARG60      -0.1965
      6  CA        45.6570  -77.5580  -72.5490 C.3    60  ARG60       0.1729
      7  C         46.5120  -77.3640  -73.8130 C.2    60  ARG60       0.2616
      8  O         45.9970  -76.9620  -74.8540 O.2    60  ARG60      -0.2715
      9  CB        45.6180  -76.2410  -71.7760 C.3    60  ARG60       0.0348
     10  CG        45.0940  -75.0980  -72.6030 C.3    60  ARG60       0.0492
     11  CD        45.0260  -73.8080  -71.8260 C.3    60  ARG60       0.2205
     12  NE        44.0710  -73.8540  -70.7230 N.pl3  60  ARG60      -0.0865
     13  CZ        43.7030  -72.7800  -70.0350 C.cat  60  ARG60       0.5346
     14  NH1       44.2080  -71.5940  -70.3480 N.pl3  60  ARG60       0.1354
     15  NH2       42.8390  -72.8890  -69.0380 N.pl3  60  ARG60       0.1354
     16  N         47.8120  -77.6340  -73.7130 N.am   61  LEU61      -0.1963
     17  CA        48.7410  -77.4000  -74.8190 C.3    61  LEU61       0.1728
     18  C         48.8540  -78.5890  -75.7780 C.2    61  LEU61       0.2617
     19  O         49.3260  -78.4350  -76.9000 O.2    61  LEU61      -0.2715
     20  CB        50.1270  -77.0460  -74.2750 C.3    61  LEU61       0.0311
     21  CG        50.1990  -75.7740  -73.4310 C.3    61  LEU61       0.0022
     22  CD1       51.4740  -75.7460  -72.6180 C.3    61  LEU61       0.0001
     23  CD2       50.1010  -74.5440  -74.3060 C.3    61  LEU61       0.0001
     24  N         48.4090  -79.7660  -75.3490 N.am   62  THR62      -0.1937
     25  CA        48.5730  -80.9640  -76.1670 C.3    62  THR62       0.2028
     26  C         47.2690  -81.6540  -76.5710 C.2    62  THR62       0.2642
     27  O         47.2480  -82.3940  -77.5490 O.2    62  THR62      -0.2714
     28  CB        49.4610  -82.0180  -75.4530 C.3    62  THR62       0.1808
     29  OG1       48.7960  -82.5100  -74.2820 O.3    62  THR62      -0.2208
     30  CG2       50.8020  -81.4160  -75.0670 C.3    62  THR62       0.0379
     31  N         46.1890  -81.4440  -75.8290 N.am   63  GLY63      -0.1954
     32  CA        44.9530  -82.1550  -76.1230 C.3    63  GLY63       0.1869
     33  C         44.9040  -83.5860  -75.5970 C.2    63  GLY63       0.2309
     34  O         43.9170  -84.2890  -75.7850 O.2    63  GLY63      -0.2863
     35  N         38.1540  -76.4070  -69.3730 N.3    90  GLY90      -0.1225
     36  CA        38.2490  -77.2060  -70.5880 C.3    90  GLY90       0.1811
     37  C         39.5460  -77.9790  -70.7940 C.2    90  GLY90       0.2280
     38  O         39.9170  -78.3150  -71.9250 O.2    90  GLY90      -0.2866
     39  N         41.9460  -81.2730  -70.2270 N.3    92  PRO92      -0.2116
     40  CA        41.9860  -82.6960  -69.8980 C.3    92  PRO92       0.1372
     41  C         43.0550  -82.9910  -68.8530 C.2    92  PRO92       0.2244
     42  O         44.2300  -82.7040  -69.0770 O.2    92  PRO92      -0.2868
     43  CB        42.3300  -83.3600  -71.2340 C.3    92  PRO92       0.0268
     44  CG        43.0230  -82.3040  -72.0210 C.3    92  PRO92       0.0207
     45  CD        42.4320  -80.9960  -71.5890 C.3    92  PRO92       0.0892
     46  N         38.9170  -86.4650  -71.9550 N.3   147  SER147     -0.1217
     47  CA        39.1820  -85.9060  -73.2890 C.3   147  SER147      0.1889
     48  C         37.9260  -85.5010  -74.0290 C.2   147  SER147      0.2288
     49  O         37.9830  -84.6410  -74.8930 O.2   147  SER147     -0.2866
     50  CB        39.9430  -86.9080  -74.1660 C.3   147  SER147      0.2089
     51  OG        41.2530  -87.1470  -73.6930 O.3   147  SER147     -0.2183
     52  N         36.0400  -81.1800  -72.3690 N.3   151  ALA151     -0.1245
     53  CA        37.1890  -81.7150  -71.6390 C.3   151  ALA151      0.1562
     54  C         37.1770  -81.2460  -70.1780 C.2   151  ALA151      0.2260
     55  O         36.7630  -80.1290  -69.8910 O.2   151  ALA151     -0.2867
     56  CB        38.5070  -81.3020  -72.3320 C.3   151  ALA151      0.0290
     57  N         41.0540  -73.7840  -79.2270 N.3   211  ARG211     -0.1231
     58  CA        41.8820  -74.9120  -79.6250 C.3   211  ARG211      0.1679
     59  C         42.5170  -74.6010  -80.9920 C.2   211  ARG211      0.2434
     60  O         41.9450  -73.8320  -81.7830 O.2   211  ARG211     -0.2733
     61  CB        41.0510  -76.2050  -79.6940 C.3   211  ARG211      0.0321
     62  CG        40.7670  -76.8880  -78.3590 C.3   211  ARG211      0.0489
     63  CD        39.7200  -76.1470  -77.5450 C.3   211  ARG211      0.2205
     64  NE        39.0550  -77.0100  -76.5580 N.pl3 211  ARG211     -0.0865
     65  CZ        39.3430  -77.0450  -75.2510 C.cat 211  ARG211      0.5346
     66  NH1       40.2990  -76.2770  -74.7530 N.pl3 211  ARG211      0.1354
     67  NH2       38.6720  -77.8510  -74.4350 N.pl3 211  ARG211      0.1354
     68  N         43.7020  -75.1760  -81.2700 N.am  212  PRO212     -0.2718
     69  CA        44.4130  -74.9180  -82.5350 C.3   212  PRO212      0.1535
     70  C         43.5800  -75.2200  -83.7740 C.2   212  PRO212      0.2598
     71  O         43.4070  -74.3400  -84.6230 O.2   212  PRO212     -0.2715
     72  CB        45.6240  -75.8470  -82.4410 C.3   212  PRO212      0.0310
     73  CG        45.8940  -75.8990  -80.9820 C.3   212  PRO212      0.0237
     74  CD        44.5330  -75.9490  -80.3320 C.3   212  PRO212      0.0939
     75  N         43.0470  -76.4310  -83.8630 N.am  213  GLU213     -0.1978
     76  CA        42.1680  -76.7790  -84.9690 C.3   213  GLU213      0.1602
     77  C         40.9800  -75.8240  -85.1190 C.2   213  GLU213      0.2287
     78  O         40.6710  -75.3650  -86.2290 O.2   213  GLU213     -0.2864
     79  CB        41.6720  -78.2030  -84.7970 C.3   213  GLU213      0.0415
     80  CG        42.7370  -79.2160  -85.1240 C.3   213  GLU213      0.1163
     81  CD        43.2710  -79.0360  -86.5380 C.2   213  GLU213      0.3649
     82  OE1       42.4500  -78.9930  -87.4870 O.co2 213  GLU213     -0.2457
     83  OE2       44.5040  -78.9050  -86.6970 O.co2 213  GLU213     -0.2457
     84  N         47.3360  -70.9370  -78.2400 N.3   402  LEU402     -0.1245
     85  CA        48.0290  -71.4770  -77.0790 C.3   402  LEU402      0.1561
     86  C         49.3240  -70.7240  -76.7820 C.2   402  LEU402      0.2260
     87  O         50.2900  -71.2970  -76.2740 O.2   402  LEU402     -0.2867
     88  CB        48.3140  -72.9760  -77.2900 C.3   402  LEU402      0.0270
     89  CG        47.1090  -73.8750  -77.6080 C.3   402  LEU402      0.0019
     90  CD1       47.5490  -75.3090  -77.8420 C.3   402  LEU402      0.0001
     91  CD2       46.0910  -73.8180  -76.4930 C.3   402  LEU402      0.0001
@<TRIPOS>BOND
     1    82    81   ar
     2    83    81   ar
     3    81    80    1
     4    78    77    2
     5    80    79    1
     6    77    76    1
     7    76    79    1
     8    76    75    1
     9    71    70    2
    10    75    70   am
    11    70    69    1
    12    69    72    1
    13    69    68    1
    14    72    73    1
    15    60    59    2
    16    68    59   am
    17    68    74    1
    18    59    58    1
    19    73    74    1
    20    61    58    1
    21    61    62    1
    22    58    57    1
    23    62    63    1
    24    84    85    1
    25    90    89    1
    26    89    88    1
    27    89    91    1
    28    27    26    2
    29    63    64    1
    30    88    85    1
    31    85    86    1
    32    19    18    2
    33    86    87    2
    34    26    25    1
    35    26    31   am
    36    64    65    2
    37    25    28    1
    38    25    24    1
    39    32    31    1
    40    32    33    1
    41    34    33    2
    42    18    24   am
    43    18    17    1
    44    28    30    1
    45    28    29    1
    46    65    66    1
    47    65    67    1
    48    49    48    2
    49     8     7    2
    50    17    20    1
    51    17    16    1
    52    23    21    1
    53    20    21    1
    54    50    51    1
    55    50    47    1
    56    48    47    1
    57     7    16   am
    58     7     6    1
    59    21    22    1
    60    47    46    1
    61     4     3    2
    62    10    11    1
    63    10     9    1
    64     6     9    1
    65     6     5    1
    66    52    53    1
    67    56    53    1
    68     3     5   am
    69     3     2    1
    70    44    45    1
    71    44    43    1
    72    38    37    2
    73    11    12    1
    74    53    54    1
    75    45    39    1
    76    43    40    1
    77     2     1    1
    78    37    36    1
    79    12    13    2
    80    36    35    1
    81    14    13    1
    82    39    40    1
    83    54    55    2
    84    13    15    1
    85    40    41    1
    86    42    41    2
