@<TRIPOS>MOLECULE
tmp/4rjlA00.pdb
 127 119 0 0 0
SMALL
GASTEIGER

@<TRIPOS>ATOM
      1  N        -11.0170  -65.8620   82.7210 N.3    42  ARG42      -0.1245
      2  CA        -9.8040  -65.1170   83.0410 C.3    42  ARG42       0.1563
      3  C         -9.9020  -63.6460   82.6470 C.2    42  ARG42       0.2260
      4  O         -9.0620  -62.8340   83.0370 O.2    42  ARG42      -0.2867
      5  CB        -8.5930  -65.7690   82.3740 C.3    42  ARG42       0.0307
      6  CG        -8.4080  -67.2310   82.7440 C.3    42  ARG42       0.0489
      7  CD        -7.1770  -67.8160   82.0820 C.3    42  ARG42       0.2205
      8  NE        -5.9580  -67.1390   82.5110 N.pl3  42  ARG42      -0.0865
      9  CZ        -4.7420  -67.4390   82.0670 C.cat  42  ARG42       0.5346
     10  NH1       -4.5810  -68.4080   81.1770 N.pl3  42  ARG42       0.1354
     11  NH2       -3.6880  -66.7700   82.5140 N.pl3  42  ARG42       0.1354
     12  N         -9.7390  -62.2520   79.4910 N.3    44  MET44      -0.1245
     13  CA        -8.6880  -61.9080   78.5440 C.3    44  MET44       0.1570
     14  C         -8.9370  -62.5760   77.2000 C.2    44  MET44       0.2261
     15  O         -9.6160  -63.5980   77.1180 O.2    44  MET44      -0.2867
     16  CB        -7.3250  -62.3510   79.0790 C.3    44  MET44       0.0387
     17  CG        -7.1390  -63.8590   79.0990 C.3    44  MET44       0.0595
     18  SD        -5.5530  -64.3750   79.7800 S.3    44  MET44      -0.1393
     19  CE        -4.4160  -63.5670   78.6560 C.3    44  MET44       0.0692
     20  N         -7.5350  -64.8290   74.2860 N.3    46  ILE46      -0.1245
     21  CA        -6.5030  -65.8510   74.1570 C.3    46  ILE46       0.1561
     22  C         -6.3350  -66.2380   72.6950 C.2    46  ILE46       0.2260
     23  O         -5.2460  -66.1270   72.1340 O.2    46  ILE46      -0.2867
     24  CB        -6.8300  -67.0920   75.0020 C.3    46  ILE46       0.0252
     25  CG1       -6.9350  -66.7030   76.4800 C.3    46  ILE46       0.0019
     26  CG2       -5.7680  -68.1660   74.8020 C.3    46  ILE46       0.0019
     27  CD1       -7.3330  -67.8430   77.3940 C.3    46  ILE46       0.0001
     28  N         -1.5840  -60.0050   75.7420 N.3    96  HIS96      -0.1241
     29  CA        -0.6290  -60.5890   76.6810 C.3    96  HIS96       0.1621
     30  C          0.6780  -60.9430   75.9770 C.2    96  HIS96       0.2264
     31  O          0.6650  -61.4500   74.8560 O.2    96  HIS96      -0.2867
     32  CB        -1.2140  -61.8270   77.3570 C.3    96  HIS96       0.0745
     33  CG        -0.5570  -62.1670   78.6600 C.ar   96  HIS96       0.0817
     34  ND1        0.7450  -62.6060   78.7440 N.ar   96  HIS96      -0.2268
     35  CD2       -1.0250  -62.1220   79.9290 C.ar   96  HIS96       0.1154
     36  CE1        1.0530  -62.8230   80.0120 C.ar   96  HIS96       0.1986
     37  NE2       -0.0050  -62.5370   80.7510 N.ar   96  HIS96      -0.2212
     38  N          2.7810  -63.2790   76.4380 N.3    98  VAL98      -0.1231
     39  CA         2.9760  -64.7140   76.2530 C.3    98  VAL98       0.1692
     40  C          2.2320  -65.1610   74.9930 C.2    98  VAL98       0.2591
     41  O          2.4800  -66.2510   74.4780 O.2    98  VAL98      -0.2718
     42  CB         2.4950  -65.5350   77.4750 C.3    98  VAL98       0.0266
     43  CG1        0.9800  -65.6310   77.4940 C.3    98  VAL98       0.0020
     44  CG2        3.1150  -66.9260   77.4720 C.3    98  VAL98       0.0020
     45  N          1.3400  -64.3110   74.4860 N.am   99  LEU99      -0.1980
     46  CA         0.5290  -64.6550   73.3230 C.3    99  LEU99       0.1596
     47  C          0.9590  -63.8960   72.0670 C.2    99  LEU99       0.2287
     48  O          0.1990  -63.8230   71.0900 O.2    99  LEU99      -0.2864
     49  CB        -0.9530  -64.4030   73.6240 C.3    99  LEU99       0.0297
     50  CG        -1.5370  -65.2400   74.7680 C.3    99  LEU99       0.0022
     51  CD1       -2.9810  -64.8590   75.0510 C.3    99  LEU99       0.0001
     52  CD2       -1.4290  -66.7270   74.4540 C.3    99  LEU99       0.0001
     53  N          2.8500  -64.6760   69.6110 N.3   101  ALA101     -0.1231
     54  CA         2.7340  -65.5120   68.4250 C.3   101  ALA101      0.1694
     55  C          1.3520  -65.5480   67.8090 C.2   101  ALA101      0.2592
     56  O          1.1900  -65.6650   66.5860 O.2   101  ALA101     -0.2718
     57  CB         3.1070  -66.9640   68.7730 C.3   101  ALA101      0.0304
     58  N          0.3440  -65.3890   68.6640 N.am  102  THR102     -0.1953
     59  CA        -1.0550  -65.3780   68.1990 C.3   102  THR102      0.1897
     60  C         -1.3800  -64.0580   67.5370 C.2   102  THR102      0.2313
     61  O         -2.2150  -64.0040   66.6220 O.2   102  THR102     -0.2863
     62  CB        -2.0440  -65.5670   69.3480 C.3   102  THR102      0.1794
     63  OG1       -1.8740  -66.8690   69.9190 O.3   102  THR102     -0.2208
     64  CG2       -3.4750  -65.4320   68.8390 C.3   102  THR102      0.0378
     65  N         -5.2090  -75.2640   63.0170 N.3   311  LEU311     -0.1245
     66  CA        -4.5910  -73.9420   63.1200 C.3   311  LEU311      0.1561
     67  C         -3.1900  -73.9430   62.5140 C.2   311  LEU311      0.2260
     68  O         -2.3750  -74.8140   62.8170 O.2   311  LEU311     -0.2867
     69  CB        -4.5280  -73.4810   64.5810 C.3   311  LEU311      0.0270
     70  CG        -3.5490  -72.3440   64.9030 C.3   311  LEU311      0.0019
     71  CD1       -4.0080  -71.0230   64.3040 C.3   311  LEU311      0.0001
     72  CD2       -3.3460  -72.2130   66.4080 C.3   311  LEU311      0.0001
     73  N         11.7270  -69.5760   66.6750 N.3   357  MET357     -0.1245
     74  CA        10.3100  -69.6980   66.3670 C.3   357  MET357      0.1570
     75  C         10.0230  -68.9060   65.1040 C.2   357  MET357      0.2261
     76  O         10.3960  -67.7440   64.9910 O.2   357  MET357     -0.2867
     77  CB         9.4610  -69.1800   67.5290 C.3   357  MET357      0.0387
     78  CG         8.0090  -68.9000   67.1700 C.3   357  MET357      0.0595
     79  SD         7.0750  -68.2670   68.5830 S.3   357  MET357     -0.1393
     80  CE         6.9370  -69.7420   69.5800 C.3   357  MET357      0.0692
     81  N          2.8850  -71.2610   63.3140 N.3   364  THR364     -0.1203
     82  CA         3.9630  -70.9820   64.2540 C.3   364  THR364      0.1994
     83  C          4.7420  -72.2750   64.4420 C.2   364  THR364      0.2619
     84  O          4.1780  -73.2840   64.8690 O.2   364  THR364     -0.2717
     85  CB         3.4050  -70.5310   65.6120 C.3   364  THR364      0.1784
     86  OG1        2.4360  -69.4930   65.4110 O.3   364  THR364     -0.2211
     87  CG2        4.5230  -70.0170   66.5090 C.3   364  THR364      0.0376
     88  N          6.0300  -72.2570   64.1140 N.am  365  THR365     -0.1938
     89  CA         6.8080  -73.4920   64.1100 C.3   365  THR365      0.2028
     90  C          8.2080  -73.3010   64.6720 C.2   365  THR365      0.2642
     91  O          8.8790  -72.3310   64.3470 O.2   365  THR365     -0.2714
     92  CB         6.9370  -74.0450   62.6770 C.3   365  THR365      0.1808
     93  OG1        5.6730  -73.9480   62.0110 O.3   365  THR365     -0.2208
     94  CG2        7.3960  -75.4990   62.6970 C.3   365  THR365      0.0379
     95  N          8.6540  -74.2350   65.5050 N.am  366  LEU366     -0.1977
     96  CA        10.0220  -74.1930   66.0060 C.3   366  LEU366      0.1596
     97  C         10.9630  -74.8760   65.0260 C.2   366  LEU366      0.2287
     98  O         10.5840  -75.8350   64.3540 O.2   366  LEU366     -0.2864
     99  CB        10.1250  -74.8670   67.3700 C.3   366  LEU366      0.0297
    100  CG         9.3090  -74.2360   68.4970 C.3   366  LEU366      0.0022
    101  CD1        9.6760  -74.8760   69.8240 C.3   366  LEU366      0.0001
    102  CD2        9.5210  -72.7300   68.5380 C.3   366  LEU366      0.0001
    103  N          8.1670  -79.2840   62.4340 N.3   383  ARG383     -0.1245
    104  CA         7.0080  -79.6900   61.6490 C.3   383  ARG383      0.1563
    105  C          7.0530  -78.9010   60.3440 C.2   383  ARG383      0.2260
    106  O          7.6040  -77.8020   60.3070 O.2   383  ARG383     -0.2867
    107  CB         5.7100  -79.3940   62.4100 C.3   383  ARG383      0.0307
    108  CG         5.5050  -80.2510   63.6520 C.3   383  ARG383      0.0489
    109  CD         4.3230  -79.7710   64.4860 C.3   383  ARG383      0.2205
    110  NE         4.5450  -78.4320   65.0250 N.pl3 383  ARG383     -0.0865
    111  CZ         4.0030  -77.3250   64.5270 C.cat 383  ARG383      0.5346
    112  NH1        3.1940  -77.3940   63.4780 N.pl3 383  ARG383      0.1354
    113  NH2        4.2680  -76.1480   65.0800 N.pl3 383  ARG383      0.1354
    114  N          9.0210  -66.1080   74.5900 N.3   404  TRP404     -0.1241
    115  CA         9.2350  -65.9560   73.1530 C.3   404  TRP404      0.1605
    116  C          9.0470  -64.5110   72.7090 C.2   404  TRP404      0.2264
    117  O          7.9460  -63.9660   72.7760 O.2   404  TRP404     -0.2867
    118  CB         8.3200  -66.8910   72.3590 C.3   404  TRP404      0.0550
    119  CG         8.7070  -68.3310   72.4980 C.ar  404  TRP404      0.0003
    120  CD1        8.1300  -69.2600   73.3130 C.ar  404  TRP404      0.0946
    121  CD2        9.7730  -69.0040   71.8150 C.ar  404  TRP404      0.0152
    122  NE1        8.7630  -70.4710   73.1740 N.ar  404  TRP404     -0.2442
    123  CE2        9.7750  -70.3400   72.2600 C.ar  404  TRP404      0.0810
    124  CE3       10.7190  -68.6060   70.8660 C.ar  404  TRP404      0.0012
    125  CZ2       10.6900  -71.2820   71.7900 C.ar  404  TRP404      0.0191
    126  CZ3       11.6270  -69.5430   70.4020 C.ar  404  TRP404      0.0001
    127  CH2       11.6060  -70.8640   70.8650 C.ar  404  TRP404      0.0015
@<TRIPOS>BOND
     1   106   105    2
     2   105   104    1
     3   104   107    1
     4   104   103    1
     5    93    92    1
     6   107   108    1
     7    67    68    2
     8    67    66    1
     9    92    94    1
    10    92    89    1
    11    65    66    1
    12    66    69    1
    13    81    82    1
    14   112   111    1
    15   108   109    1
    16    89    88    1
    17    89    90    1
    18    88    83   am
    19    82    83    1
    20    82    85    1
    21    71    70    1
    22    91    90    2
    23    98    97    2
    24    83    84    2
    25   109   110    1
    26   111   110    2
    27   111   113    1
    28    69    70    1
    29    90    95   am
    30    70    72    1
    31    76    75    2
    32    97    96    1
    33    75    74    1
    34    86    85    1
    35    95    96    1
    36    85    87    1
    37    96    99    1
    38    74    73    1
    39    74    77    1
    40    56    55    2
    41    61    60    2
    42    78    77    1
    43    78    79    1
    44    99   100    1
    45    60    59    1
    46    55    54    1
    47    55    58   am
    48    59    58    1
    49    59    62    1
    50    54    57    1
    51    54    53    1
    52   100   102    1
    53   100   101    1
    54    79    80    1
    55    64    62    1
    56    62    63    1
    57   126   127   ar
    58   126   124   ar
    59   127   125   ar
    60   124   121   ar
    61    48    47    2
    62   125   123   ar
    63   121   123   ar
    64   121   119   ar
    65    47    46    1
    66    23    22    2
    67   123   122   ar
    68   118   119    1
    69   118   115    1
    70   119   120   ar
    71    22    21    1
    72   116   117    2
    73   116   115    1
    74   115   114    1
    75   122   120   ar
    76    46    49    1
    77    46    45    1
    78    49    50    1
    79    21    20    1
    80    21    24    1
    81    52    50    1
    82    41    40    2
    83    45    40   am
    84    50    51    1
    85    26    24    1
    86    31    30    2
    87    40    39    1
    88    24    25    1
    89    28    29    1
    90    30    29    1
    91    39    38    1
    92    39    42    1
    93    25    27    1
    94    29    32    1
    95    15    14    2
    96    14    13    1
    97    32    33    1
    98    44    42    1
    99    42    43    1
   100    13    16    1
   101    13    12    1
   102    19    18    1
   103    33    34   ar
   104    33    35   ar
   105    34    36   ar
   106    16    17    1
   107    17    18    1
   108    35    37   ar
   109    36    37   ar
   110    10     9    1
   111     9     8    2
   112     9    11    1
   113     7     8    1
   114     7     6    1
   115     5     6    1
   116     5     2    1
   117     3     4    2
   118     3     2    1
   119     1     2    1
