@<TRIPOS>MOLECULE
tmp/4rjwA02.pdb
 89 88 0 0 0
SMALL
GASTEIGER

@<TRIPOS>ATOM
      1  N         14.3220    0.6210    5.7110 N.3   212  LEU212     -0.1231
      2  CA        13.8190   -0.3410    6.6840 C.3   212  LEU212      0.1693
      3  C         15.0520   -0.8850    7.3760 C.2   212  LEU212      0.2592
      4  O         15.8840   -1.5330    6.7520 O.2   212  LEU212     -0.2718
      5  CB        13.0160   -1.4650    6.0360 C.3   212  LEU212      0.0284
      6  CG        12.4260   -2.4350    7.0620 C.3   212  LEU212      0.0019
      7  CD1       11.5150   -1.6930    8.0330 C.3   212  LEU212      0.0001
      8  CD2       11.6770   -3.5840    6.4050 C.3   212  LEU212      0.0001
      9  N         15.1610   -0.6090    8.6680 N.am  213  HIS213     -0.1962
     10  CA        16.4250   -0.7010    9.3810 C.3   213  HIS213      0.1787
     11  C         16.1590   -1.2790   10.7560 C.2   213  HIS213      0.2620
     12  O         15.3420   -0.7510   11.5060 O.2   213  HIS213     -0.2715
     13  CB        16.9980    0.7310    9.4760 C.3   213  HIS213      0.0785
     14  CG        18.1420    0.9200   10.4310 C.ar  213  HIS213      0.0821
     15  ND1       19.3110    1.5580   10.0610 N.ar  213  HIS213     -0.2267
     16  CD2       18.2710    0.6620   11.7570 C.ar  213  HIS213      0.1154
     17  CE1       20.1230    1.6370   11.0980 C.ar  213  HIS213      0.1986
     18  NE2       19.5150    1.0990   12.1430 N.ar  213  HIS213     -0.2212
     19  N         16.8290   -2.3770   11.0860 N.am  214  VAL214     -0.1977
     20  CA        16.8080   -2.8890   12.4480 C.3   214  VAL214      0.1596
     21  C         18.2300   -3.2330   12.8710 C.2   214  VAL214      0.2287
     22  O         18.9910   -3.8240   12.1040 O.2   214  VAL214     -0.2864
     23  CB        15.8720   -4.1090   12.5920 C.3   214  VAL214      0.0276
     24  CG1       16.2950   -5.2370   11.6620 C.3   214  VAL214      0.0022
     25  CG2       15.8420   -4.5810   14.0420 C.3   214  VAL214      0.0022
     26  N         15.6750    0.8480   15.4660 N.3   279  GLY279     -0.1210
     27  CA        14.7250    0.6100   14.3960 C.3   279  GLY279      0.1956
     28  C         14.4790    1.8850   13.6150 C.2   279  GLY279      0.2612
     29  O         14.4120    2.9650   14.1900 O.2   279  GLY279     -0.2717
     30  N         14.3460    1.7750   12.3040 N.am  280  ALA280     -0.1965
     31  CA        13.9930    2.9470   11.5150 C.3   280  ALA280      0.1728
     32  C         13.2210    2.5530   10.2690 C.2   280  ALA280      0.2616
     33  O         13.4400    1.4860    9.6930 O.2   280  ALA280     -0.2715
     34  CB        15.2340    3.7650   11.1410 C.3   280  ALA280      0.0334
     35  N         12.3080    3.4270    9.8680 N.am  281  TRP281     -0.1974
     36  CA        11.4960    3.2240    8.6830 C.3   281  TRP281      0.1640
     37  C         11.3200    4.5880    8.0400 C.2   281  TRP281      0.2290
     38  O         11.0110    5.5700    8.7200 O.2   281  TRP281     -0.2864
     39  CB        10.1390    2.6440    9.0830 C.3   281  TRP281      0.0576
     40  CG         9.2290    2.3030    7.9500 C.ar  281  TRP281      0.0006
     41  CD1        9.2310    1.1520    7.2190 C.ar  281  TRP281      0.0946
     42  CD2        8.1570    3.1040    7.4330 C.ar  281  TRP281      0.0152
     43  NE1        8.2380    1.1910    6.2720 N.ar  281  TRP281     -0.2442
     44  CE2        7.5680    2.3740    6.3830 C.ar  281  TRP281      0.0810
     45  CE3        7.6520    4.3630    7.7510 C.ar  281  TRP281      0.0012
     46  CZ2        6.4880    2.8690    5.6510 C.ar  281  TRP281      0.0191
     47  CZ3        6.5800    4.8470    7.0190 C.ar  281  TRP281      0.0001
     48  CH2        6.0140    4.1030    5.9840 C.ar  281  TRP281      0.0015
     49  N         10.3430    7.3860   10.7750 N.3   288  ALA288     -0.1231
     50  CA        10.1630    7.0290   12.1780 C.3   288  ALA288      0.1694
     51  C         11.4050    6.2730   12.5960 C.2   288  ALA288      0.2592
     52  O         11.8710    5.3890   11.8810 O.2   288  ALA288     -0.2718
     53  CB         8.9400    6.1430   12.3280 C.3   288  ALA288      0.0304
     54  N         11.9500    6.6100   13.7540 N.am  289  GLN289     -0.1966
     55  CA        13.0890    5.8640   14.2720 C.3   289  GLN289      0.1733
     56  C         13.0070    5.7700   15.7770 C.2   289  GLN289      0.2616
     57  O         12.4150    6.6260   16.4300 O.2   289  GLN289     -0.2715
     58  CB        14.4240    6.4680   13.8190 C.3   289  GLN289      0.0408
     59  CG        14.7210    7.8600   14.3510 C.3   289  GLN289      0.0908
     60  CD        15.9910    8.4410   13.7530 C.2   289  GLN289      0.2608
     61  OE1       15.9920    8.9210   12.6170 O.2   289  GLN289     -0.2717
     62  NE2       17.0790    8.3820   14.5020 N.am  289  GLN289     -0.0878
     63  N         13.6080    4.7270   16.3320 N.am  290  ALA290     -0.1977
     64  CA        13.5610    4.5340   17.7750 C.3   290  ALA290      0.1597
     65  C         14.7360    3.6870   18.2320 C.2   290  ALA290      0.2287
     66  O         15.2560    2.8680   17.4650 O.2   290  ALA290     -0.2864
     67  CB        12.2450    3.8760   18.1720 C.3   290  ALA290      0.0319
     68  N         11.7360    7.6600   20.7540 N.3   314  ALA314     -0.1231
     69  CA        11.1130    7.4520   19.4600 C.3   314  ALA314      0.1694
     70  C         10.9470    8.8050   18.8120 C.2   314  ALA314      0.2592
     71  O         10.5720    9.7750   19.4740 O.2   314  ALA314     -0.2718
     72  CB         9.7560    6.7430   19.5960 C.3   314  ALA314      0.0304
     73  N         11.2220    8.8680   17.5100 N.am  315  GLN315     -0.1966
     74  CA        11.1260   10.1220   16.7720 C.3   315  GLN315      0.1733
     75  C         10.3340    9.9910   15.4890 C.2   315  GLN315      0.2616
     76  O         10.5700    9.0740   14.6900 O.2   315  GLN315     -0.2715
     77  CB        12.5160   10.6340   16.3900 C.3   315  GLN315      0.0408
     78  CG        12.4720   11.9100   15.5420 C.3   315  GLN315      0.0908
     79  CD        13.8520   12.3770   15.1500 C.2   315  GLN315      0.2608
     80  OE1       14.5560   12.9930   15.9510 O.2   315  GLN315     -0.2717
     81  NE2       14.2540   12.0730   13.9100 N.am  315  GLN315     -0.0878
     82  N          9.4230   10.9330   15.2780 N.am  316  LEU316     -0.1977
     83  CA         8.7730   11.0890   13.9810 C.3   316  LEU316      0.1596
     84  C          9.3000   12.3540   13.3330 C.2   316  LEU316      0.2287
     85  O          9.4590   13.3750   13.9970 O.2   316  LEU316     -0.2864
     86  CB         7.2580   11.2150   14.1500 C.3   316  LEU316      0.0297
     87  CG         6.5760   10.0150   14.8030 C.3   316  LEU316      0.0022
     88  CD1        5.1090   10.3260   15.0710 C.3   316  LEU316      0.0001
     89  CD2        6.7110    8.7960   13.9050 C.3   316  LEU316      0.0001
@<TRIPOS>BOND
     1    46    48   ar
     2    46    44   ar
     3     1     2    1
     4    48    47   ar
     5     5     2    1
     6     5     6    1
     7    43    44   ar
     8    43    41   ar
     9    44    42   ar
    10     8     6    1
    11     2     3    1
    12     4     3    2
    13    47    45   ar
    14     6     7    1
    15    41    40   ar
    16     3     9   am
    17    42    45   ar
    18    42    40   ar
    19    40    39    1
    20    37    36    1
    21    37    38    2
    22     9    10    1
    23    36    39    1
    24    36    35    1
    25    10    13    1
    26    10    11    1
    27    13    14    1
    28    33    32    2
    29    35    32   am
    30    15    14   ar
    31    15    17   ar
    32    32    31    1
    33    14    16   ar
    34    11    19   am
    35    11    12    2
    36    49    50    1
    37    19    20    1
    38    17    18   ar
    39    34    31    1
    40    31    30    1
    41    24    23    1
    42    16    18   ar
    43    52    51    2
    44    22    21    2
    45    50    53    1
    46    50    51    1
    47    30    28   am
    48    20    23    1
    49    20    21    1
    50    23    25    1
    51    51    54   am
    52    61    60    2
    53    84    83    1
    54    84    85    2
    55    28    29    2
    56    28    27    1
    57    60    59    1
    58    60    62   am
    59    54    55    1
    60    58    55    1
    61    58    59    1
    62    89    87    1
    63    81    79   am
    64    83    86    1
    65    83    82    1
    66    86    87    1
    67    55    56    1
    68    27    26    1
    69    76    75    2
    70    87    88    1
    71    79    78    1
    72    79    80    2
    73    82    75   am
    74    75    74    1
    75    78    77    1
    76    56    63   am
    77    56    57    2
    78    63    64    1
    79    77    74    1
    80    74    73    1
    81    66    65    2
    82    73    70   am
    83    64    67    1
    84    64    65    1
    85    70    69    1
    86    70    71    2
    87    69    72    1
    88    69    68    1
