@<TRIPOS>MOLECULE
tmp/4rjwA00.pdb
 105 104 0 0 0
SMALL
GASTEIGER

@<TRIPOS>ATOM
      1  N         25.6670   27.5450   16.2400 N.3    49  ALA49      -0.1231
      2  CA        25.4560   28.6590   17.1580 C.3    49  ALA49       0.1694
      3  C         24.0970   28.5240   17.8260 C.2    49  ALA49       0.2592
      4  O         23.0690   28.5410   17.1430 O.2    49  ALA49      -0.2718
      5  CB        25.5250   29.9640   16.3830 C.3    49  ALA49       0.0304
      6  N         24.0960   28.3950   19.1540 N.am   50  ASP50      -0.1960
      7  CA        22.8680   28.1200   19.9050 C.3    50  ASP50       0.1840
      8  C         22.5140   29.2750   20.8450 C.2    50  ASP50       0.2622
      9  O         23.3900   29.8770   21.4780 O.2    50  ASP50      -0.2715
     10  CB        23.0240   26.8740   20.7910 C.3    50  ASP50       0.1450
     11  CG        23.0060   25.5690   20.0190 C.2    50  ASP50       0.3671
     12  OD1       23.1150   25.5860   18.7780 O.co2  50  ASP50      -0.2456
     13  OD2       22.9020   24.5110   20.6820 O.co2  50  ASP50      -0.2456
     14  N         21.2210   29.5640   20.9360 N.am   51  TYR51      -0.1974
     15  CA        20.7110   30.4260   21.9980 C.3    51  TYR51       0.1639
     16  C         19.4940   29.7510   22.6080 C.2    51  TYR51       0.2290
     17  O         18.6010   29.3090   21.8900 O.2    51  TYR51      -0.2864
     18  CB        20.3620   31.8500   21.5220 C.3    51  TYR51       0.0560
     19  CG        19.9100   32.6690   22.7030 C.ar   51  TYR51      -0.0198
     20  CD1       20.8420   33.1680   23.6050 C.ar   51  TYR51      -0.0009
     21  CD2       18.5570   32.8670   22.9690 C.ar   51  TYR51      -0.0009
     22  CE1       20.4460   33.8720   24.7320 C.ar   51  TYR51       0.0417
     23  CE2       18.1470   33.5680   24.1110 C.ar   51  TYR51       0.0417
     24  CZ        19.1000   34.0710   24.9730 C.ar   51  TYR51       0.1957
     25  OH        18.7190   34.7620   26.1100 O.3    51  TYR51      -0.2866
     26  N         11.7580   22.5140    4.6700 N.3   347  TRP347     -0.1241
     27  CA        11.1860   22.6810    6.0050 C.3   347  TRP347      0.1605
     28  C         10.7960   21.3310    6.5760 C.2   347  TRP347      0.2264
     29  O         10.0480   20.5710    5.9460 O.2   347  TRP347     -0.2867
     30  CB         9.9720   23.6110    5.9510 C.3   347  TRP347      0.0550
     31  CG        10.3610   25.0080    5.5920 C.ar  347  TRP347      0.0003
     32  CD1       10.6290   25.4940    4.3450 C.ar  347  TRP347      0.0946
     33  CD2       10.5630   26.0970    6.4980 C.ar  347  TRP347      0.0152
     34  NE1       10.9700   26.8220    4.4160 N.ar  347  TRP347     -0.2442
     35  CE2       10.9450   27.2160    5.7300 C.ar  347  TRP347      0.0810
     36  CE3       10.4550   26.2330    7.8860 C.ar  347  TRP347      0.0012
     37  CZ2       11.2130   28.4580    6.2980 C.ar  347  TRP347      0.0191
     38  CZ3       10.7260   27.4780    8.4530 C.ar  347  TRP347      0.0001
     39  CH2       11.1020   28.5650    7.6610 C.ar  347  TRP347      0.0015
     40  N         11.2890   22.5430   14.4800 N.3   384  VAL384     -0.1245
     41  CA        11.3370   22.7630   13.0440 C.3   384  VAL384      0.1561
     42  C         12.7780   22.9910   12.6080 C.2   384  VAL384      0.2260
     43  O         13.5230   23.7160   13.2780 O.2   384  VAL384     -0.2867
     44  CB        10.4920   23.9970   12.6430 C.3   384  VAL384      0.0252
     45  CG1       10.5510   24.2340   11.1290 C.3   384  VAL384      0.0019
     46  CG2        9.0450   23.8300   13.0920 C.3   384  VAL384      0.0019
     47  N         14.7990   24.4430    9.2750 N.3   386  TRP386     -0.1241
     48  CA        14.7650   25.1130    7.9850 C.3   386  TRP386      0.1605
     49  C         16.1230   24.9390    7.3360 C.2   386  TRP386      0.2264
     50  O         17.1100   25.5430    7.7660 O.2   386  TRP386     -0.2867
     51  CB        14.4430   26.5990    8.1770 C.3   386  TRP386      0.0550
     52  CG        14.4470   27.3940    6.9090 C.ar  386  TRP386      0.0003
     53  CD1       14.2120   26.9290    5.6410 C.ar  386  TRP386      0.0946
     54  CD2       14.6940   28.7970    6.7810 C.ar  386  TRP386      0.0152
     55  NE1       14.3030   27.9580    4.7350 N.ar  386  TRP386     -0.2442
     56  CE2       14.5940   29.1180    5.4090 C.ar  386  TRP386      0.0810
     57  CE3       14.9840   29.8180    7.6920 C.ar  386  TRP386      0.0012
     58  CZ2       14.7870   30.4110    4.9280 C.ar  386  TRP386      0.0191
     59  CZ3       15.1780   31.1010    7.2130 C.ar  386  TRP386      0.0001
     60  CH2       15.0670   31.3900    5.8410 C.ar  386  TRP386      0.0015
     61  N         18.7130   26.4240    9.9580 N.3   394  ILE394     -0.1231
     62  CA        18.2550   27.1740   11.1160 C.3   394  ILE394      0.1692
     63  C         17.1680   26.3620   11.7880 C.2   394  ILE394      0.2593
     64  O         16.2650   25.8460   11.1250 O.2   394  ILE394     -0.2718
     65  CB        17.7500   28.5570   10.7070 C.3   394  ILE394      0.0266
     66  CG1       18.8750   29.3160    9.9930 C.3   394  ILE394      0.0019
     67  CG2       17.2420   29.3210   11.9250 C.3   394  ILE394      0.0020
     68  CD1       18.4370   30.6270    9.3840 C.3   394  ILE394      0.0001
     69  N         17.2370   26.2480   13.1080 N.am  395  SER395     -0.1938
     70  CA        16.3310   25.3680   13.8410 C.3   395  SER395      0.2055
     71  C         15.7100   26.0720   15.0380 C.2   395  SER395      0.2642
     72  O         16.3200   26.9590   15.6210 O.2   395  SER395     -0.2714
     73  CB        17.0750   24.1250   14.3350 C.3   395  SER395      0.2130
     74  OG        17.7440   23.4510   13.2850 O.3   395  SER395     -0.2179
     75  N         14.5050   25.6520   15.4090 N.am  396  ALA396     -0.1977
     76  CA        13.9000   26.0980   16.6590 C.3   396  ALA396      0.1597
     77  C         13.1500   24.9180   17.2550 C.2   396  ALA396      0.2287
     78  O         12.4670   24.1840   16.5290 O.2   396  ALA396     -0.2864
     79  CB        12.9570   27.2650   16.4210 C.3   396  ALA396      0.0319
     80  N         17.2440   27.6980   19.8800 N.3   420  THR420     -0.1203
     81  CA        17.3760   28.0530   18.4760 C.3   420  THR420      0.1994
     82  C         18.8250   27.8500   18.0650 C.2   420  THR420      0.2618
     83  O         19.7370   28.1190   18.8630 O.2   420  THR420     -0.2717
     84  CB        17.0170   29.5210   18.2640 C.3   420  THR420      0.1784
     85  OG1       17.8860   30.3370   19.0580 O.3   420  THR420     -0.2211
     86  CG2       15.5980   29.7650   18.6980 C.3   420  THR420      0.0376
     87  N         19.0410   27.3650   16.8490 N.am  421  ARG421     -0.1965
     88  CA        20.3890   27.1570   16.3410 C.3   421  ARG421      0.1729
     89  C         20.5340   27.6690   14.9200 C.2   421  ARG421      0.2616
     90  O         19.6420   27.4950   14.0960 O.2   421  ARG421     -0.2715
     91  CB        20.7630   25.6680   16.3760 C.3   421  ARG421      0.0348
     92  CG        22.0820   25.3380   15.6550 C.3   421  ARG421      0.0492
     93  CD        22.4000   23.8500   15.7240 C.3   421  ARG421      0.2205
     94  NE        22.6420   23.4810   17.1170 N.pl3 421  ARG421     -0.0865
     95  CZ        22.5560   22.2500   17.6020 C.cat 421  ARG421      0.5346
     96  NH1       22.2660   21.2200   16.8180 N.pl3 421  ARG421      0.1354
     97  NH2       22.7790   22.0610   18.9010 N.pl3 421  ARG421      0.1354
     98  N         21.6670   28.3100   14.6540 N.am  422  LEU422     -0.1977
     99  CA        22.0820   28.6140   13.2920 C.3   422  LEU422      0.1596
    100  C         23.2860   27.7340   13.0170 C.2   422  LEU422      0.2287
    101  O         24.2970   27.8370   13.7300 O.2   422  LEU422     -0.2864
    102  CB        22.4700   30.0860   13.1870 C.3   422  LEU422      0.0297
    103  CG        23.1230   30.6020   11.9030 C.3   422  LEU422      0.0022
    104  CD1       22.1500   30.5020   10.7630 C.3   422  LEU422      0.0001
    105  CD2       23.5710   32.0440   12.0660 C.3   422  LEU422      0.0001
@<TRIPOS>BOND
     1    32    34   ar
     2    32    31   ar
     3    34    35   ar
     4    26    27    1
     5    55    56   ar
     6    55    53   ar
     7    58    56   ar
     8    58    60   ar
     9    56    54   ar
    10    31    30    1
    11    31    33   ar
    12    53    52   ar
    13    35    37   ar
    14    35    33   ar
    15    60    59   ar
    16    29    28    2
    17    30    27    1
    18    27    28    1
    19    37    39   ar
    20    33    36   ar
    21    54    52   ar
    22    54    57   ar
    23    52    51    1
    24    59    57   ar
    25    49    50    2
    26    49    48    1
    27    39    38   ar
    28    36    38   ar
    29    48    51    1
    30    48    47    1
    31    68    66    1
    32    61    62    1
    33    66    65    1
    34    65    62    1
    35    65    67    1
    36   104   103    1
    37    62    63    1
    38    64    63    2
    39    45    44    1
    40    63    69   am
    41   103   105    1
    42   103   102    1
    43    42    41    1
    44    42    43    2
    45    44    41    1
    46    44    46    1
    47   100    99    1
    48   100   101    2
    49    41    40    1
    50    69    70    1
    51   102    99    1
    52    74    73    1
    53    99    98    1
    54    70    73    1
    55    70    71    1
    56    90    89    2
    57    98    89   am
    58    89    88    1
    59    71    75   am
    60    71    72    2
    61    75    76    1
    62    92    93    1
    63    92    91    1
    64    93    94    1
    65     1     2    1
    66    88    91    1
    67    88    87    1
    68     5     2    1
    69    79    76    1
    70    78    77    2
    71    76    77    1
    72    96    95    1
    73    87    82   am
    74    94    95    2
    75     4     3    2
    76     2     3    1
    77    95    97    1
    78     3     6   am
    79    82    81    1
    80    82    83    2
    81    84    81    1
    82    84    86    1
    83    84    85    1
    84    81    80    1
    85    12    11   ar
    86     6     7    1
    87     7    10    1
    88     7     8    1
    89    11    13   ar
    90    11    10    1
    91     8    14   am
    92     8     9    2
    93    14    15    1
    94    18    15    1
    95    18    19    1
    96    17    16    2
    97    15    16    1
    98    19    21   ar
    99    19    20   ar
   100    21    23   ar
   101    20    22   ar
   102    23    24   ar
   103    22    24   ar
   104    24    25    1
