@<TRIPOS>MOLECULE
tmp/4rjwA01.pdb
 83 82 0 0 0
SMALL
GASTEIGER

@<TRIPOS>ATOM
      1  N         16.8290   -2.3770   11.0860 N.3   214  VAL214     -0.1245
      2  CA        16.8080   -2.8890   12.4480 C.3   214  VAL214      0.1561
      3  C         18.2300   -3.2330   12.8710 C.2   214  VAL214      0.2260
      4  O         18.9910   -3.8240   12.1040 O.2   214  VAL214     -0.2867
      5  CB        15.8720   -4.1090   12.5920 C.3   214  VAL214      0.0252
      6  CG1       16.2950   -5.2370   11.6620 C.3   214  VAL214      0.0019
      7  CG2       15.8420   -4.5810   14.0420 C.3   214  VAL214      0.0019
      8  N         19.0210   -1.6320   20.9910 N.3   277  LEU277     -0.1231
      9  CA        18.2910   -1.9440   19.7720 C.3   277  LEU277      0.1693
     10  C         18.0070   -0.6630   19.0010 C.2   277  LEU277      0.2592
     11  O         17.8410    0.4040   19.5930 O.2   277  LEU277     -0.2718
     12  CB        16.9750   -2.6360   20.1110 C.3   277  LEU277      0.0284
     13  CG        17.0920   -3.9950   20.7850 C.3   277  LEU277      0.0019
     14  CD1       15.7220   -4.4340   21.2880 C.3   277  LEU277      0.0001
     15  CD2       17.6580   -5.0020   19.8040 C.3   277  LEU277      0.0001
     16  N         17.9480   -0.7740   17.6730 N.am  278  GLU278     -0.1966
     17  CA        17.6340    0.3490   16.7830 C.3   278  GLU278      0.1733
     18  C         16.5730   -0.0710   15.7950 C.2   278  GLU278      0.2616
     19  O         16.6020   -1.1950   15.2850 O.2   278  GLU278     -0.2715
     20  CB        18.8330    0.7400   15.9140 C.3   278  GLU278      0.0429
     21  CG        20.1090    0.9300   16.6260 C.3   278  GLU278      0.1163
     22  CD        21.2770    1.1950   15.6820 C.2   278  GLU278      0.3649
     23  OE1       22.3780    1.3270   16.2240 O.co2 278  GLU278     -0.2457
     24  OE2       21.1190    1.2880   14.4320 O.co2 278  GLU278     -0.2457
     25  N         15.6750    0.8480   15.4660 N.am  279  GLY279     -0.1955
     26  CA        14.7250    0.6100   14.3960 C.3   279  GLY279      0.1869
     27  C         14.4790    1.8850   13.6150 C.2   279  GLY279      0.2309
     28  O         14.4120    2.9650   14.1900 O.2   279  GLY279     -0.2863
     29  N         13.6080    4.7270   16.3320 N.3   290  ALA290     -0.1231
     30  CA        13.5610    4.5340   17.7750 C.3   290  ALA290      0.1694
     31  C         14.7360    3.6870   18.2320 C.2   290  ALA290      0.2592
     32  O         15.2560    2.8680   17.4650 O.2   290  ALA290     -0.2718
     33  CB        12.2450    3.8760   18.1720 C.3   290  ALA290      0.0304
     34  N         15.1440    3.8680   19.4850 N.am  291  GLU291     -0.1966
     35  CA        16.2080    3.0710   20.0590 C.3   291  GLU291      0.1733
     36  C         15.8860    2.7700   21.5070 C.2   291  GLU291      0.2616
     37  O         15.2310    3.5660   22.1720 O.2   291  GLU291     -0.2715
     38  CB        17.5430    3.8120   19.9680 C.3   291  GLU291      0.0429
     39  CG        18.0240    3.9820   18.5240 C.3   291  GLU291      0.1163
     40  CD        19.3320    4.7480   18.4180 C.2   291  GLU291      0.3649
     41  OE1       20.3340    4.3100   19.0200 O.co2 291  GLU291     -0.2457
     42  OE2       19.3660    5.7770   17.7030 O.co2 291  GLU291     -0.2457
     43  N         16.3440    1.6160   21.9810 N.am  292  TYR292     -0.1974
     44  CA        16.2010    1.2240   23.3840 C.3   292  TYR292      0.1639
     45  C         17.5500    0.7110   23.8640 C.2   292  TYR292      0.2290
     46  O         18.2210   -0.0200   23.1410 O.2   292  TYR292     -0.2864
     47  CB        15.1580    0.1050   23.5160 C.3   292  TYR292      0.0560
     48  CG        15.0570   -0.4890   24.9080 C.ar  292  TYR292     -0.0198
     49  CD1       15.8700   -1.5510   25.2980 C.ar  292  TYR292     -0.0009
     50  CD2       14.1560    0.0170   25.8260 C.ar  292  TYR292     -0.0009
     51  CE1       15.7840   -2.0880   26.5790 C.ar  292  TYR292      0.0417
     52  CE2       14.0630   -0.5120   27.1050 C.ar  292  TYR292      0.0417
     53  CZ        14.8780   -1.5610   27.4710 C.ar  292  TYR292      0.1957
     54  OH        14.7860   -2.0850   28.7460 O.3   292  TYR292     -0.2866
     55  N         14.8720    4.8120   26.3080 N.3   312  TYR312     -0.1227
     56  CA        14.5160    4.7290   24.9070 C.3   312  TYR312      0.1736
     57  C         14.0770    6.0760   24.3810 C.2   312  TYR312      0.2595
     58  O         13.7950    7.0030   25.1460 O.2   312  TYR312     -0.2718
     59  CB        13.4390    3.6670   24.6690 C.3   312  TYR312      0.0548
     60  CG        12.0830    3.9530   25.2570 C.ar  312  TYR312     -0.0200
     61  CD1       11.1260    4.6580   24.5300 C.ar  312  TYR312     -0.0009
     62  CD2       11.7360    3.4750   26.5200 C.ar  312  TYR312     -0.0009
     63  CE1        9.8660    4.9020   25.0600 C.ar  312  TYR312      0.0417
     64  CE2       10.4730    3.7170   27.0550 C.ar  312  TYR312      0.0417
     65  CZ         9.5490    4.4350   26.3180 C.ar  312  TYR312      0.1957
     66  OH         8.2950    4.6820   26.8360 O.3   312  TYR312     -0.2866
     67  N         14.0380    6.1900   23.0620 N.am  313  TYR313     -0.1962
     68  CA        13.4190    7.3380   22.4330 C.3   313  TYR313      0.1771
     69  C         12.6970    6.8600   21.1930 C.2   313  TYR313      0.2619
     70  O         13.0000    5.7970   20.6470 O.2   313  TYR313     -0.2715
     71  CB        14.4330    8.4300   22.0440 C.3   313  TYR313      0.0574
     72  CG        15.1970    8.1340   20.7800 C.ar  313  TYR313     -0.0198
     73  CD1       14.6660    8.4650   19.5270 C.ar  313  TYR313     -0.0009
     74  CD2       16.4310    7.4930   20.8230 C.ar  313  TYR313     -0.0009
     75  CE1       15.3410    8.1760   18.3660 C.ar  313  TYR313      0.0417
     76  CE2       17.1310    7.2140   19.6560 C.ar  313  TYR313      0.0417
     77  CZ        16.5730    7.5580   18.4350 C.ar  313  TYR313      0.1957
     78  OH        17.2270    7.2650   17.2600 O.3   313  TYR313     -0.2866
     79  N         11.7360    7.6600   20.7540 N.am  314  ALA314     -0.1977
     80  CA        11.1130    7.4520   19.4600 C.3   314  ALA314      0.1597
     81  C         10.9470    8.8050   18.8120 C.2   314  ALA314      0.2287
     82  O         10.5720    9.7750   19.4740 O.2   314  ALA314     -0.2864
     83  CB         9.7560    6.7430   19.5960 C.3   314  ALA314      0.0319
@<TRIPOS>BOND
     1     1     2    1
     2     6     5    1
     3     4     3    2
     4     2     5    1
     5     2     3    1
     6     5     7    1
     7    27    28    2
     8    27    26    1
     9    26    25    1
    10    24    22   ar
    11    19    18    2
    12    25    18   am
    13    22    23   ar
    14    22    21    1
    15    18    17    1
    16    20    21    1
    17    20    17    1
    18    29    30    1
    19    17    16    1
    20    78    77    1
    21    32    31    2
    22    16    10   am
    23    42    40   ar
    24    30    33    1
    25    30    31    1
    26    31    34   am
    27    75    77   ar
    28    75    73   ar
    29    40    39    1
    30    40    41   ar
    31    77    76   ar
    32    39    38    1
    33    81    80    1
    34    81    82    2
    35    10    11    2
    36    10     9    1
    37    80    83    1
    38    80    79    1
    39    34    35    1
    40    73    72   ar
    41    76    74   ar
    42     9    12    1
    43     9     8    1
    44    15    13    1
    45    38    35    1
    46    35    36    1
    47    12    13    1
    48    70    69    2
    49    79    69   am
    50    72    74   ar
    51    72    71    1
    52    13    14    1
    53    69    68    1
    54    36    43   am
    55    36    37    2
    56    43    44    1
    57    71    68    1
    58    68    67    1
    59    67    57   am
    60    46    45    2
    61    44    47    1
    62    44    45    1
    63    47    48    1
    64    57    56    1
    65    57    58    2
    66    61    63   ar
    67    61    60   ar
    68    59    56    1
    69    59    60    1
    70    56    55    1
    71    48    49   ar
    72    48    50   ar
    73    63    65   ar
    74    60    62   ar
    75    49    51   ar
    76    50    52   ar
    77    65    66    1
    78    65    64   ar
    79    62    64   ar
    80    51    53   ar
    81    52    53   ar
    82    53    54    1
