@<TRIPOS>MOLECULE
tmp/4rjxA01.pdb
 89 88 0 0 0
SMALL
GASTEIGER

@<TRIPOS>ATOM
      1  N         -6.3350   37.4370    5.9300 N.3   211  LEU211     -0.1231
      2  CA        -6.9250   38.3310    6.9240 C.3   211  LEU211      0.1693
      3  C         -8.0420   37.5600    7.6140 C.2   211  LEU211      0.2592
      4  O         -9.0170   37.1650    6.9730 O.2   211  LEU211     -0.2718
      5  CB        -7.4560   39.6180    6.2880 C.3   211  LEU211      0.0284
      6  CG        -7.9890   40.6600    7.2750 C.3   211  LEU211      0.0019
      7  CD1       -6.8640   41.1380    8.1860 C.3   211  LEU211      0.0001
      8  CD2       -8.6350   41.8370    6.5650 C.3   211  LEU211      0.0001
      9  N         -7.8960   37.3620    8.9210 N.am  212  HIS212     -0.1962
     10  CA        -8.6110   36.3210    9.6470 C.3   212  HIS212      0.1787
     11  C         -8.9720   36.8390   11.0260 C.2   212  HIS212      0.2620
     12  O         -8.0960   37.2640   11.7640 O.2   212  HIS212     -0.2715
     13  CB        -7.7080   35.0630    9.7110 C.3   212  HIS212      0.0785
     14  CG        -8.1000   34.0190   10.7200 C.ar  212  HIS212      0.0821
     15  ND1       -8.1310   32.6780   10.4000 N.ar  212  HIS212     -0.2267
     16  CD2       -8.3570   34.0920   12.0520 C.ar  212  HIS212      0.1154
     17  CE1       -8.4460   31.9740   11.4760 C.ar  212  HIS212      0.1986
     18  NE2       -8.5890   32.8070   12.4910 N.ar  212  HIS212     -0.2212
     19  N        -10.2600   36.8380   11.3600 N.am  213  VAL213     -0.1977
     20  CA       -10.6950   37.1320   12.7230 C.3   213  VAL213      0.1596
     21  C        -11.7320   36.0900   13.1430 C.2   213  VAL213      0.2287
     22  O        -12.5990   35.7060   12.3550 O.2   213  VAL213     -0.2864
     23  CB       -11.2700   38.5750   12.8570 C.3   213  VAL213      0.0276
     24  CG1      -12.4190   38.8090   11.8810 C.3   213  VAL213      0.0022
     25  CG2      -11.7130   38.8600   14.2950 C.3   213  VAL213      0.0022
     26  N         -6.9480   36.1740   15.7620 N.3   278  GLY278     -0.1210
     27  CA        -6.6770   37.1060   14.6830 C.3   278  GLY278      0.1956
     28  C         -5.4230   36.7020   13.9400 C.2   278  GLY278      0.2612
     29  O         -4.4530   36.2380   14.5380 O.2   278  GLY278     -0.2717
     30  N         -5.4340   36.8510   12.6220 N.am  279  ALA279     -0.1965
     31  CA        -4.2540   36.4990   11.8470 C.3   279  ALA279      0.1728
     32  C         -4.1730   37.3470   10.5900 C.2   279  ALA279      0.2616
     33  O         -5.1900   37.7410   10.0240 O.2   279  ALA279     -0.2715
     34  CB        -4.2630   35.0270   11.4840 C.3   279  ALA279      0.0334
     35  N         -2.9430   37.6140   10.1700 N.am  280  TRP280     -0.1974
     36  CA        -2.6730   38.4240    8.9930 C.3   280  TRP280      0.1640
     37  C         -1.4130   37.8900    8.3340 C.2   280  TRP280      0.2290
     38  O         -0.4590   37.5090    9.0180 O.2   280  TRP280     -0.2864
     39  CB        -2.5230   39.8950    9.3970 C.3   280  TRP280      0.0576
     40  CG        -2.0140   40.8030    8.3400 C.ar  280  TRP280      0.0006
     41  CD1       -2.7580   41.5440    7.4730 C.ar  280  TRP280      0.0946
     42  CD2       -0.6430   41.1050    8.0570 C.ar  280  TRP280      0.0152
     43  NE1       -1.9360   42.2790    6.6530 N.ar  280  TRP280     -0.2442
     44  CE2       -0.6340   42.0280    6.9910 C.ar  280  TRP280      0.0810
     45  CE3        0.5740   40.6790    8.5920 C.ar  280  TRP280      0.0012
     46  CZ2        0.5450   42.5320    6.4530 C.ar  280  TRP280      0.0191
     47  CZ3        1.7450   41.1800    8.0560 C.ar  280  TRP280      0.0001
     48  CH2        1.7210   42.0980    6.9970 C.ar  280  TRP280      0.0015
     49  N          1.4750   37.4800   11.0990 N.3   287  ALA287     -0.1231
     50  CA         1.2370   37.8280   12.4950 C.3   287  ALA287      0.1694
     51  C         -0.0520   37.1460   12.9450 C.2   287  ALA287      0.2592
     52  O         -1.0510   37.1690   12.2240 O.2   287  ALA287     -0.2718
     53  CB         1.1310   39.3490   12.6680 C.3   287  ALA287      0.0304
     54  N         -0.0380   36.5270   14.1200 N.am  288  GLN288     -0.1966
     55  CA        -1.2590   35.9300   14.6510 C.3   288  GLN288      0.1733
     56  C         -1.3090   36.0660   16.1600 C.2   288  GLN288      0.2616
     57  O         -0.2730   36.1830   16.8190 O.2   288  GLN288     -0.2715
     58  CB        -1.3770   34.4540   14.2340 C.3   288  GLN288      0.0408
     59  CG        -0.2710   33.5140   14.7270 C.3   288  GLN288      0.0908
     60  CD        -0.4220   32.1120   14.1600 C.2   288  GLN288      0.2608
     61  OE1       -0.0060   31.8410   13.0270 O.2   288  GLN288     -0.2717
     62  NE2       -1.0410   31.2230   14.9230 N.am  288  GLN288     -0.0878
     63  N         -2.5180   36.0430   16.7090 N.am  289  ALA289     -0.1977
     64  CA        -2.6920   36.1900   18.1560 C.3   289  ALA289      0.1597
     65  C         -4.0130   35.5850   18.5960 C.2   289  ALA289      0.2287
     66  O         -4.9720   35.5500   17.8270 O.2   289  ALA289     -0.2864
     67  CB        -2.6220   37.6600   18.5410 C.3   289  ALA289      0.0319
     68  N          0.9320   36.2620   21.1470 N.3   313  ALA313     -0.1231
     69  CA         1.0710   36.9040   19.8450 C.3   313  ALA313      0.1694
     70  C          2.3400   36.3770   19.1980 C.2   313  ALA313      0.2592
     71  O          3.3590   36.2160   19.8710 O.2   313  ALA313     -0.2718
     72  CB         1.1140   38.4370   19.9850 C.3   313  ALA313      0.0304
     73  N          2.2820   36.1110   17.8980 N.am  314  GLN314     -0.1966
     74  CA         3.4190   35.5550   17.1740 C.3   314  GLN314      0.1733
     75  C          3.7090   36.3000   15.8900 C.2   314  GLN314      0.2616
     76  O          2.8020   36.5470   15.0940 O.2   314  GLN314     -0.2715
     77  CB         3.1780   34.0800   16.8290 C.3   314  GLN314      0.0408
     78  CG         4.2900   33.4580   15.9800 C.3   314  GLN314      0.0908
     79  CD         3.9870   32.0260   15.5850 C.2   314  GLN314      0.2608
     80  OE1        4.1150   31.1110   16.3930 O.2   314  GLN314     -0.2717
     81  NE2        3.5670   31.8280   14.3320 N.am  314  GLN314     -0.0878
     82  N          4.9820   36.6330   15.6880 N.am  315  LEU315     -0.1977
     83  CA         5.4760   37.0760   14.3860 C.3   315  LEU315      0.1596
     84  C          6.2920   35.9640   13.7580 C.2   315  LEU315      0.2287
     85  O          7.0310   35.2740   14.4510 O.2   315  LEU315     -0.2864
     86  CB         6.3410   38.3260   14.5210 C.3   315  LEU315      0.0297
     87  CG         5.6600   39.5280   15.1680 C.3   315  LEU315      0.0022
     88  CD1        6.6460   40.6790   15.2740 C.3   315  LEU315      0.0001
     89  CD2        4.4270   39.9290   14.3780 C.3   315  LEU315      0.0001
@<TRIPOS>BOND
     1     1     2    1
     2     5     2    1
     3     5     6    1
     4    46    44   ar
     5    46    48   ar
     6     8     6    1
     7    43    44   ar
     8    43    41   ar
     9     2     3    1
    10     4     3    2
    11    44    42   ar
    12    48    47   ar
    13     6     7    1
    14    41    40   ar
    15     3     9   am
    16    47    45   ar
    17    42    40   ar
    18    42    45   ar
    19    37    36    1
    20    37    38    2
    21    40    39    1
    22     9    10    1
    23    36    39    1
    24    36    35    1
    25    10    13    1
    26    10    11    1
    27    13    14    1
    28    33    32    2
    29    35    32   am
    30    15    14   ar
    31    15    17   ar
    32    32    31    1
    33    14    16   ar
    34    11    19   am
    35    11    12    2
    36    49    50    1
    37    19    20    1
    38    17    18   ar
    39    34    31    1
    40    31    30    1
    41    24    23    1
    42    16    18   ar
    43    52    51    2
    44    22    21    2
    45    50    53    1
    46    50    51    1
    47    30    28   am
    48    20    23    1
    49    20    21    1
    50    23    25    1
    51    51    54   am
    52    61    60    2
    53    84    83    1
    54    84    85    2
    55    28    29    2
    56    28    27    1
    57    54    55    1
    58    60    59    1
    59    60    62   am
    60    58    55    1
    61    58    59    1
    62    81    79   am
    63    89    87    1
    64    83    86    1
    65    83    82    1
    66    86    87    1
    67    55    56    1
    68    27    26    1
    69    76    75    2
    70    87    88    1
    71    79    78    1
    72    79    80    2
    73    82    75   am
    74    75    74    1
    75    78    77    1
    76    56    63   am
    77    56    57    2
    78    63    64    1
    79    77    74    1
    80    74    73    1
    81    66    65    2
    82    73    70   am
    83    64    67    1
    84    64    65    1
    85    70    69    1
    86    70    71    2
    87    69    72    1
    88    69    68    1
