@<TRIPOS>MOLECULE
tmp/4rk0D00.pdb
 107 100 0 0 0
SMALL
GASTEIGER

@<TRIPOS>ATOM
      1  N         21.3180   59.2990   40.4710 N.3    14  ASN14      -0.1240
      2  CA        21.1290   59.7180   39.0780 C.3    14  ASN14       0.1653
      3  C         19.6520   60.0750   38.9740 C.2    14  ASN14       0.2266
      4  O         18.8070   59.2550   39.2780 O.2    14  ASN14      -0.2867
      5  CB        21.4700   58.5580   38.1450 C.3    14  ASN14       0.1155
      6  CG        21.2850   58.8780   36.6720 C.2    14  ASN14       0.2627
      7  OD1       20.7320   59.9100   36.2700 O.2    14  ASN14      -0.2716
      8  ND2       21.7540   57.9690   35.8510 N.am   14  ASN14      -0.0877
      9  N         17.7800   60.1610   36.5510 N.3    16  PHE16      -0.1227
     10  CA        17.0790   59.1160   35.7760 C.3    16  PHE16       0.1736
     11  C         16.4020   58.0640   36.6600 C.2    16  PHE16       0.2595
     12  O         15.2090   57.7420   36.4560 O.2    16  PHE16      -0.2718
     13  CB        18.0030   58.4920   34.7850 C.3    16  PHE16       0.0547
     14  CG        17.3770   57.4150   33.9900 C.ar   16  PHE16      -0.0202
     15  CD1       16.6690   57.7080   32.8160 C.ar   16  PHE16      -0.0042
     16  CD2       17.5000   56.0850   34.3870 C.ar   16  PHE16      -0.0042
     17  CE1       16.1050   56.6750   32.0940 C.ar   16  PHE16      -0.0003
     18  CE2       16.9310   55.0600   33.6350 C.ar   16  PHE16      -0.0003
     19  CZ        16.2270   55.3630   32.5110 C.ar   16  PHE16      -0.0000
     20  N         17.1390   57.4950   37.6140 N.am   17  PHE17      -0.1976
     21  CA        16.5670   56.4190   38.4390 C.3    17  PHE17       0.1639
     22  C         15.5670   56.9000   39.4960 C.2    17  PHE17       0.2290
     23  O         14.6420   56.1830   39.8560 O.2    17  PHE17      -0.2864
     24  CB        17.6900   55.5620   39.0520 C.3    17  PHE17       0.0560
     25  CG        18.4640   54.7700   37.9930 C.ar   17  PHE17      -0.0200
     26  CD1       17.8320   53.7640   37.2660 C.ar   17  PHE17      -0.0042
     27  CD2       19.7970   55.0880   37.6760 C.ar   17  PHE17      -0.0042
     28  CE1       18.5210   53.0510   36.2730 C.ar   17  PHE17      -0.0003
     29  CE2       20.5010   54.3770   36.6920 C.ar   17  PHE17      -0.0003
     30  CZ        19.8430   53.3720   35.9810 C.ar   17  PHE17      -0.0000
     31  N         16.2090   48.2400   31.6090 N.3    89  ASP89      -0.1225
     32  CA        17.3640   49.1000   31.6540 C.3    89  ASP89       0.1805
     33  C         18.6750   48.3010   31.6170 C.2    89  ASP89       0.2597
     34  O         18.9090   47.5980   30.6590 O.2    89  ASP89      -0.2718
     35  CB        17.2320   50.0620   32.8330 C.3    89  ASP89       0.1424
     36  CG        18.0580   51.3120   32.6400 C.2    89  ASP89       0.3668
     37  OD1       17.7470   52.0860   31.6830 O.co2  89  ASP89      -0.2456
     38  OD2       19.0340   51.5090   33.3930 O.co2  89  ASP89      -0.2456
     39  N         19.5250   48.3970   32.6400 N.am   90  GLN90      -0.1979
     40  CA        20.8260   47.7820   32.6260 C.3    90  GLN90       0.1601
     41  C         20.7660   46.2800   32.7690 C.2    90  GLN90       0.2287
     42  O         21.7310   45.6080   32.4630 O.2    90  GLN90      -0.2864
     43  CB        21.7670   48.3870   33.6930 C.3    90  GLN90       0.0394
     44  CG        22.0950   49.8530   33.4320 C.3    90  GLN90       0.0908
     45  CD        23.0880   50.4260   34.3830 C.2    90  GLN90       0.2608
     46  OE1       23.7230   49.6950   35.1580 O.2    90  GLN90      -0.2717
     47  NE2       23.2280   51.7380   34.3420 N.am   90  GLN90      -0.0878
     48  N         21.9260   47.7290   27.1700 N.3   134  ASN134     -0.1225
     49  CA        21.1430   48.8710   26.7400 C.3   134  ASN134      0.1785
     50  C         22.0470   50.0320   26.3220 C.2   134  ASN134      0.2597
     51  O         21.8180   50.6810   25.2920 O.2   134  ASN134     -0.2718
     52  CB        20.1380   49.2380   27.8490 C.3   134  ASN134      0.1169
     53  CG        20.8230   49.7630   29.0940 C.2   134  ASN134      0.2627
     54  OD1       21.8150   49.2120   29.5410 O.2   134  ASN134     -0.2716
     55  ND2       20.2810   50.8240   29.6620 N.am  134  ASN134     -0.0877
     56  N         23.1200   50.2640   27.0610 N.am  135  ILE135     -0.1980
     57  CA        23.9810   51.3950   26.7870 C.3   135  ILE135      0.1595
     58  C         24.8440   51.1060   25.5410 C.2   135  ILE135      0.2287
     59  O         25.0250   51.9550   24.6990 O.2   135  ILE135     -0.2864
     60  CB        24.7960   51.7840   28.0440 C.3   135  ILE135      0.0276
     61  CG1       23.8390   52.3600   29.1020 C.3   135  ILE135      0.0022
     62  CG2       25.8190   52.8660   27.7690 C.3   135  ILE135      0.0022
     63  CD1       24.5430   52.7070   30.4070 C.3   135  ILE135      0.0001
     64  N         23.3260   52.0200   22.3200 N.3   138  ARG138     -0.1245
     65  CA        23.3430   53.3930   21.9060 C.3   138  ARG138      0.1563
     66  C         24.4990   53.6410   20.9800 C.2   138  ARG138      0.2260
     67  O         24.3740   54.3850   20.0160 O.2   138  ARG138     -0.2867
     68  CB        23.4070   54.3340   23.1050 C.3   138  ARG138      0.0307
     69  CG        22.2010   54.2080   24.0120 C.3   138  ARG138      0.0489
     70  CD        22.3230   55.0350   25.2970 C.3   138  ARG138      0.2205
     71  NE        21.3420   54.5240   26.2250 N.pl3 138  ARG138     -0.0865
     72  CZ        21.2430   54.8530   27.5170 C.cat 138  ARG138      0.5346
     73  NH1       22.0260   55.7960   28.0590 N.pl3 138  ARG138      0.1354
     74  NH2       20.2960   54.2870   28.2210 N.pl3 138  ARG138      0.1354
     75  N         30.5760   56.2330   34.2150 N.3   157  LEU157     -0.1245
     76  CA        29.2140   56.7150   33.9140 C.3   157  LEU157      0.1561
     77  C         28.7200   57.6810   35.0080 C.2   157  LEU157      0.2260
     78  O         27.9770   57.3020   35.8870 O.2   157  LEU157     -0.2867
     79  CB        28.2710   55.5030   33.8060 C.3   157  LEU157      0.0270
     80  CG        26.8530   55.7650   33.2790 C.3   157  LEU157      0.0019
     81  CD1       26.8650   56.3150   31.8640 C.3   157  LEU157      0.0001
     82  CD2       26.0230   54.4910   33.3430 C.3   157  LEU157      0.0001
     83  N         25.2290   59.4960   28.5510 N.3   181  ASN181     -0.1240
     84  CA        24.1320   59.9840   29.3810 C.3   181  ASN181      0.1653
     85  C         24.3200   61.4360   29.7800 C.2   181  ASN181      0.2266
     86  O         25.3930   61.9930   29.5730 O.2   181  ASN181     -0.2867
     87  CB        23.8160   59.0710   30.5850 C.3   181  ASN181      0.1155
     88  CG        24.7120   59.3060   31.8070 C.2   181  ASN181      0.2627
     89  OD1       25.7860   59.9260   31.7480 O.2   181  ASN181     -0.2716
     90  ND2       24.2620   58.7520   32.9390 N.am  181  ASN181     -0.0877
     91  N         19.0830   61.0880   27.9330 N.3   209  ASP209     -0.1239
     92  CA        18.0920   60.7930   28.9640 C.3   209  ASP209      0.1674
     93  C         16.9940   61.8780   28.9800 C.2   209  ASP209      0.2266
     94  O         15.8140   61.5690   29.1470 O.2   209  ASP209     -0.2867
     95  CB        18.6530   60.6980   30.4000 C.3   209  ASP209      0.1410
     96  CG        19.4120   59.4270   30.6800 C.2   209  ASP209      0.3668
     97  OD1       19.2550   58.3790   29.9820 O.co2 209  ASP209     -0.2456
     98  OD2       20.1760   59.4580   31.6640 O.co2 209  ASP209     -0.2456
     99  N         14.4870   59.7810   27.0650 N.3   226  GLN226     -0.1245
    100  CA        13.7910   58.5770   27.4500 C.3   226  GLN226      0.1566
    101  C         12.5360   58.9290   28.2070 C.2   226  GLN226      0.2260
    102  O         12.5760   59.8230   29.0650 O.2   226  GLN226     -0.2867
    103  CB        14.6430   57.7380   28.3580 C.3   226  GLN226      0.0367
    104  CG        15.8840   57.2230   27.7120 C.3   226  GLN226      0.0905
    105  CD        16.4690   56.1090   28.5280 C.2   226  GLN226      0.2608
    106  OE1       15.8600   55.0410   28.6510 O.2   226  GLN226     -0.2717
    107  NE2       17.6570   56.3450   29.0920 N.am  226  GLN226     -0.0878
@<TRIPOS>BOND
     1    67    66    2
     2    66    65    1
     3    65    64    1
     4    65    68    1
     5    68    69    1
     6    69    70    1
     7    59    58    2
     8    51    50    2
     9    70    71    1
    10    58    57    1
    11    71    72    2
    12    50    49    1
    13    50    56   am
    14    49    48    1
    15    49    52    1
    16    57    56    1
    17    57    60    1
    18    99   100    1
    19   100   101    1
    20   100   103    1
    21    72    73    1
    22    72    74    1
    23   104   103    1
    24   104   105    1
    25    62    60    1
    26    52    53    1
    27    91    92    1
    28    60    61    1
    29   101   102    2
    30   105   106    2
    31   105   107   am
    32    83    84    1
    33    92    93    1
    34    92    95    1
    35    93    94    2
    36    53    54    2
    37    53    55   am
    38    61    63    1
    39    84    85    1
    40    84    87    1
    41    86    85    2
    42    97    96   ar
    43    95    96    1
    44    87    88    1
    45    34    33    2
    46    96    98   ar
    47    31    32    1
    48    33    32    1
    49    33    39   am
    50    32    35    1
    51    37    36   ar
    52    89    88    2
    53    88    90   am
    54    81    80    1
    55    17    19   ar
    56    17    15   ar
    57    42    41    2
    58    19    18   ar
    59    40    39    1
    60    40    41    1
    61    40    43    1
    62    36    35    1
    63    36    38   ar
    64    15    14   ar
    65    80    82    1
    66    80    79    1
    67    44    43    1
    68    44    45    1
    69    18    16   ar
    70    79    76    1
    71    76    75    1
    72    76    77    1
    73    14    16   ar
    74    14    13    1
    75    47    45   am
    76    45    46    2
    77    13    10    1
    78    77    78    2
    79    10     9    1
    80    10    11    1
    81     8     6   am
    82    30    28   ar
    83    30    29   ar
    84     7     6    2
    85    28    26   ar
    86    12    11    2
    87    11    20   am
    88     6     5    1
    89    29    27   ar
    90    26    25   ar
    91    20    21    1
    92    27    25   ar
    93    25    24    1
    94     5     2    1
    95    21    24    1
    96    21    22    1
    97     3     2    1
    98     3     4    2
    99     2     1    1
   100    22    23    2
