@<TRIPOS>MOLECULE
tmp/4rk1D00.pdb
 118 111 0 0 0
SMALL
GASTEIGER

@<TRIPOS>ATOM
      1  N        -73.5420   62.0980  151.9000 N.3    12  ASN12      -0.1240
      2  CA       -74.0100   62.3140  150.5420 C.3    12  ASN12       0.1653
      3  C        -74.5940   63.7260  150.4370 C.2    12  ASN12       0.2266
      4  O        -75.4870   64.0890  151.2190 O.2    12  ASN12      -0.2867
      5  CB       -75.0550   61.2680  150.2270 C.3    12  ASN12       0.1155
      6  CG       -75.6050   61.3700  148.8310 C.2    12  ASN12       0.2627
      7  OD1      -75.4490   62.3720  148.1140 O.2    12  ASN12      -0.2716
      8  ND2      -76.2900   60.3210  148.4410 N.am   12  ASN12      -0.0877
      9  N        -76.7140   64.9360  148.6130 N.3    14  PHE14      -0.1227
     10  CA       -78.1620   64.9070  148.4650 C.3    14  PHE14       0.1736
     11  C        -78.8230   65.1520  149.8210 C.2    14  PHE14       0.2595
     12  O        -79.7250   65.9750  149.9240 O.2    14  PHE14      -0.2718
     13  CB       -78.6390   63.5730  147.8760 C.3    14  PHE14       0.0547
     14  CG       -80.1270   63.4330  147.8550 C.ar   14  PHE14      -0.0202
     15  CD1      -80.8670   63.8780  146.7670 C.ar   14  PHE14      -0.0042
     16  CD2      -80.8030   62.9030  148.9420 C.ar   14  PHE14      -0.0042
     17  CE1      -82.2480   63.7650  146.7570 C.ar   14  PHE14      -0.0003
     18  CE2      -82.1830   62.7980  148.9370 C.ar   14  PHE14      -0.0003
     19  CZ       -82.9050   63.2300  147.8420 C.ar   14  PHE14      -0.0000
     20  N        -78.3530   64.4680  150.8630 N.am   15  PHE15      -0.1976
     21  CA       -78.9800   64.5770  152.1820 C.3    15  PHE15       0.1639
     22  C        -78.6240   65.8420  152.9450 C.2    15  PHE15       0.2290
     23  O        -79.4630   66.3660  153.6800 O.2    15  PHE15      -0.2864
     24  CB       -78.7470   63.3180  153.0180 C.3    15  PHE15       0.0560
     25  CG       -79.4210   62.1070  152.4460 C.ar   15  PHE15      -0.0200
     26  CD1      -80.8000   62.0150  152.4380 C.ar   15  PHE15      -0.0042
     27  CD2      -78.6750   61.0770  151.8900 C.ar   15  PHE15      -0.0042
     28  CE1      -81.4340   60.9260  151.8780 C.ar   15  PHE15      -0.0003
     29  CE2      -79.2980   59.9840  151.3290 C.ar   15  PHE15      -0.0003
     30  CZ       -80.6780   59.9090  151.3130 C.ar   15  PHE15      -0.0000
     31  N        -88.3420   59.6390  150.4890 N.3    82  ASP82      -0.1225
     32  CA       -87.1070   59.0790  149.9780 C.3    82  ASP82       0.1805
     33  C        -87.0490   57.5610  150.2070 C.2    82  ASP82       0.2597
     34  O        -87.8610   56.8490  149.6330 O.2    82  ASP82      -0.2718
     35  CB       -85.8960   59.8400  150.5660 C.3    82  ASP82       0.1424
     36  CG       -84.6670   59.7060  149.6990 C.2    82  ASP82       0.3668
     37  OD1      -84.7490   60.0990  148.5210 O.co2  82  ASP82      -0.2456
     38  OD2      -83.6350   59.1890  150.1730 O.co2  82  ASP82      -0.2456
     39  N        -86.1340   57.0620  151.0340 N.am   83  GLN83      -0.1979
     40  CA       -85.9880   55.6100  151.2090 C.3    83  GLN83       0.1601
     41  C        -87.0280   54.9970  152.1830 C.2    83  GLN83       0.2287
     42  O        -87.1630   53.7800  152.2550 O.2    83  GLN83      -0.2864
     43  CB       -84.5570   55.2700  151.6730 C.3    83  GLN83       0.0394
     44  CG       -83.4780   55.6880  150.6790 C.3    83  GLN83       0.0908
     45  CD       -82.0600   55.2270  151.0290 C.2    83  GLN83       0.2608
     46  OE1      -81.8560   54.3540  151.8650 O.2    83  GLN83      -0.2717
     47  NE2      -81.0740   55.8080  150.3610 N.am   83  GLN83      -0.0878
     48  N        -87.2360   53.3330  146.4270 N.3   126  ASN126     -0.1225
     49  CA       -87.2120   54.4590  145.5010 C.3   126  ASN126      0.1785
     50  C        -86.1870   54.2340  144.3880 C.2   126  ASN126      0.2597
     51  O        -86.4480   54.5280  143.2150 O.2   126  ASN126     -0.2718
     52  CB       -86.9810   55.7890  146.2370 C.3   126  ASN126      0.1169
     53  CG       -85.7100   55.7970  147.0630 C.2   126  ASN126      0.2627
     54  OD1      -85.3560   54.8000  147.6810 O.2   126  ASN126     -0.2716
     55  ND2      -85.0190   56.9270  147.0790 N.am  126  ASN126     -0.0877
     56  N        -85.0350   53.6800  144.7510 N.am  127  VAL127     -0.1980
     57  CA       -83.9970   53.3760  143.7800 C.3   127  VAL127      0.1595
     58  C        -84.4510   52.2220  142.8900 C.2   127  VAL127      0.2287
     59  O        -84.2210   52.2330  141.6810 O.2   127  VAL127     -0.2864
     60  CB       -82.6530   53.0550  144.4710 C.3   127  VAL127      0.0276
     61  CG1      -81.6370   52.5270  143.4660 C.3   127  VAL127      0.0022
     62  CG2      -82.1100   54.2920  145.1620 C.3   127  VAL127      0.0022
     63  N        -86.5430   53.5230  140.1380 N.3   130  ARG130     -0.1245
     64  CA       -85.7330   54.0950  139.0590 C.3   130  ARG130      0.1563
     65  C        -85.3020   53.0120  138.0790 C.2   130  ARG130      0.2260
     66  O        -85.3190   53.2010  136.8590 O.2   130  ARG130     -0.2867
     67  CB       -84.4750   54.7790  139.6020 C.3   130  ARG130      0.0307
     68  CG       -84.7380   55.9940  140.4670 C.3   130  ARG130      0.0489
     69  CD       -83.4740   56.4800  141.1540 C.3   130  ARG130      0.2205
     70  NE       -83.7870   57.3000  142.3160 N.pl3 130  ARG130     -0.0865
     71  CZ       -82.8870   57.8040  143.1540 C.cat 130  ARG130      0.5346
     72  NH1      -81.5990   57.5730  142.9790 N.pl3 130  ARG130      0.1354
     73  NH2      -83.2870   58.5270  144.1920 N.pl3 130  ARG130      0.1354
     74  N        -73.1370   52.0270  147.8540 N.3   155  PHE155     -0.1241
     75  CA       -73.8310   53.2390  147.4050 C.3   155  PHE155      0.1605
     76  C        -72.9780   54.4660  147.7470 C.2   155  PHE155      0.2264
     77  O        -73.2560   55.1810  148.7000 O.2   155  PHE155     -0.2867
     78  CB       -75.2240   53.3060  148.0590 C.3   155  PHE155      0.0534
     79  CG       -76.2840   54.0330  147.2430 C.ar  155  PHE155     -0.0203
     80  CD1      -76.0670   54.4400  145.9270 C.ar  155  PHE155     -0.0042
     81  CD2      -77.5350   54.2680  147.8030 C.ar  155  PHE155     -0.0042
     82  CE1      -77.0640   55.0890  145.2070 C.ar  155  PHE155     -0.0003
     83  CE2      -78.5370   54.9110  147.0880 C.ar  155  PHE155     -0.0003
     84  CZ       -78.3020   55.3170  145.7840 C.ar  155  PHE155     -0.0000
     85  N        -76.9330   57.0020  141.4060 N.3   179  ASN179     -0.1240
     86  CA       -76.8090   58.3750  141.9080 C.3   179  ASN179      0.1653
     87  C        -75.5510   59.0430  141.4010 C.2   179  ASN179      0.2266
     88  O        -74.7100   58.4040  140.7650 O.2   179  ASN179     -0.2867
     89  CB       -76.9850   58.4820  143.4350 C.3   179  ASN179      0.1155
     90  CG       -75.7740   58.0330  144.2420 C.2   179  ASN179      0.2627
     91  OD1      -74.7960   57.4920  143.7270 O.2   179  ASN179     -0.2716
     92  ND2      -75.8690   58.2370  145.5500 N.am  179  ASN179     -0.0877
     93  N        -73.0280   60.2900  143.0300 N.3   181  GLU181     -0.1245
     94  CA       -71.8180   59.8630  143.7400 C.3   181  GLU181      0.1567
     95  C        -71.2090   58.6170  143.0650 C.2   181  GLU181      0.2260
     96  O        -70.0110   58.5540  142.8270 O.2   181  GLU181     -0.2867
     97  CB       -72.1350   59.5710  145.2090 C.3   181  GLU181      0.0388
     98  CG       -72.5060   60.8230  146.0040 C.3   181  GLU181      0.1160
     99  CD       -71.2940   61.6130  146.4730 C.2   181  GLU181      0.3649
    100  OE1      -70.5250   61.0910  147.3020 O.co2 181  GLU181     -0.2457
    101  OE2      -71.1200   62.7660  146.0300 O.co2 181  GLU181     -0.2457
    102  N        -79.6420   62.7130  140.5350 N.3   207  ASP207     -0.1239
    103  CA       -79.8900   63.6040  141.6930 C.3   207  ASP207      0.1674
    104  C        -79.7630   65.0530  141.2390 C.2   207  ASP207      0.2266
    105  O        -80.5770   65.8960  141.6180 O.2   207  ASP207     -0.2867
    106  CB       -78.9340   63.4250  142.8860 C.3   207  ASP207      0.1410
    107  CG       -79.2390   62.2040  143.7300 C.2   207  ASP207      0.3668
    108  OD1      -80.3230   61.5730  143.5680 O.co2 207  ASP207     -0.2456
    109  OD2      -78.3550   61.8770  144.5560 O.co2 207  ASP207     -0.2456
    110  N        -83.3920   65.6540  140.7720 N.3   223  GLN223     -0.1245
    111  CA       -84.4070   65.7380  141.8040 C.3   223  GLN223      0.1566
    112  C        -84.4180   67.1770  142.3010 C.2   223  GLN223      0.2260
    113  O        -83.3650   67.7890  142.3960 O.2   223  GLN223     -0.2867
    114  CB       -84.0680   64.8110  142.9720 C.3   223  GLN223      0.0367
    115  CG       -84.1510   63.3260  142.6690 C.3   223  GLN223      0.0905
    116  CD       -84.1870   62.4910  143.9360 C.2   223  GLN223      0.2608
    117  OE1      -83.2140   61.8130  144.2960 O.2   223  GLN223     -0.2717
    118  NE2      -85.2990   62.5510  144.6320 N.am  223  GLN223     -0.0878
@<TRIPOS>BOND
     1    66    65    2
     2    65    64    1
     3    64    67    1
     4    64    63    1
     5    67    68    1
     6    68    69    1
     7   102   103    1
     8    88    87    2
     9   110   111    1
    10    69    70    1
    11   104   105    2
    12   104   103    1
    13    87    86    1
    14    85    86    1
    15    59    58    2
    16   103   106    1
    17   111   112    1
    18   111   114    1
    19    86    89    1
    20   112   113    2
    21    70    71    2
    22   115   114    1
    23   115   116    1
    24    96    95    2
    25   106   107    1
    26    58    57    1
    27    72    71    1
    28    93    94    1
    29    95    94    1
    30    71    73    1
    31    51    50    2
    32    89    90    1
    33    61    60    1
    34   108   107   ar
    35    91    90    2
    36   107   109   ar
    37    94    97    1
    38    57    60    1
    39    57    56    1
    40   116   117    2
    41   116   118   am
    42    90    92   am
    43    50    56   am
    44    50    49    1
    45    60    62    1
    46    82    84   ar
    47    82    80   ar
    48    97    98    1
    49    49    52    1
    50    49    48    1
    51    84    83   ar
    52    80    79   ar
    53    98    99    1
    54   101    99   ar
    55    52    53    1
    56    99   100   ar
    57    17    15   ar
    58    17    19   ar
    59    15    14   ar
    60    53    55   am
    61    53    54    2
    62    83    81   ar
    63    79    81   ar
    64    79    78    1
    65    75    76    1
    66    75    74    1
    67    75    78    1
    68    76    77    2
    69    19    18   ar
    70    14    13    1
    71    14    16   ar
    72    13    10    1
    73     7     6    2
    74     8     6   am
    75    10     9    1
    76    10    11    1
    77    37    36   ar
    78     6     5    1
    79    18    16   ar
    80    34    33    2
    81    36    38   ar
    82    36    35    1
    83    11    12    2
    84    11    20   am
    85    32    33    1
    86    32    31    1
    87    32    35    1
    88    33    39   am
    89     5     2    1
    90    47    45   am
    91     3     2    1
    92     3     4    2
    93     2     1    1
    94    44    45    1
    95    44    43    1
    96    20    21    1
    97    45    46    2
    98    39    40    1
    99    40    43    1
   100    40    41    1
   101    30    29   ar
   102    30    28   ar
   103    29    27   ar
   104    28    26   ar
   105    27    25   ar
   106    21    22    1
   107    21    24    1
   108    41    42    2
   109    26    25   ar
   110    25    24    1
   111    22    23    2
