@<TRIPOS>MOLECULE
tmp/4rk4A00.pdb
 147 139 0 0 0
SMALL
GASTEIGER

@<TRIPOS>ATOM
      1  N         29.0830   34.4510   57.0920 N.3     9  SER9       -0.1217
      2  CA        28.5970   34.3500   55.7050 C.3     9  SER9        0.1889
      3  C         27.0940   34.6410   55.6430 C.2     9  SER9        0.2288
      4  O         26.6410   35.3070   54.6930 O.2     9  SER9       -0.2866
      5  CB        28.9510   33.1030   55.0700 C.3     9  SER9        0.2089
      6  OG        28.4510   32.0370   55.6580 O.3     9  SER9       -0.2183
      7  N         21.7990   31.2960   58.8080 N.3    13  ASN13      -0.1240
      8  CA        22.3700   29.9860   59.2000 C.3    13  ASN13       0.1653
      9  C         22.3290   29.9390   60.7370 C.2    13  ASN13       0.2266
     10  O         23.0230   30.7350   61.3730 O.2    13  ASN13      -0.2867
     11  CB        23.7670   29.8900   58.6670 C.3    13  ASN13       0.1155
     12  CG        24.4580   28.5980   59.0570 C.2    13  ASN13       0.2627
     13  OD1       24.0790   27.9480   60.0190 O.2    13  ASN13      -0.2716
     14  ND2       25.5130   28.2800   58.3620 N.am   13  ASN13      -0.0877
     15  N         23.6750   28.2110   62.9250 N.3    15  PHE15      -0.1227
     16  CA        24.9910   28.0970   63.5030 C.3    15  PHE15       0.1736
     17  C         25.5820   29.4890   63.7290 C.2    15  PHE15       0.2595
     18  O         26.1020   29.8090   64.8160 O.2    15  PHE15      -0.2718
     19  CB        25.9030   27.2430   62.6400 C.3    15  PHE15       0.0547
     20  CG        27.3480   27.2910   63.0930 C.ar   15  PHE15      -0.0202
     21  CD1       27.7500   26.6200   64.2730 C.ar   15  PHE15      -0.0042
     22  CD2       28.2470   28.0840   62.4650 C.ar   15  PHE15      -0.0042
     23  CE1       29.0080   26.7650   64.7320 C.ar   15  PHE15      -0.0003
     24  CE2       29.5300   28.2190   62.9400 C.ar   15  PHE15      -0.0003
     25  CZ        29.8990   27.5490   64.1040 C.ar   15  PHE15      -0.0000
     26  N         25.5700   30.3230   62.7000 N.am   16  PHE16      -0.1976
     27  CA        26.1260   31.6590   62.8330 C.3    16  PHE16       0.1639
     28  C         25.3280   32.5250   63.7530 C.2    16  PHE16       0.2290
     29  O         25.8810   33.3320   64.5020 O.2    16  PHE16      -0.2864
     30  CB        26.3100   32.3360   61.4750 C.3    16  PHE16       0.0560
     31  CG        27.4590   31.8040   60.6680 C.ar   16  PHE16      -0.0200
     32  CD1       28.7410   31.7330   61.1980 C.ar   16  PHE16      -0.0042
     33  CD2       27.2750   31.4240   59.3760 C.ar   16  PHE16      -0.0042
     34  CE1       29.8080   31.3000   60.4290 C.ar   16  PHE16      -0.0003
     35  CE2       28.3600   30.9780   58.6200 C.ar   16  PHE16      -0.0003
     36  CZ        29.6060   30.9020   59.1900 C.ar   16  PHE16      -0.0000
     37  N         34.1330   34.7840   61.6510 N.3    64  ALA64      -0.1231
     38  CA        33.7840   33.3670   61.6490 C.3    64  ALA64       0.1694
     39  C         33.7200   32.7740   60.2480 C.2    64  ALA64       0.2592
     40  O         33.4400   31.6050   60.0820 O.2    64  ALA64      -0.2718
     41  CB        32.5050   33.0890   62.4150 C.3    64  ALA64       0.0304
     42  N         33.9870   33.6110   59.2510 N.am   65  SER65      -0.1952
     43  CA        34.0670   33.2750   57.8330 C.3    65  SER65       0.1924
     44  C         35.2040   34.1260   57.2780 C.2    65  SER65       0.2314
     45  O         35.2680   35.2690   57.6060 O.2    65  SER65      -0.2863
     46  CB        32.6820   33.6120   57.1470 C.3    65  SER65       0.2116
     47  OG        31.5770   32.8410   57.6410 O.3    65  SER65      -0.2180
     48  N         36.9520   29.4020   63.7980 N.3    87  ASN87      -0.1240
     49  CA        36.2720   28.3310   63.1170 C.3    87  ASN87       0.1653
     50  C         36.1540   28.5190   61.6150 C.2    87  ASN87       0.2266
     51  O         35.1880   28.0580   61.0350 O.2    87  ASN87      -0.2867
     52  CB        34.9050   28.0560   63.7540 C.3    87  ASN87       0.1155
     53  CG        34.3610   26.6940   63.4430 C.2    87  ASN87       0.2627
     54  OD1       35.1090   25.7380   63.3840 O.2    87  ASN87      -0.2716
     55  ND2       33.0570   26.5980   63.3130 N.am   87  ASN87      -0.0877
     56  N         37.7330   19.7620   61.9980 N.3   102  HIS102     -0.1241
     57  CA        36.6390   19.2820   61.1300 C.3   102  HIS102      0.1621
     58  C         36.9970   18.1180   60.2660 C.2   102  HIS102      0.2264
     59  O         36.1800   17.2780   59.9660 O.2   102  HIS102     -0.2867
     60  CB        36.1010   20.4510   60.2750 C.3   102  HIS102      0.0745
     61  CG        35.3910   21.4630   61.0700 C.ar  102  HIS102      0.0817
     62  ND1       34.1390   21.2580   61.5850 N.ar  102  HIS102     -0.2268
     63  CD2       35.7770   22.6730   61.4860 C.ar  102  HIS102      0.1154
     64  CE1       33.7740   22.3090   62.2730 C.ar  102  HIS102      0.1986
     65  NE2       34.7490   23.2060   62.2240 N.ar  102  HIS102     -0.2212
     66  N         34.9900   26.8360   51.0890 N.3   134  HIS134     -0.1241
     67  CA        34.6420   26.7250   52.4930 C.3   134  HIS134      0.1621
     68  C         34.3040   25.2400   52.6720 C.2   134  HIS134      0.2264
     69  O         33.4700   24.6280   51.9140 O.2   134  HIS134     -0.2867
     70  CB        33.4320   27.5800   52.9300 C.3   134  HIS134      0.0745
     71  CG        33.6760   29.0490   52.9050 C.ar  134  HIS134      0.0817
     72  ND1       34.6740   29.6300   53.6390 N.ar  134  HIS134     -0.2268
     73  CD2       33.1280   30.0440   52.1620 C.ar  134  HIS134      0.1154
     74  CE1       34.6890   30.9370   53.4160 C.ar  134  HIS134      0.1986
     75  NE2       33.7850   31.2070   52.5170 N.ar  134  HIS134     -0.2212
     76  N         36.6510   19.1550   55.1670 N.3   138  ARG138     -0.1245
     77  CA        35.6120   18.1440   55.1790 C.3   138  ARG138      0.1563
     78  C         35.5820   17.3710   53.8760 C.2   138  ARG138      0.2260
     79  O         35.4280   16.1390   53.8490 O.2   138  ARG138     -0.2867
     80  CB        34.2550   18.7190   55.5020 C.3   138  ARG138      0.0307
     81  CG        34.2820   19.5450   56.7740 C.3   138  ARG138      0.0489
     82  CD        32.9890   20.1750   56.9580 C.3   138  ARG138      0.2205
     83  NE        33.0230   21.1670   57.9810 N.pl3 138  ARG138     -0.0865
     84  CZ        31.8860   21.7860   58.3600 C.cat 138  ARG138      0.5346
     85  NH1       30.6790   21.4300   57.8730 N.pl3 138  ARG138      0.1354
     86  NH2       31.9630   22.7300   59.2490 N.pl3 138  ARG138      0.1354
     87  N         26.6580   18.1190   55.4230 N.3   190  ASN190     -0.1225
     88  CA        27.4440   19.2770   55.8250 C.3   190  ASN190      0.1785
     89  C         26.6240   20.3880   56.4710 C.2   190  ASN190      0.2597
     90  O         27.1830   21.4740   56.7050 O.2   190  ASN190     -0.2718
     91  CB        28.3190   19.8060   54.6720 C.3   190  ASN190      0.1169
     92  CG        29.7180   19.2980   54.7190 C.2   190  ASN190      0.2627
     93  OD1       30.3430   19.3380   55.8030 O.2   190  ASN190     -0.2716
     94  ND2       30.2410   18.8150   53.6420 N.am  190  ASN190     -0.0877
     95  N         25.3710   20.1630   56.8200 N.am  191  SER191     -0.1952
     96  CA        24.5820   21.2280   57.3960 C.3   191  SER191      0.1924
     97  C         23.2440   20.7130   57.8780 C.2   191  SER191      0.2314
     98  O         22.5130   20.0470   57.1230 O.2   191  SER191     -0.2863
     99  CB        24.2520   22.2900   56.3310 C.3   191  SER191      0.2116
    100  OG        23.0950   23.0370   56.6410 O.3   191  SER191     -0.2180
    101  N         20.6340   22.5260   58.3570 N.3   193  GLU193     -0.1245
    102  CA        19.5920   23.1350   57.4950 C.3   193  GLU193      0.1567
    103  C         19.3440   22.2570   56.2620 C.2   193  GLU193      0.2260
    104  O         18.1970   21.9230   55.9440 O.2   193  GLU193     -0.2867
    105  CB        20.0220   24.5420   56.9690 C.3   193  GLU193      0.0388
    106  CG        20.1040   25.5850   58.0190 C.3   193  GLU193      0.1160
    107  CD        20.6230   26.8730   57.3790 C.2   193  GLU193      0.3649
    108  OE1       21.8170   27.1220   57.3800 O.co2 193  GLU193     -0.2457
    109  OE2       19.8020   27.7020   56.8510 O.co2 193  GLU193     -0.2457
    110  N         25.1210   18.4050   60.0770 N.3   218  TYR218     -0.1227
    111  CA        26.3480   19.0050   60.6370 C.3   218  TYR218      0.1736
    112  C         25.9460   20.2430   61.3970 C.2   218  TYR218      0.2595
    113  O         25.2260   21.0810   60.8530 O.2   218  TYR218     -0.2718
    114  CB        27.3660   19.3460   59.5410 C.3   218  TYR218      0.0548
    115  CG        28.8390   19.2330   59.9820 C.ar  218  TYR218     -0.0200
    116  CD1       29.4430   20.1510   60.8280 C.ar  218  TYR218     -0.0009
    117  CD2       29.6060   18.1920   59.5460 C.ar  218  TYR218     -0.0009
    118  CE1       30.7620   20.0420   61.1970 C.ar  218  TYR218      0.0417
    119  CE2       30.9410   18.0840   59.8330 C.ar  218  TYR218      0.0417
    120  CZ        31.5130   19.0240   60.7090 C.ar  218  TYR218      0.1957
    121  OH        32.8730   18.8920   61.0190 O.3   218  TYR218     -0.2866
    122  N         26.4270   20.3360   62.6290 N.am  219  ASP219     -0.1974
    123  CA        26.4710   21.5040   63.5220 C.3   219  ASP219      0.1709
    124  C         25.8050   21.2020   64.8560 C.2   219  ASP219      0.2293
    125  O         26.2820   21.7160   65.8950 O.2   219  ASP219     -0.2864
    126  CB        25.8680   22.7880   62.9960 C.3   219  ASP219      0.1436
    127  CG        26.6020   23.3680   61.7990 C.2   219  ASP219      0.3671
    128  OD1       27.7500   22.9880   61.4970 O.co2 219  ASP219     -0.2456
    129  OD2       25.9480   24.2810   61.1820 O.co2 219  ASP219     -0.2456
    130  N         22.4780   22.2280   65.3830 N.3   221  GLN221     -0.1245
    131  CA        21.7770   23.4780   65.4650 C.3   221  GLN221      0.1566
    132  C         20.5680   23.3310   66.4190 C.2   221  GLN221      0.2260
    133  O         20.1260   22.2410   66.7500 O.2   221  GLN221     -0.2867
    134  CB        21.3160   23.9140   64.0920 C.3   221  GLN221      0.0367
    135  CG        22.5160   24.2690   63.2250 C.3   221  GLN221      0.0905
    136  CD        22.1730   24.6350   61.7780 C.2   221  GLN221      0.2608
    137  OE1       21.0030   24.8270   61.4370 O.2   221  GLN221     -0.2717
    138  NE2       23.1550   24.7220   60.9440 N.am  221  GLN221     -0.0878
    139  N         28.9460   21.0290   66.9840 N.3   236  GLN236     -0.1245
    140  CA        29.9470   22.0860   67.1840 C.3   236  GLN236      0.1566
    141  C         29.7270   22.7400   68.5460 C.2   236  GLN236      0.2260
    142  O         28.6140   23.0550   68.8760 O.2   236  GLN236     -0.2867
    143  CB        29.8900   23.1480   66.0760 C.3   236  GLN236      0.0367
    144  CG        30.1980   22.5990   64.6920 C.3   236  GLN236      0.0905
    145  CD        30.7930   23.6310   63.7850 C.2   236  GLN236      0.2608
    146  OE1       31.8410   24.1940   64.1150 O.2   236  GLN236     -0.2717
    147  NE2       30.2020   23.8270   62.6430 N.am  236  GLN236     -0.0878
@<TRIPOS>BOND
     1    66    67    1
     2    69    68    2
     3    73    75   ar
     4    73    71   ar
     5    67    68    1
     6    67    70    1
     7    75    74   ar
     8    71    70    1
     9    71    72   ar
    10    74    72   ar
    11    94    92   am
    12    79    78    2
    13    78    77    1
    14    91    92    1
    15    91    88    1
    16     4     3    2
    17    92    93    2
    18     5     6    1
    19     5     2    1
    20    76    77    1
    21    77    80    1
    22    87    88    1
    23    80    81    1
    24     3     2    1
    25     2     1    1
    26    88    89    1
    27   104   103    2
    28   103   102    1
    29    99   100    1
    30    99    96    1
    31    89    90    2
    32    89    95   am
    33    81    82    1
    34    95    96    1
    35   109   107   ar
    36    82    83    1
    37   105   102    1
    38   105   106    1
    39    98    97    2
    40    46    47    1
    41    46    43    1
    42    44    45    2
    43    44    43    1
    44   107   108   ar
    45   107   106    1
    46    96    97    1
    47   102   101    1
    48    43    42    1
    49    85    84    1
    50    83    84    2
    51    84    86    1
    52    14    12   am
    53    35    36   ar
    54    35    33   ar
    55    11    12    1
    56    11     8    1
    57     7     8    1
    58    12    13    2
    59    36    34   ar
    60     8     9    1
    61    42    39   am
    62    33    31   ar
    63   114   115    1
    64   114   111    1
    65   117   119   ar
    66   117   115   ar
    67   119   120   ar
    68    59    58    2
    69   115   116   ar
    70   110   111    1
    71    40    39    2
    72    39    38    1
    73    58    57    1
    74    60    61    1
    75    60    57    1
    76    34    32   ar
    77   111   112    1
    78    31    32   ar
    79    31    30    1
    80   120   121    1
    81   120   118   ar
    82     9    10    2
    83   116   118   ar
    84   113   112    2
    85   138   136   am
    86    51    50    2
    87    61    63   ar
    88    61    62   ar
    89    57    56    1
    90   129   127   ar
    91   112   122   am
    92   137   136    2
    93    30    27    1
    94    63    65   ar
    95   128   127   ar
    96    62    64   ar
    97    50    49    1
    98    38    37    1
    99    38    41    1
   100   136   135    1
   101   127   126    1
   102    65    64   ar
   103    22    24   ar
   104    22    20   ar
   105   122   123    1
   106    19    20    1
   107    19    16    1
   108   147   145   am
   109    26    27    1
   110    26    17   am
   111    27    28    1
   112    15    16    1
   113    24    25   ar
   114   126   123    1
   115    20    21   ar
   116    49    52    1
   117    49    48    1
   118   135   134    1
   119    55    53   am
   120    54    53    2
   121    53    52    1
   122    16    17    1
   123   123   124    1
   124    17    18    2
   125    28    29    2
   126   145   146    2
   127   145   144    1
   128   134   131    1
   129    25    23   ar
   130    21    23   ar
   131   144   143    1
   132   124   125    2
   133   130   131    1
   134   131   132    1
   135   143   140    1
   136   132   133    2
   137   139   140    1
   138   140   141    1
   139   141   142    2
