@<TRIPOS>MOLECULE
tmp/4rk5A00.pdb
 189 179 0 0 0
SMALL
GASTEIGER

@<TRIPOS>ATOM
      1  N         29.2000   34.4310   56.9100 N.3     9  SER9       -0.1202
      2  CA        28.6160   34.3740   55.5810 C.3     9  SER9        0.2020
      3  C         27.0970   34.6220   55.5010 C.2     9  SER9        0.2618
      4  O         26.6370   35.2050   54.5550 O.2     9  SER9       -0.2717
      5  CB        29.0880   33.1500   54.8050 C.3     9  SER9        0.2103
      6  OG        28.5660   31.9910   55.3600 O.3     9  SER9       -0.2182
      7  N         26.3320   34.1440   56.4830 N.am   10  ARG10      -0.1979
      8  CA        24.8460   34.2030   56.3930 C.3    10  ARG10       0.1597
      9  C         24.2410   34.1070   57.7790 C.2    10  ARG10       0.2287
     10  O         24.4380   33.1060   58.4600 O.2    10  ARG10      -0.2864
     11  CB        24.3450   33.1040   55.4730 C.3    10  ARG10       0.0334
     12  CG        22.8360   33.0610   55.3290 C.3    10  ARG10       0.0492
     13  CD        22.3740   32.0920   54.2260 C.3    10  ARG10       0.2205
     14  NE        22.8470   30.7710   54.4250 N.pl3  10  ARG10      -0.0865
     15  CZ        22.2270   29.8160   55.1290 C.cat  10  ARG10       0.5346
     16  NH1       21.0400   30.0020   55.6870 N.pl3  10  ARG10       0.1354
     17  NH2       22.8080   28.6310   55.2290 N.pl3  10  ARG10       0.1354
     18  N         21.7840   31.2300   58.7660 N.3    13  ASN13      -0.1240
     19  CA        22.3370   29.9350   59.1620 C.3    13  ASN13       0.1653
     20  C         22.2880   29.8950   60.6920 C.2    13  ASN13       0.2266
     21  O         22.9940   30.6930   61.3500 O.2    13  ASN13      -0.2867
     22  CB        23.7730   29.8350   58.6610 C.3    13  ASN13       0.1155
     23  CG        24.4420   28.5730   59.0550 C.2    13  ASN13       0.2627
     24  OD1       24.0430   27.9140   60.0180 O.2    13  ASN13      -0.2716
     25  ND2       25.5270   28.2680   58.3870 N.am   13  ASN13      -0.0877
     26  N         23.6310   28.1410   62.8930 N.3    15  PHE15      -0.1227
     27  CA        24.9390   28.0210   63.4860 C.3    15  PHE15       0.1736
     28  C         25.5490   29.4250   63.7120 C.2    15  PHE15       0.2595
     29  O         26.0620   29.7350   64.7990 O.2    15  PHE15      -0.2718
     30  CB        25.8730   27.1580   62.6370 C.3    15  PHE15       0.0547
     31  CG        27.3020   27.2300   63.0960 C.ar   15  PHE15      -0.0202
     32  CD1       27.7110   26.5050   64.2170 C.ar   15  PHE15      -0.0042
     33  CD2       28.1980   28.0260   62.4740 C.ar   15  PHE15      -0.0042
     34  CE1       28.9550   26.6640   64.6940 C.ar   15  PHE15      -0.0003
     35  CE2       29.4820   28.1740   62.9690 C.ar   15  PHE15      -0.0003
     36  CZ        29.8500   27.4710   64.0900 C.ar   15  PHE15      -0.0000
     37  N         25.5130   30.2500   62.6740 N.am   16  PHE16      -0.1976
     38  CA        26.0920   31.5810   62.8140 C.3    16  PHE16       0.1639
     39  C         25.2540   32.4580   63.7440 C.2    16  PHE16       0.2290
     40  O         25.8370   33.2420   64.4990 O.2    16  PHE16      -0.2864
     41  CB        26.2510   32.2450   61.4450 C.3    16  PHE16       0.0560
     42  CG        27.4220   31.7770   60.6170 C.ar   16  PHE16      -0.0200
     43  CD1       28.6880   31.6720   61.1710 C.ar   16  PHE16      -0.0042
     44  CD2       27.2740   31.4570   59.2840 C.ar   16  PHE16      -0.0042
     45  CE1       29.7730   31.3230   60.4000 C.ar   16  PHE16      -0.0003
     46  CE2       28.3790   31.0830   58.5150 C.ar   16  PHE16      -0.0003
     47  CZ        29.6170   31.0350   59.0970 C.ar   16  PHE16      -0.0000
     48  N         29.6450   35.2190   51.0210 N.3    40  ASP40      -0.1239
     49  CA        30.9170   34.7780   50.3640 C.3    40  ASP40       0.1674
     50  C         31.5190   35.7920   49.3800 C.2    40  ASP40       0.2266
     51  O         32.3880   35.4410   48.5940 O.2    40  ASP40      -0.2867
     52  CB        30.7240   33.4800   49.5950 C.3    40  ASP40       0.1410
     53  CG        30.3690   32.3510   50.5160 C.2    40  ASP40       0.3668
     54  OD1       30.8440   32.3800   51.6810 O.co2  40  ASP40      -0.2456
     55  OD2       29.5710   31.4770   50.1060 O.co2  40  ASP40      -0.2456
     56  N         34.0620   34.7210   61.6320 N.3    63  ALA63      -0.1231
     57  CA        33.7570   33.3060   61.6880 C.3    63  ALA63       0.1694
     58  C         33.7090   32.6660   60.3050 C.2    63  ALA63       0.2592
     59  O         33.4100   31.4640   60.1540 O.2    63  ALA63      -0.2718
     60  CB        32.4640   33.0350   62.4480 C.3    63  ALA63       0.0304
     61  N         34.0050   33.4660   59.2740 N.am   64  SER64      -0.1952
     62  CA        34.2390   33.0340   57.9290 C.3    64  SER64       0.1924
     63  C         35.2360   33.9800   57.3210 C.2    64  SER64       0.2314
     64  O         35.2980   35.1210   57.7000 O.2    64  SER64      -0.2863
     65  CB        32.9360   32.9260   57.1830 C.3    64  SER64       0.2116
     66  OG        32.2190   34.0790   57.2090 O.3    64  SER64      -0.2180
     67  N         36.9780   29.3410   63.7970 N.3    85  ASN85      -0.1225
     68  CA        36.2950   28.2380   63.1220 C.3    85  ASN85       0.1785
     69  C         36.1520   28.4260   61.6060 C.2    85  ASN85       0.2597
     70  O         35.1800   27.9680   61.0270 O.2    85  ASN85      -0.2718
     71  CB        34.9440   27.9810   63.7780 C.3    85  ASN85       0.1169
     72  CG        34.3970   26.6110   63.4570 C.2    85  ASN85       0.2627
     73  OD1       35.1570   25.6400   63.3590 O.2    85  ASN85      -0.2716
     74  ND2       33.0890   26.5220   63.3200 N.am   85  ASN85      -0.0877
     75  N         37.1970   29.0210   60.9730 N.am   86  ALA86      -0.1979
     76  CA        37.2060   29.2660   59.5700 C.3    86  ALA86       0.1597
     77  C         38.1830   28.3560   58.8340 C.2    86  ALA86       0.2287
     78  O         38.4450   28.5560   57.6490 O.2    86  ALA86      -0.2864
     79  CB        37.4370   30.7480   59.2640 C.3    86  ALA86       0.0319
     80  N         37.6930   19.6990   61.9140 N.3   100  HIS100     -0.1241
     81  CA        36.6430   19.2420   61.0410 C.3   100  HIS100      0.1621
     82  C         37.0040   18.0530   60.1620 C.2   100  HIS100      0.2264
     83  O         36.1460   17.2380   59.8630 O.2   100  HIS100     -0.2867
     84  CB        36.0800   20.3810   60.2200 C.3   100  HIS100      0.0745
     85  CG        35.3760   21.3880   61.0630 C.ar  100  HIS100      0.0817
     86  ND1       34.1120   21.1920   61.5560 N.ar  100  HIS100     -0.2268
     87  CD2       35.7680   22.6160   61.4780 C.ar  100  HIS100      0.1154
     88  CE1       33.7620   22.2650   62.2570 C.ar  100  HIS100      0.1986
     89  NE2       34.7530   23.1360   62.2340 N.ar  100  HIS100     -0.2212
     90  N         28.5230   23.0270   50.7140 N.3   124  GLY124     -0.1225
     91  CA        28.1760   24.3750   50.4150 C.3   124  GLY124      0.1811
     92  C         29.0870   25.0440   49.4010 C.2   124  GLY124      0.2280
     93  O         28.7580   26.1180   48.9290 O.2   124  GLY124     -0.2866
     94  N         35.1540   26.8060   50.6710 N.3   132  HIS132     -0.1226
     95  CA        34.8660   26.6140   52.0770 C.3   132  HIS132      0.1752
     96  C         34.3710   25.2340   52.3980 C.2   132  HIS132      0.2596
     97  O         33.5570   24.6030   51.6730 O.2   132  HIS132     -0.2718
     98  CB        33.8860   27.6060   52.6170 C.3   132  HIS132      0.0759
     99  CG        34.3370   29.0050   52.4320 C.ar  132  HIS132      0.0818
    100  ND1       35.2980   29.3630   51.5090 N.ar  132  HIS132     -0.2268
    101  CD2       33.9310   30.1510   53.0220 C.ar  132  HIS132      0.1154
    102  CE1       35.4840   30.6690   51.5750 C.ar  132  HIS132      0.1986
    103  NE2       34.6480   31.1690   52.4550 N.ar  132  HIS132     -0.2212
    104  N         34.8790   24.7550   53.5090 N.am  133  GLY133     -0.1957
    105  CA        34.5670   23.3660   53.9670 C.3   133  GLY133      0.1869
    106  C         35.4000   22.3310   53.2180 C.2   133  GLY133      0.2309
    107  O         35.0490   21.1850   53.1330 O.2   133  GLY133     -0.2863
    108  N         36.6380   19.1370   55.0330 N.3   136  ARG136     -0.1245
    109  CA        35.5920   18.1330   55.0360 C.3   136  ARG136      0.1563
    110  C         35.5270   17.3200   53.7230 C.2   136  ARG136      0.2260
    111  O         35.3790   16.1150   53.7250 O.2   136  ARG136     -0.2867
    112  CB        34.2450   18.7190   55.3720 C.3   136  ARG136      0.0307
    113  CG        34.2440   19.4850   56.6610 C.3   136  ARG136      0.0489
    114  CD        32.9480   20.0940   56.8620 C.3   136  ARG136      0.2205
    115  NE        32.9790   21.0710   57.8910 N.pl3 136  ARG136     -0.0865
    116  CZ        31.8760   21.7170   58.3210 C.cat 136  ARG136      0.5346
    117  NH1       30.6690   21.3920   57.8400 N.pl3 136  ARG136      0.1354
    118  NH2       31.9560   22.6400   59.2330 N.pl3 136  ARG136      0.1354
    119  N         23.0750   24.9940   50.5000 N.3   160  HIS160     -0.1241
    120  CA        23.1810   25.6760   51.7870 C.3   160  HIS160      0.1621
    121  C         21.9450   25.5960   52.6490 C.2   160  HIS160      0.2264
    122  O         22.0300   25.4720   53.8920 O.2   160  HIS160     -0.2867
    123  CB        23.4790   27.1680   51.5650 C.3   160  HIS160      0.0745
    124  CG        24.6890   27.4430   50.7750 C.ar  160  HIS160      0.0817
    125  ND1       24.6700   27.9070   49.5000 N.ar  160  HIS160     -0.2268
    126  CD2       25.9750   27.2200   51.0710 C.ar  160  HIS160      0.1154
    127  CE1       25.9180   27.9680   49.0470 C.ar  160  HIS160      0.1986
    128  NE2       26.7240   27.5580   49.9870 N.ar  160  HIS160     -0.2212
    129  N         26.5970   18.0660   55.3340 N.3   187  ASN187     -0.1225
    130  CA        27.3950   19.2320   55.7250 C.3   187  ASN187      0.1785
    131  C         26.6080   20.3450   56.4140 C.2   187  ASN187      0.2597
    132  O         27.1760   21.4160   56.6690 O.2   187  ASN187     -0.2718
    133  CB        28.2270   19.7610   54.5460 C.3   187  ASN187      0.1169
    134  CG        29.6500   19.3210   54.6020 C.2   187  ASN187      0.2627
    135  OD1       30.3110   19.4350   55.6410 O.2   187  ASN187     -0.2716
    136  ND2       30.1600   18.7970   53.4970 N.am  187  ASN187     -0.0877
    137  N         25.3500   20.0870   56.7730 N.am  188  SER188     -0.1952
    138  CA        24.5710   21.1660   57.3580 C.3   188  SER188      0.1924
    139  C         23.2190   20.6140   57.8240 C.2   188  SER188      0.2314
    140  O         22.4850   19.9610   57.0850 O.2   188  SER188     -0.2863
    141  CB        24.2310   22.2180   56.2920 C.3   188  SER188      0.2116
    142  OG        23.0870   22.9690   56.6380 O.3   188  SER188     -0.2180
    143  N         20.6020   22.4400   58.3200 N.3   190  GLU190     -0.1245
    144  CA        19.5820   23.0550   57.4480 C.3   190  GLU190      0.1567
    145  C         19.3090   22.1810   56.2330 C.2   190  GLU190      0.2260
    146  O         18.1590   21.8230   55.9150 O.2   190  GLU190     -0.2867
    147  CB        20.0100   24.4500   56.9580 C.3   190  GLU190      0.0388
    148  CG        20.0830   25.4900   58.0030 C.3   190  GLU190      0.1160
    149  CD        20.6330   26.7950   57.3660 C.2   190  GLU190      0.3649
    150  OE1       21.8380   27.0380   57.4180 O.co2 190  GLU190     -0.2457
    151  OE2       19.8020   27.6020   56.8300 O.co2 190  GLU190     -0.2457
    152  N         25.1050   18.3290   60.0290 N.3   214  TYR214     -0.1227
    153  CA        26.3200   18.9040   60.5930 C.3   214  TYR214      0.1736
    154  C         25.9530   20.1530   61.3480 C.2   214  TYR214      0.2595
    155  O         25.2130   20.9950   60.8290 O.2   214  TYR214     -0.2718
    156  CB        27.3480   19.2560   59.4980 C.3   214  TYR214      0.0548
    157  CG        28.8120   19.1430   59.9220 C.ar  214  TYR214     -0.0200
    158  CD1       29.4010   20.0690   60.7700 C.ar  214  TYR214     -0.0009
    159  CD2       29.6100   18.1280   59.4760 C.ar  214  TYR214     -0.0009
    160  CE1       30.7200   19.9460   61.1410 C.ar  214  TYR214      0.0417
    161  CE2       30.9360   18.0240   59.7740 C.ar  214  TYR214      0.0417
    162  CZ        31.4980   18.9350   60.6370 C.ar  214  TYR214      0.1957
    163  OH        32.8310   18.8230   60.9570 O.3   214  TYR214     -0.2866
    164  N         26.4360   20.2400   62.5830 N.am  215  ASP215     -0.1974
    165  CA        26.4750   21.4250   63.4780 C.3   215  ASP215      0.1709
    166  C         25.8010   21.1380   64.8270 C.2   215  ASP215      0.2293
    167  O         26.2890   21.6420   65.8490 O.2   215  ASP215     -0.2864
    168  CB        25.8630   22.7000   62.9440 C.3   215  ASP215      0.1436
    169  CG        26.5960   23.3130   61.7520 C.2   215  ASP215      0.3671
    170  OD1       27.7430   22.9100   61.4740 O.co2 215  ASP215     -0.2456
    171  OD2       25.9550   24.1990   61.1740 O.co2 215  ASP215     -0.2456
    172  N         22.4910   22.1510   65.3430 N.3   217  GLN217     -0.1245
    173  CA        21.7710   23.3920   65.4480 C.3   217  GLN217      0.1566
    174  C         20.5660   23.2570   66.4020 C.2   217  GLN217      0.2260
    175  O         20.1260   22.1550   66.6990 O.2   217  GLN217     -0.2867
    176  CB        21.3100   23.8770   64.0640 C.3   217  GLN217      0.0367
    177  CG        22.5050   24.2190   63.1880 C.3   217  GLN217      0.0905
    178  CD        22.1430   24.5660   61.7580 C.2   217  GLN217      0.2608
    179  OE1       20.9700   24.7770   61.4250 O.2   217  GLN217     -0.2717
    180  NE2       23.1570   24.6490   60.9110 N.am  217  GLN217     -0.0878
    181  N         28.9490   20.9360   66.9900 N.3   232  GLN232     -0.1245
    182  CA        29.9500   21.9960   67.1700 C.3   232  GLN232      0.1566
    183  C         29.7400   22.6630   68.5280 C.2   232  GLN232      0.2260
    184  O         28.6110   22.9860   68.8920 O.2   232  GLN232     -0.2867
    185  CB        29.8660   23.0520   66.0620 C.3   232  GLN232      0.0367
    186  CG        30.2000   22.4900   64.6750 C.3   232  GLN232      0.0905
    187  CD        30.8030   23.5230   63.7550 C.2   232  GLN232      0.2608
    188  OE1       31.8450   24.0980   64.1070 O.2   232  GLN232     -0.2717
    189  NE2       30.1980   23.7290   62.6200 N.am  232  GLN232     -0.0878
@<TRIPOS>BOND
     1    51    50    2
     2    93    92    2
     3   127   125   ar
     4   127   128   ar
     5    50    49    1
     6    92    91    1
     7   125   124   ar
     8    52    49    1
     9    52    53    1
    10   128   126   ar
    11    55    53   ar
    12    49    48    1
    13    91    90    1
    14   119   120    1
    15    53    54   ar
    16    94    95    1
    17   124   126   ar
    18   124   123    1
    19   100   102   ar
    20   100    99   ar
    21   123   120    1
    22   102   103   ar
    23    97    96    2
    24   120   121    1
    25    95    96    1
    26    95    98    1
    27    96   104   am
    28    99    98    1
    29    99   101   ar
    30   103   101   ar
    31   121   122    2
    32   107   106    2
    33   106   105    1
    34   136   134   am
    35   104   105    1
    36   110   111    2
    37   110   109    1
    38    13    14    1
    39    13    12    1
    40    14    15    2
    41   133   134    1
    42   133   130    1
    43     4     3    2
    44   134   135    2
    45     5     6    1
    46     5     2    1
    47   108   109    1
    48   109   112    1
    49    15    17    1
    50    15    16    1
    51    12    11    1
    52   129   130    1
    53   112   113    1
    54    11     8    1
    55     3     2    1
    56     3     7   am
    57     2     1    1
    58   130   131    1
    59   146   145    2
    60   145   144    1
    61   141   142    1
    62   141   138    1
    63     8     7    1
    64     8     9    1
    65   131   132    2
    66   131   137   am
    67   113   114    1
    68   137   138    1
    69   151   149   ar
    70   114   115    1
    71   147   144    1
    72   147   148    1
    73   140   139    2
    74    65    66    1
    75    65    62    1
    76    63    64    2
    77    63    62    1
    78   138   139    1
    79   149   150   ar
    80   149   148    1
    81   144   143    1
    82    78    77    2
    83     9    10    2
    84   117   116    1
    85   115   116    2
    86    62    61    1
    87   116   118    1
    88    25    23   am
    89    46    47   ar
    90    46    44   ar
    91    22    23    1
    92    22    19    1
    93    18    19    1
    94    77    76    1
    95    23    24    2
    96    47    45   ar
    97    19    20    1
    98    79    76    1
    99    61    58   am
   100    44    42   ar
   101   159   161   ar
   102   159   157   ar
   103   156   157    1
   104   156   153    1
   105    76    75    1
   106   161   162   ar
   107    83    82    2
   108   157   158   ar
   109   152   153    1
   110    59    58    2
   111    82    81    1
   112    84    81    1
   113    84    85    1
   114    58    57    1
   115    45    43   ar
   116   153   154    1
   117    42    43   ar
   118    42    41    1
   119   162   163    1
   120   162   160   ar
   121    20    21    2
   122   158   160   ar
   123   155   154    2
   124   180   178   am
   125    75    69   am
   126    70    69    2
   127    81    80    1
   128    85    87   ar
   129    85    86   ar
   130   171   169   ar
   131   154   164   am
   132   179   178    2
   133    41    38    1
   134   170   169   ar
   135    87    89   ar
   136    86    88   ar
   137    69    68    1
   138    56    57    1
   139    57    60    1
   140   169   168    1
   141   178   177    1
   142    89    88   ar
   143    33    35   ar
   144    33    31   ar
   145   164   165    1
   146   189   187   am
   147    30    31    1
   148    30    27    1
   149    37    38    1
   150    37    28   am
   151    38    39    1
   152    26    27    1
   153   168   165    1
   154    35    36   ar
   155    31    32   ar
   156    68    71    1
   157    68    67    1
   158   177   176    1
   159    74    72   am
   160    73    72    2
   161    72    71    1
   162   165   166    1
   163    27    28    1
   164    28    29    2
   165    39    40    2
   166   187   188    2
   167   187   186    1
   168   176   173    1
   169    36    34   ar
   170    32    34   ar
   171   186   185    1
   172   166   167    2
   173   172   173    1
   174   173   174    1
   175   185   182    1
   176   174   175    2
   177   181   182    1
   178   182   183    1
   179   183   184    2
