@<TRIPOS>MOLECULE
tmp/4rk6B00.pdb
 122 114 0 0 0
SMALL
GASTEIGER

@<TRIPOS>ATOM
      1  N         34.0510   36.0800   16.5010 N.3    12  THR12      -0.1218
      2  CA        34.7440   37.1240   17.2650 C.3    12  THR12       0.1862
      3  C         36.0080   36.4910   17.8810 C.2    12  THR12       0.2287
      4  O         36.1830   35.2650   17.8460 O.2    12  THR12      -0.2866
      5  CB        33.8290   37.7410   18.3750 C.3    12  THR12       0.1770
      6  OG1       32.6050   38.2520   17.8160 O.3    12  THR12      -0.2211
      7  CG2       34.5090   38.8850   19.1190 C.3    12  THR12       0.0375
      8  N         36.4120   35.9280   20.8070 N.3    14  PHE14      -0.1241
      9  CA        36.0530   35.2110   22.0330 C.3    14  PHE14       0.1605
     10  C         36.3840   33.7130   21.9870 C.2    14  PHE14       0.2264
     11  O         36.6410   33.1110   23.0280 O.2    14  PHE14      -0.2867
     12  CB        34.6030   35.4970   22.4660 C.3    14  PHE14       0.0534
     13  CG        33.5620   34.6530   21.7900 C.ar   14  PHE14      -0.0203
     14  CD1       33.3200   33.3660   22.2120 C.ar   14  PHE14      -0.0042
     15  CD2       32.7910   35.1640   20.7570 C.ar   14  PHE14      -0.0042
     16  CE1       32.3530   32.5830   21.6210 C.ar   14  PHE14      -0.0003
     17  CE2       31.8250   34.3780   20.1410 C.ar   14  PHE14      -0.0003
     18  CZ        31.6070   33.0850   20.5730 C.ar   14  PHE14      -0.0000
     19  N         30.4900   26.1130   19.9380 N.3    62  LEU62      -0.1231
     20  CA        30.5210   27.5360   20.2710 C.3    62  LEU62       0.1693
     21  C         29.5170   28.3610   19.4330 C.2    62  LEU62       0.2593
     22  O         29.2320   29.5090   19.7730 O.2    62  LEU62      -0.2718
     23  CB        31.9240   28.0820   20.0000 C.3    62  LEU62       0.0284
     24  CG        32.9860   27.8470   21.0550 C.3    62  LEU62       0.0019
     25  CD1       33.3160   26.3710   21.1870 C.3    62  LEU62       0.0001
     26  CD2       34.2240   28.6460   20.6830 C.3    62  LEU62       0.0001
     27  N         28.9860   27.7660   18.3590 N.am   63  SER63      -0.1938
     28  CA        28.3850   28.5220   17.2410 C.3    63  SER63       0.2055
     29  C         27.0090   29.1300   17.5240 C.2    63  SER63       0.2642
     30  O         26.8590   30.3510   17.4930 O.2    63  SER63      -0.2714
     31  CB        28.2870   27.6480   15.9740 C.3    63  SER63       0.2130
     32  OG        29.5510   27.3860   15.3900 O.3    63  SER63      -0.2179
     33  N         26.0260   28.2680   17.7960 N.am   64  LEU64      -0.1977
     34  CA        24.5840   28.6100   17.8060 C.3    64  LEU64       0.1596
     35  C         23.9330   28.2690   16.4430 C.2    64  LEU64       0.2287
     36  O         22.7190   28.0890   16.3630 O.2    64  LEU64      -0.2864
     37  CB        24.3180   30.0800   18.1990 C.3    64  LEU64       0.0297
     38  CG        23.0850   30.4290   19.0530 C.3    64  LEU64       0.0022
     39  CD1       22.9260   31.9430   19.1190 C.3    64  LEU64       0.0001
     40  CD2       21.7860   29.7890   18.5870 C.3    64  LEU64       0.0001
     41  N         28.3330   29.4180   25.4630 N.3    84  THR84      -0.1203
     42  CA        27.8190   30.7680   25.1950 C.3    84  THR84       0.1994
     43  C         26.4200   30.7910   24.5680 C.2    84  THR84       0.2617
     44  O         25.8610   31.8610   24.3010 O.2    84  THR84      -0.2717
     45  CB        28.7900   31.6910   24.3680 C.3    84  THR84       0.1784
     46  OG1       28.6870   31.4220   22.9550 O.3    84  THR84      -0.2211
     47  CG2       30.2180   31.5440   24.8490 C.3    84  THR84       0.0376
     48  N         25.8250   29.6180   24.4150 N.am   85  ALA85      -0.1979
     49  CA        24.5080   29.5220   23.8240 C.3    85  ALA85       0.1597
     50  C         23.8650   28.2180   24.2140 C.2    85  ALA85       0.2287
     51  O         24.5450   27.2400   24.5340 O.2    85  ALA85      -0.2864
     52  CB        24.6140   29.6190   22.3150 C.3    85  ALA85       0.0319
     53  N         22.3550   35.7650   29.5640 N.3    98  GLU98      -0.1245
     54  CA        22.0990   36.8350   28.5970 C.3    98  GLU98       0.1567
     55  C         21.2140   37.9550   29.1170 C.2    98  GLU98       0.2260
     56  O         21.5250   39.1340   28.8970 O.2    98  GLU98      -0.2867
     57  CB        21.5270   36.2770   27.2820 C.3    98  GLU98       0.0388
     58  CG        22.5550   35.5690   26.4050 C.3    98  GLU98       0.1160
     59  CD        23.3710   36.5460   25.5460 C.2    98  GLU98       0.3649
     60  OE1       23.0300   37.7540   25.4970 O.co2  98  GLU98      -0.2457
     61  OE2       24.3630   36.1000   24.9230 O.co2  98  GLU98      -0.2457
     62  N         19.6350   39.0340   22.0450 N.3   130  ARG130     -0.1245
     63  CA        19.9100   40.3720   22.5540 C.3   130  ARG130      0.1563
     64  C         18.8590   41.4150   22.2240 C.2   130  ARG130      0.2260
     65  O         18.5150   42.2110   23.0760 O.2   130  ARG130     -0.2867
     66  CB        21.3350   40.7990   22.1890 C.3   130  ARG130      0.0307
     67  CG        22.3160   39.9850   22.9920 C.3   130  ARG130      0.0489
     68  CD        23.7890   40.2670   22.7500 C.3   130  ARG130      0.2205
     69  NE        24.5340   39.3110   23.5620 N.pl3 130  ARG130     -0.0865
     70  CZ        25.8340   39.0530   23.4760 C.cat 130  ARG130      0.5346
     71  NH1       26.6340   39.7420   22.6570 N.pl3 130  ARG130      0.1354
     72  NH2       26.3430   38.1010   24.2550 N.pl3 130  ARG130      0.1354
     73  N         27.9890   41.2350   14.3530 N.3   154  HIS154     -0.1241
     74  CA        28.8220   41.7640   15.4240 C.3   154  HIS154      0.1621
     75  C         30.0790   42.5070   14.9250 C.2   154  HIS154      0.2264
     76  O         31.0500   42.6770   15.6910 O.2   154  HIS154     -0.2867
     77  CB        29.2920   40.6140   16.3180 C.3   154  HIS154      0.0745
     78  CG        28.2090   39.8860   17.0360 C.ar  154  HIS154      0.0817
     79  ND1       27.3850   40.4850   17.9600 N.ar  154  HIS154     -0.2268
     80  CD2       27.8680   38.5720   17.0250 C.ar  154  HIS154      0.1154
     81  CE1       26.5570   39.5850   18.4630 C.ar  154  HIS154      0.1986
     82  NE2       26.8400   38.4130   17.9270 N.ar  154  HIS154     -0.2212
     83  N         26.7000   45.0190   20.5990 N.3   180  THR180     -0.1203
     84  CA        26.5990   43.5940   20.8850 C.3   180  THR180      0.1994
     85  C         27.9300   42.8400   20.9420 C.2   180  THR180      0.2617
     86  O         27.9690   41.7140   21.4190 O.2   180  THR180     -0.2717
     87  CB        25.6280   42.8560   19.9280 C.3   180  THR180      0.1784
     88  OG1       26.1240   42.8980   18.5830 O.3   180  THR180     -0.2211
     89  CG2       24.2570   43.4740   20.0190 C.3   180  THR180      0.0376
     90  N         29.0090   43.4760   20.4870 N.am  181  ALA181     -0.1979
     91  CA        30.3620   42.9750   20.6270 C.3   181  ALA181      0.1597
     92  C         31.3180   44.1500   20.6990 C.2   181  ALA181      0.2287
     93  O         30.9830   45.2700   20.2930 O.2   181  ALA181     -0.2864
     94  CB        30.7470   42.0720   19.4440 C.3   181  ALA181      0.0319
     95  N         31.3010   41.8580   26.0090 N.3   207  ASP207     -0.1239
     96  CA        32.3660   40.8450   25.8910 C.3   207  ASP207      0.1674
     97  C         33.5630   41.2630   26.7630 C.2   207  ASP207      0.2266
     98  O         34.0750   40.4790   27.5630 O.2   207  ASP207     -0.2867
     99  CB        32.8680   40.5520   24.4730 C.3   207  ASP207      0.1410
    100  CG        31.9120   39.6780   23.6560 C.2   207  ASP207      0.3668
    101  OD1       30.9640   39.1190   24.2280 O.co2 207  ASP207     -0.2456
    102  OD2       32.0990   39.5920   22.4280 O.co2 207  ASP207     -0.2456
    103  N         32.7280   39.1450   29.9180 N.3   224  GLN224     -0.1245
    104  CA        32.4830   37.7270   30.0930 C.3   224  GLN224      0.1566
    105  C         33.7660   37.0230   30.5030 C.2   224  GLN224      0.2260
    106  O         34.8560   37.3950   30.0530 O.2   224  GLN224     -0.2867
    107  CB        31.9470   37.0940   28.8090 C.3   224  GLN224      0.0367
    108  CG        30.6740   37.7300   28.2860 C.3   224  GLN224      0.0905
    109  CD        29.9550   36.8640   27.2730 C.2   224  GLN224      0.2608
    110  OE1       29.6700   37.2690   26.1210 O.2   224  GLN224     -0.2717
    111  NE2       29.6820   35.6620   27.6750 N.am  224  GLN224     -0.0878
    112  N         35.3370   34.1510   29.5130 N.3   226  PHE226     -0.1241
    113  CA        35.3680   33.1130   28.5060 C.3   226  PHE226      0.1605
    114  C         36.2390   31.9100   28.9150 C.2   226  PHE226      0.2264
    115  O         35.8390   30.7740   28.7340 O.2   226  PHE226     -0.2867
    116  CB        35.7900   33.6820   27.1370 C.3   226  PHE226      0.0534
    117  CG        34.7780   34.6230   26.5350 C.ar  226  PHE226     -0.0203
    118  CD1       33.5080   34.1580   26.1420 C.ar  226  PHE226     -0.0042
    119  CD2       35.0820   35.9650   26.3390 C.ar  226  PHE226     -0.0042
    120  CE1       32.5660   35.0400   25.6160 C.ar  226  PHE226     -0.0003
    121  CE2       34.1550   36.8420   25.7840 C.ar  226  PHE226     -0.0003
    122  CZ        32.9000   36.3860   25.4050 C.ar  226  PHE226     -0.0000
@<TRIPOS>BOND
     1    73    74    1
     2    75    74    1
     3    75    76    2
     4    32    31    1
     5    74    77    1
     6    31    28    1
     7    77    78    1
     8    36    35    2
     9    35    34    1
    10     1     2    1
    11    80    78   ar
    12    80    82   ar
    13    78    79   ar
    14    28    29    1
    15    28    27    1
    16     2     3    1
    17     2     5    1
    18    30    29    2
    19    29    33   am
    20    33    34    1
    21    34    37    1
    22     6     5    1
    23     4     3    2
    24    82    81   ar
    25    79    81   ar
    26    37    38    1
    27    27    21   am
    28     5     7    1
    29    88    87    1
    30    40    38    1
    31    38    39    1
    32    21    22    2
    33    21    20    1
    34    94    91    1
    35    87    89    1
    36    87    84    1
    37    19    20    1
    38    23    20    1
    39    23    24    1
    40    17    18   ar
    41    17    15   ar
    42    93    92    2
    43    90    91    1
    44    90    85   am
    45    18    16   ar
    46    83    84    1
    47    91    92    1
    48    26    24    1
    49    15    13   ar
    50     8     9    1
    51    84    85    1
    52    85    86    2
    53    24    25    1
    54    16    14   ar
    55    13    14   ar
    56    13    12    1
    57    10     9    1
    58    10    11    2
    59     9    12    1
    60    62    63    1
    61    66    63    1
    62    66    67    1
    63    64    63    1
    64    64    65    2
    65    52    49    1
    66   102   100   ar
    67    71    70    1
    68    68    67    1
    69    68    69    1
    70    46    45    1
    71    70    69    2
    72    70    72    1
    73   100   101   ar
    74   100    99    1
    75    49    50    1
    76    49    48    1
    77    50    51    2
    78    44    43    2
    79    45    47    1
    80    45    42    1
    81    48    43   am
    82    99    96    1
    83    43    42    1
    84    61    59   ar
    85    42    41    1
    86   122   120   ar
    87   122   121   ar
    88    60    59   ar
    89    59    58    1
    90   120   118   ar
    91   121   119   ar
    92    96    95    1
    93    96    97    1
    94   110   109    2
    95   118   117   ar
    96   119   117   ar
    97    58    57    1
    98   117   116    1
    99    97    98    2
   100   116   113    1
   101   109   111   am
   102   109   108    1
   103    57    54    1
   104   108   107    1
   105   113   114    1
   106   113   112    1
   107    54    55    1
   108    54    53    1
   109   115   114    2
   110   107   104    1
   111    56    55    2
   112   103   104    1
   113   106   105    2
   114   104   105    1
