@<TRIPOS>MOLECULE
tmp/4rk7A00.pdb
 145 134 0 0 0
SMALL
GASTEIGER

@<TRIPOS>ATOM
      1  N         49.6190   36.1120   17.3620 N.3    12  THR12      -0.1218
      2  CA        48.8910   37.1970   16.7070 C.3    12  THR12       0.1862
      3  C         47.7240   36.5600   15.9170 C.2    12  THR12       0.2287
      4  O         47.6720   35.3300   15.7460 O.2    12  THR12      -0.2866
      5  CB        49.8200   38.0020   15.7450 C.3    12  THR12       0.1770
      6  OG1       51.0010   38.4800   16.4290 O.3    12  THR12      -0.2211
      7  CG2       49.0890   39.1860   15.1320 C.3    12  THR12       0.0375
      8  N         47.5740   36.4270   12.9050 N.3    14  PHE14      -0.1241
      9  CA        48.0690   35.9440   11.6170 C.3    14  PHE14       0.1605
     10  C         47.6280   34.4910   11.3700 C.2    14  PHE14       0.2264
     11  O         47.3100   34.1290   10.2360 O.2    14  PHE14      -0.2867
     12  CB        49.5950   36.1630   11.4590 C.3    14  PHE14       0.0534
     13  CG        50.4500   35.0630   12.0120 C.ar   14  PHE14      -0.0203
     14  CD1       50.8850   35.0860   13.3320 C.ar   14  PHE14      -0.0042
     15  CD2       50.8580   34.0160   11.1990 C.ar   14  PHE14      -0.0042
     16  CE1       51.6730   34.0640   13.8320 C.ar   14  PHE14      -0.0003
     17  CE2       51.6580   33.0060   11.6890 C.ar   14  PHE14      -0.0003
     18  CZ        52.0620   33.0240   13.0110 C.ar   14  PHE14      -0.0000
     19  N         53.3910   26.4670   12.2310 N.3    62  LEU62      -0.1245
     20  CA        53.3010   27.9040   12.2640 C.3    62  LEU62       0.1561
     21  C         54.1080   28.4980   13.4220 C.2    62  LEU62       0.2260
     22  O         54.0990   29.7060   13.5930 O.2    62  LEU62      -0.2867
     23  CB        51.8260   28.3230   12.4000 C.3    62  LEU62       0.0270
     24  CG        50.9710   28.3910   11.1350 C.3    62  LEU62       0.0019
     25  CD1       50.8900   27.0420   10.4360 C.3    62  LEU62       0.0001
     26  CD2       49.5820   28.9010   11.5020 C.3    62  LEU62       0.0001
     27  N         57.8060   28.7330   15.8680 N.3    64  LEU64      -0.1245
     28  CA        59.2600   28.4890   15.8900 C.3    64  LEU64       0.1561
     29  C         59.6970   27.6170   17.0720 C.2    64  LEU64       0.2260
     30  O         60.8410   27.1750   17.1230 O.2    64  LEU64      -0.2867
     31  CB        60.0580   29.7990   15.8290 C.3    64  LEU64       0.0270
     32  CG        60.4790   30.2320   14.4140 C.3    64  LEU64       0.0019
     33  CD1       61.1520   31.5920   14.4490 C.3    64  LEU64       0.0001
     34  CD2       61.4080   29.2110   13.7680 C.3    64  LEU64       0.0001
     35  N         55.5480   30.9090    7.3250 N.3    84  THR84      -0.1203
     36  CA        56.0010   32.2230    7.8380 C.3    84  THR84       0.1994
     37  C         57.3400   32.1720    8.5790 C.2    84  THR84       0.2617
     38  O         57.7900   33.1640    9.1230 O.2    84  THR84      -0.2717
     39  CB        54.9520   32.9410    8.7230 C.3    84  THR84       0.1784
     40  OG1       54.9510   32.3970   10.0440 O.3    84  THR84      -0.2211
     41  CG2       53.5840   32.8610    8.0920 C.3    84  THR84       0.0376
     42  N         57.9890   31.0230    8.5390 N.am   85  ALA85      -0.1979
     43  CA        59.2380   30.8370    9.2570 C.3    85  ALA85       0.1597
     44  C         59.9750   29.6620    8.6480 C.2    85  ALA85       0.2287
     45  O         59.3590   28.7430    8.1310 O.2    85  ALA85      -0.2864
     46  CB        58.9590   30.5870   10.7260 C.3    85  ALA85       0.0319
     47  N         61.5970   37.8550    4.6500 N.3    98  GLU98      -0.1245
     48  CA        61.8430   38.7480    5.7980 C.3    98  GLU98       0.1567
     49  C         62.7600   39.9220    5.5160 C.2    98  GLU98       0.2260
     50  O         62.4650   41.0480    5.9260 O.2    98  GLU98      -0.2867
     51  CB        62.3400   37.9510    7.0010 C.3    98  GLU98       0.0388
     52  CG        61.2600   37.1030    7.6380 C.3    98  GLU98       0.1160
     53  CD        60.4190   37.8770    8.6560 C.2    98  GLU98       0.3649
     54  OE1       60.7290   39.0480    8.9750 O.co2  98  GLU98      -0.2457
     55  OE2       59.4810   37.2790    9.1660 O.co2  98  GLU98      -0.2457
     56  N         59.5130   42.2140   18.8670 N.3   119  ASP119     -0.1239
     57  CA        60.3660   41.0550   19.1060 C.3   119  ASP119      0.1674
     58  C         61.7770   41.3570   18.6040 C.2   119  ASP119      0.2266
     59  O         62.0630   41.1830   17.4270 O.2   119  ASP119     -0.2867
     60  CB        59.7730   39.8340   18.3990 C.3   119  ASP119      0.1410
     61  CG        60.5120   38.5500   18.7070 C.2   119  ASP119      0.3668
     62  OD1       61.5010   38.5740   19.4580 O.co2 119  ASP119     -0.2456
     63  OD2       60.0940   37.5080   18.1860 O.co2 119  ASP119     -0.2456
     64  N         66.7390   30.5650   18.9100 N.3   126  ILE126     -0.1231
     65  CA        65.9100   31.1550   17.8390 C.3   126  ILE126      0.1692
     66  C         66.6130   32.3440   17.2190 C.2   126  ILE126      0.2592
     67  O         66.9700   33.2860   17.9200 O.2   126  ILE126     -0.2718
     68  CB        64.5310   31.6350   18.3840 C.3   126  ILE126      0.0266
     69  CG1       63.7880   30.5130   19.1350 C.3   126  ILE126      0.0019
     70  CG2       63.6590   32.2010   17.2670 C.3   126  ILE126      0.0020
     71  CD1       63.4160   29.3110   18.2990 C.3   126  ILE126      0.0001
     72  N         66.7500   32.3140   15.9010 N.am  127  SER127     -0.1952
     73  CA        67.3270   33.4170   15.1520 C.3   127  SER127      0.1924
     74  C         66.5430   34.6910   15.4410 C.2   127  SER127      0.2314
     75  O         65.3120   34.6560   15.4890 O.2   127  SER127     -0.2863
     76  CB        67.2420   33.1190   13.6530 C.3   127  SER127      0.2116
     77  OG        67.8080   31.8720   13.3310 O.3   127  SER127     -0.2180
     78  N         65.5340   37.1800   13.7160 N.3   129  THR129     -0.1203
     79  CA        65.3890   37.4990   12.2980 C.3   129  THR129      0.1994
     80  C         65.2130   38.9780   12.0420 C.2   129  THR129      0.2617
     81  O         65.9610   39.5790   11.2750 O.2   129  THR129     -0.2717
     82  CB        64.1930   36.7130   11.7370 C.3   129  THR129      0.1784
     83  OG1       64.4040   35.3130   11.9650 O.3   129  THR129     -0.2211
     84  CG2       63.9860   36.9960   10.2440 C.3   129  THR129      0.0376
     85  N         64.2300   39.5870   12.7000 N.am  130  ARG130     -0.1979
     86  CA        63.9380   41.0040   12.4380 C.3   130  ARG130      0.1597
     87  C         64.9700   42.0030   12.9320 C.2   130  ARG130      0.2287
     88  O         65.2960   42.9600   12.2400 O.2   130  ARG130     -0.2864
     89  CB        62.5200   41.3320   12.9100 C.3   130  ARG130      0.0334
     90  CG        61.5460   40.5690   12.0400 C.3   130  ARG130      0.0492
     91  CD        60.0730   40.9560   12.1870 C.3   130  ARG130      0.2205
     92  NE        59.3340   40.1620   11.2030 N.pl3 130  ARG130     -0.0865
     93  CZ        58.0260   39.9170   11.1990 C.cat 130  ARG130      0.5346
     94  NH1       57.2060   40.4380   12.1160 N.pl3 130  ARG130      0.1354
     95  NH2       57.5400   39.1170   10.2560 N.pl3 130  ARG130      0.1354
     96  N         55.6860   40.5410   20.4960 N.3   154  HIS154     -0.1241
     97  CA        54.8740   41.2890   19.5410 C.3   154  HIS154      0.1621
     98  C         53.6210   41.9150   20.1780 C.2   154  HIS154      0.2264
     99  O         52.6510   42.1920   19.4720 O.2   154  HIS154     -0.2867
    100  CB        54.4000   40.3420   18.4170 C.3   154  HIS154      0.0745
    101  CG        55.4950   39.7820   17.5690 C.ar  154  HIS154      0.0817
    102  ND1       56.2960   40.5670   16.7670 N.ar  154  HIS154     -0.2268
    103  CD2       55.8810   38.5000   17.3440 C.ar  154  HIS154      0.1154
    104  CE1       57.1550   39.8050   16.1190 C.ar  154  HIS154      0.1986
    105  NE2       56.9170   38.5410   16.4450 N.ar  154  HIS154     -0.2212
    106  N         57.1810   45.3630   15.0390 N.3   180  THR180     -0.1203
    107  CA        57.2750   44.0100   14.4720 C.3   180  THR180      0.1994
    108  C         55.9360   43.2920   14.2940 C.2   180  THR180      0.2617
    109  O         55.8790   42.2430   13.6610 O.2   180  THR180     -0.2717
    110  CB        58.2180   43.0900   15.2890 C.3   180  THR180      0.1784
    111  OG1       57.6860   42.8790   16.6020 O.3   180  THR180     -0.2211
    112  CG2       59.5790   43.6860   15.3750 C.3   180  THR180      0.0376
    113  N         54.8700   43.8470   14.8570 N.am  181  ALA181     -0.1979
    114  CA        53.4940   43.3700   14.6220 C.3   181  ALA181      0.1597
    115  C         52.5310   44.5470   14.7570 C.2   181  ALA181      0.2287
    116  O         52.8770   45.5790   15.3520 O.2   181  ALA181     -0.2864
    117  CB        53.1380   42.2820   15.6010 C.3   181  ALA181      0.0319
    118  N         52.5480   43.2730    9.1240 N.3   207  ASP207     -0.1239
    119  CA        51.5000   42.2440    9.0310 C.3   207  ASP207      0.1674
    120  C         50.2970   42.7870    8.2270 C.2   207  ASP207      0.2266
    121  O         49.7860   42.1210    7.3400 O.2   207  ASP207     -0.2867
    122  CB        50.9620   41.6660   10.3430 C.3   207  ASP207      0.1410
    123  CG        51.9020   40.6900   11.0000 C.2   207  ASP207      0.3668
    124  OD1       52.9300   40.3040   10.3860 O.co2 207  ASP207     -0.2456
    125  OD2       51.6170   40.3400   12.1640 O.co2 207  ASP207     -0.2456
    126  N         51.2270   41.3370    4.6750 N.3   224  GLN224     -0.1245
    127  CA        51.5560   39.9600    4.2630 C.3   224  GLN224      0.1566
    128  C         50.3120   39.3160    3.7010 C.2   224  GLN224      0.2260
    129  O         49.2060   39.5900    4.1420 O.2   224  GLN224     -0.2867
    130  CB        52.0310   39.1470    5.4580 C.3   224  GLN224      0.0367
    131  CG        53.3230   39.6710    6.0810 C.3   224  GLN224      0.0905
    132  CD        54.0440   38.6100    6.8890 C.2   224  GLN224      0.2608
    133  OE1       54.4310   37.5890    6.3560 O.2   224  GLN224     -0.2717
    134  NE2       54.1850   38.8320    8.1980 N.am  224  GLN224     -0.0878
    135  N         48.7060   36.3740    4.1190 N.3   226  PHE226     -0.1241
    136  CA        48.6550   35.1420    4.9110 C.3   226  PHE226      0.1605
    137  C         47.8000   34.0680    4.2450 C.2   226  PHE226      0.2264
    138  O         48.1580   32.8890    4.2500 O.2   226  PHE226     -0.2867
    139  CB        48.1750   35.3880    6.3450 C.3   226  PHE226      0.0534
    140  CG        49.1510   36.2020    7.1670 C.ar  226  PHE226     -0.0203
    141  CD1       50.4450   35.7450    7.3760 C.ar  226  PHE226     -0.0042
    142  CD2       48.7910   37.4410    7.6950 C.ar  226  PHE226     -0.0042
    143  CE1       51.3500   36.4960    8.0970 C.ar  226  PHE226     -0.0003
    144  CE2       49.7020   38.1950    8.4370 C.ar  226  PHE226     -0.0003
    145  CZ        50.9800   37.7220    8.6260 C.ar  226  PHE226     -0.0000
@<TRIPOS>BOND
     1   128   129    2
     2   128   127    1
     3   135   136    1
     4   137   138    2
     5   137   136    1
     6   127   126    1
     7   127   130    1
     8    47    48    1
     9   136   139    1
    10   130   131    1
    11    49    48    1
    12    49    50    2
    13    48    51    1
    14   131   132    1
    15   139   140    1
    16   133   132    2
    17   132   134   am
    18    51    52    1
    19   140   141   ar
    20   140   142   ar
    21    35    36    1
    22   121   120    2
    23   141   143   ar
    24    52    53    1
    25   142   144   ar
    26    36    37    1
    27    36    39    1
    28    41    39    1
    29   143   145   ar
    30    45    44    2
    31   120   119    1
    32   144   145   ar
    33    42    37   am
    34    42    43    1
    35    37    38    2
    36    44    43    1
    37    53    54   ar
    38    53    55   ar
    39    39    40    1
    40   119   118    1
    41   119   122    1
    42    43    46    1
    43    11    10    2
    44    84    82    1
    45    95    93    1
    46   122   123    1
    47   124   123   ar
    48    25    24    1
    49   123   125   ar
    50    24    26    1
    51    24    23    1
    52    15    17   ar
    53    15    13   ar
    54    93    92    2
    55    93    94    1
    56    92    91    1
    57    81    80    2
    58    10     9    1
    59    12     9    1
    60    12    13    1
    61     9     8    1
    62    17    18   ar
    63    82    83    1
    64    82    79    1
    65    13    14   ar
    66    90    91    1
    67    90    89    1
    68    80    79    1
    69    80    85   am
    70    19    20    1
    71    88    87    2
    72    20    23    1
    73    20    21    1
    74    79    78    1
    75    86    85    1
    76    86    89    1
    77    86    87    1
    78    18    16   ar
    79    77    76    1
    80    14    16   ar
    81    21    22    2
    82    76    73    1
    83   109   108    2
    84    34    32    1
    85   108   107    1
    86   108   113   am
    87    32    33    1
    88    32    31    1
    89   107   106    1
    90   107   110    1
    91   114   115    1
    92   114   113    1
    93   114   117    1
    94   115   116    2
    95     7     5    1
    96    73    74    1
    97    73    72    1
    98   110   112    1
    99   110   111    1
   100    74    75    2
   101     5     6    1
   102     5     2    1
   103     4     3    2
   104    31    28    1
   105    27    28    1
   106    28    29    1
   107    72    66   am
   108     3     2    1
   109   104   105   ar
   110   104   102   ar
   111   105   103   ar
   112     2     1    1
   113   102   101   ar
   114    29    30    2
   115    66    65    1
   116    66    67    2
   117    70    68    1
   118   103   101   ar
   119    59    58    2
   120   101   100    1
   121    65    68    1
   122    65    64    1
   123    63    61   ar
   124    71    69    1
   125    68    69    1
   126    60    61    1
   127    60    57    1
   128   100    97    1
   129    58    57    1
   130    61    62   ar
   131    56    57    1
   132    99    98    2
   133    97    98    1
   134    97    96    1
