@<TRIPOS>MOLECULE
tmp/4rk9B00.pdb
 224 216 0 0 0
SMALL
GASTEIGER

@<TRIPOS>ATOM
      1  N          6.7870    6.3700  -24.1740 N.3     8  THR8       -0.1218
      2  CA         6.1860    6.9580  -25.3840 C.3     8  THR8        0.1862
      3  C          5.6090    5.9330  -26.3650 C.2     8  THR8        0.2287
      4  O          5.1090    6.3320  -27.4340 O.2     8  THR8       -0.2866
      5  CB         7.2070    7.7730  -26.2000 C.3     8  THR8        0.1770
      6  OG1        8.3270    6.9290  -26.5070 O.3     8  THR8       -0.2211
      7  CG2        7.6630    9.0410  -25.4200 C.3     8  THR8        0.0375
      8  N          3.2000    3.7740  -28.4260 N.3    10  THR10      -0.1203
      9  CA         1.8110    3.9830  -28.8330 C.3    10  THR10       0.1994
     10  C          1.1960    2.7610  -29.5540 C.2    10  THR10       0.2617
     11  O         -0.0170    2.7040  -29.7540 O.2    10  THR10      -0.2717
     12  CB         1.6640    5.2650  -29.7000 C.3    10  THR10       0.1784
     13  OG1        2.4680    5.1720  -30.8730 O.3    10  THR10      -0.2211
     14  CG2        2.1210    6.4920  -28.9360 C.3    10  THR10       0.0376
     15  N          2.0080    1.7650  -29.8900 N.am   11  ASN11      -0.1974
     16  CA         1.5200    0.5730  -30.5900 C.3    11  ASN11       0.1688
     17  C          1.1450   -0.5790  -29.6330 C.2    11  ASN11       0.2292
     18  O          1.9040   -0.9060  -28.7090 O.2    11  ASN11      -0.2864
     19  CB         2.5660    0.0810  -31.6090 C.3    11  ASN11       0.1181
     20  CG         2.9860    1.1560  -32.6060 C.2    11  ASN11       0.2629
     21  OD1        4.1770    1.3340  -32.8820 O.2    11  ASN11      -0.2716
     22  ND2        2.0110    1.8640  -33.1640 N.am   11  ASN11      -0.0877
     23  N          3.7970   -3.6570  -28.9430 N.3    14  GLU14      -0.1245
     24  CA         4.9220   -3.1980  -28.1210 C.3    14  GLU14       0.1567
     25  C          4.4790   -2.8130  -26.7070 C.2    14  GLU14       0.2260
     26  O          5.1290   -3.1710  -25.7130 O.2    14  GLU14      -0.2867
     27  CB         5.7010   -2.0630  -28.8060 C.3    14  GLU14       0.0388
     28  CG         4.9920   -0.7230  -28.9760 C.3    14  GLU14       0.1160
     29  CD         5.8990    0.3210  -29.6290 C.2    14  GLU14       0.3649
     30  OE1        7.0720   -0.0260  -29.8800 O.co2  14  GLU14      -0.2457
     31  OE2        5.4700    1.4790  -29.8890 O.co2  14  GLU14      -0.2457
     32  N          1.0280    8.6440  -24.8980 N.3    40  GLY40      -0.1210
     33  CA         1.0290    8.9190  -26.3130 C.3    40  GLY40       0.1940
     34  C          1.2040   10.3750  -26.6270 C.2    40  GLY40       0.2453
     35  O          2.2000   10.9660  -26.2330 O.2    40  GLY40      -0.2732
     36  N          0.2340   10.9730  -27.3320 N.am   41  PRO41      -0.2728
     37  CA         0.4150   12.3350  -27.8320 C.3    41  PRO41       0.1401
     38  C          0.5800   13.3810  -26.7300 C.2    41  PRO41       0.2269
     39  O          1.0740   14.4590  -27.0240 O.2    41  PRO41      -0.2865
     40  CB        -0.8720   12.5870  -28.6260 C.3    41  PRO41       0.0296
     41  CG        -1.8730   11.7260  -27.9570 C.3    41  PRO41       0.0237
     42  CD        -1.1320   10.4810  -27.5760 C.3    41  PRO41       0.0939
     43  N          2.4030   12.7770  -23.9970 N.3    43  TYR43      -0.1227
     44  CA         3.6120   12.4000  -23.2590 C.3    43  TYR43       0.1736
     45  C          4.5390   13.5550  -22.8450 C.2    43  TYR43       0.2595
     46  O          4.8680   13.6660  -21.6840 O.2    43  TYR43      -0.2718
     47  CB         4.4740   11.4000  -24.0420 C.3    43  TYR43       0.0548
     48  CG         5.5900   10.8720  -23.1700 C.ar   43  TYR43      -0.0200
     49  CD1        6.7770   11.5820  -23.0200 C.ar   43  TYR43      -0.0009
     50  CD2        5.4390    9.6800  -22.4570 C.ar   43  TYR43      -0.0009
     51  CE1        7.7970   11.1040  -22.2170 C.ar   43  TYR43       0.0417
     52  CE2        6.4520    9.1980  -21.6470 C.ar   43  TYR43       0.0417
     53  CZ         7.6210    9.9190  -21.5120 C.ar   43  TYR43       0.1957
     54  OH         8.6250    9.4620  -20.6830 O.3    43  TYR43      -0.2866
     55  N          5.0030   14.3420  -23.8170 N.am   44  GLU44      -0.1979
     56  CA         6.0650   15.3090  -23.6020 C.3    44  GLU44       0.1602
     57  C          5.5540   16.4200  -22.6670 C.2    44  GLU44       0.2287
     58  O          6.2760   16.8950  -21.7940 O.2    44  GLU44      -0.2864
     59  CB         6.5860   15.8580  -24.9460 C.3    44  GLU44       0.0415
     60  CG         7.2080   14.7800  -25.8650 C.3    44  GLU44       0.1163
     61  CD         7.9520   15.3190  -27.0910 C.2    44  GLU44       0.3649
     62  OE1        8.5370   16.4120  -27.0080 O.co2  44  GLU44      -0.2457
     63  OE2        8.0160   14.6060  -28.1350 O.co2  44  GLU44      -0.2457
     64  N         12.9240    9.4490  -25.2190 N.3    63  HIS63      -0.1241
     65  CA        12.3990    9.6470  -26.5870 C.3    63  HIS63       0.1621
     66  C         13.1330   10.6490  -27.4900 C.2    63  HIS63       0.2264
     67  O         12.4980   11.4440  -28.1970 O.2    63  HIS63      -0.2867
     68  CB        10.9240   10.0310  -26.5110 C.3    63  HIS63       0.0745
     69  CG        10.6710   11.3490  -25.8320 C.ar   63  HIS63       0.0817
     70  ND1       10.7160   12.5580  -26.5020 N.ar   63  HIS63      -0.2268
     71  CD2       10.3730   11.6420  -24.5490 C.ar   63  HIS63       0.1154
     72  CE1       10.4730   13.5380  -25.6510 C.ar   63  HIS63       0.1986
     73  NE2       10.2600   13.0120  -24.4590 N.ar   63  HIS63      -0.2212
     74  N         15.6090   12.8610  -26.3270 N.3    65  TRP65      -0.1241
     75  CA        16.1080   13.9980  -25.5890 C.3    65  TRP65       0.1605
     76  C         16.8320   13.6970  -24.2750 C.2    65  TRP65       0.2264
     77  O         16.8530   14.5410  -23.3800 O.2    65  TRP65      -0.2867
     78  CB        14.9240   14.9120  -25.3180 C.3    65  TRP65       0.0550
     79  CG        14.3340   15.4440  -26.5490 C.ar   65  TRP65       0.0003
     80  CD1       13.4200   14.8310  -27.3600 C.ar   65  TRP65       0.0946
     81  CD2       14.5890   16.7180  -27.1210 C.ar   65  TRP65       0.0152
     82  NE1       13.0860   15.6590  -28.3980 N.ar   65  TRP65      -0.2442
     83  CE2       13.7890   16.8260  -28.2760 C.ar   65  TRP65       0.0810
     84  CE3       15.4190   17.7840  -26.7760 C.ar   65  TRP65       0.0012
     85  CZ2       13.7980   17.9590  -29.0870 C.ar   65  TRP65       0.0191
     86  CZ3       15.4140   18.9110  -27.5700 C.ar   65  TRP65       0.0001
     87  CH2       14.6110   18.9870  -28.7190 C.ar   65  TRP65       0.0015
     88  N         -1.9570    9.5600  -40.6670 N.3   155  ALA155     -0.1245
     89  CA        -2.9840    9.5260  -39.5930 C.3   155  ALA155      0.1562
     90  C         -3.1350   10.9130  -38.9440 C.2   155  ALA155      0.2260
     91  O         -2.8560   11.0960  -37.7500 O.2   155  ALA155     -0.2867
     92  CB        -2.6090    8.4970  -38.5290 C.3   155  ALA155      0.0290
     93  N         -3.6290   12.5960  -35.2740 N.3   158  ASP158     -0.1239
     94  CA        -2.4310   12.7340  -34.4300 C.3   158  ASP158      0.1674
     95  C         -1.4570   13.7390  -35.0630 C.2   158  ASP158      0.2266
     96  O         -0.9920   13.5320  -36.1890 O.2   158  ASP158     -0.2867
     97  CB        -1.7840   11.3560  -34.2780 C.3   158  ASP158      0.1410
     98  CG        -0.4590   11.3830  -33.5400 C.2   158  ASP158      0.3668
     99  OD1        0.5780   11.7030  -34.1750 O.co2 158  ASP158     -0.2456
    100  OD2       -0.4350   11.0090  -32.3430 O.co2 158  ASP158     -0.2456
    101  N          1.6610   14.4930  -34.2940 N.3   160  GLY160     -0.1210
    102  CA         3.0030   13.9470  -34.4840 C.3   160  GLY160      0.1956
    103  C          3.2150   13.2070  -35.7970 C.2   160  GLY160      0.2611
    104  O          4.3050   13.2580  -36.3670 O.2   160  GLY160     -0.2717
    105  N          2.1780   12.5330  -36.2870 N.am  161  ALA161     -0.1979
    106  CA         2.2600   11.8540  -37.5820 C.3   161  ALA161      0.1597
    107  C          2.3690   12.8740  -38.7150 C.2   161  ALA161      0.2287
    108  O          2.8730   12.5720  -39.7910 O.2   161  ALA161     -0.2864
    109  CB         1.0770   10.9470  -37.7780 C.3   161  ALA161      0.0319
    110  N          6.1320   14.5450  -38.0550 N.3   164  GLN164     -0.1245
    111  CA         7.0850   13.5480  -38.5830 C.3   164  GLN164      0.1566
    112  C          7.5770   13.8330  -40.0000 C.2   164  GLN164      0.2260
    113  O          8.7370   13.6610  -40.3060 O.2   164  GLN164     -0.2867
    114  CB         6.4270   12.1730  -38.5780 C.3   164  GLN164      0.0367
    115  CG         7.3880   11.0030  -38.7330 C.3   164  GLN164      0.0905
    116  CD         8.3310   10.8080  -37.5510 C.2   164  GLN164      0.2608
    117  OE1        7.9570   10.9550  -36.3740 O.2   164  GLN164     -0.2717
    118  NE2        9.5640   10.4510  -37.8610 N.am  164  GLN164     -0.0878
    119  N          9.6570   17.0100  -40.0630 N.3   167  ASP167     -0.1239
    120  CA        10.8590   16.7770  -39.2530 C.3   167  ASP167      0.1674
    121  C         11.8980   15.9920  -40.0920 C.2   167  ASP167      0.2266
    122  O         13.0410   16.4400  -40.2560 O.2   167  ASP167     -0.2867
    123  CB        10.4600   16.0510  -37.9530 C.3   167  ASP167      0.1410
    124  CG        11.4820   16.2100  -36.8140 C.2   167  ASP167      0.3668
    125  OD1       12.3810   17.0730  -36.8940 O.co2 167  ASP167     -0.2456
    126  OD2       11.3620   15.4450  -35.8250 O.co2 167  ASP167     -0.2456
    127  N         -3.9720    6.5450  -36.3120 N.3   221  PRO221     -0.2116
    128  CA        -2.9890    5.4670  -36.4520 C.3   221  PRO221      0.1372
    129  C         -3.5750    4.0610  -36.4790 C.2   221  PRO221      0.2244
    130  O         -3.0760    3.2070  -37.2180 O.2   221  PRO221     -0.2868
    131  CB        -2.0990    5.6520  -35.2210 C.3   221  PRO221      0.0268
    132  CG        -2.1660    7.1130  -34.9630 C.3   221  PRO221      0.0207
    133  CD        -3.6090    7.4570  -35.2140 C.3   221  PRO221      0.0892
    134  N          8.4240    5.2390  -39.2650 N.3   239  VAL239     -0.1231
    135  CA         8.1950    5.2310  -37.8240 C.3   239  VAL239      0.1692
    136  C          6.8700    4.5310  -37.4260 C.2   239  VAL239      0.2592
    137  O          6.7800    3.9060  -36.3630 O.2   239  VAL239     -0.2718
    138  CB         8.3210    6.6620  -37.2320 C.3   239  VAL239      0.0266
    139  CG1        7.1380    7.5490  -37.6110 C.3   239  VAL239      0.0020
    140  CG2        8.4980    6.6000  -35.7240 C.3   239  VAL239      0.0020
    141  N          5.8650    4.5590  -38.2970 N.am  240  THR240     -0.1953
    142  CA         4.6020    3.8620  -38.0210 C.3   240  THR240      0.1897
    143  C          4.7750    2.3790  -37.6380 C.2   240  THR240      0.2313
    144  O          3.9430    1.8240  -36.9220 O.2   240  THR240     -0.2863
    145  CB         3.6070    3.9830  -39.1920 C.3   240  THR240      0.1794
    146  OG1        4.1580    3.3990  -40.3770 O.3   240  THR240     -0.2208
    147  CG2        3.2800    5.4490  -39.4580 C.3   240  THR240      0.0378
    148  N         14.7860    6.0720  -29.8740 N.3   276  ARG276     -0.1231
    149  CA        13.3430    5.9440  -30.1410 C.3   276  ARG276      0.1694
    150  C         12.6430    5.7300  -28.8040 C.2   276  ARG276      0.2592
    151  O         12.0590    6.6770  -28.2510 O.2   276  ARG276     -0.2718
    152  CB        13.0370    4.8460  -31.1760 C.3   276  ARG276      0.0321
    153  CG        11.5570    4.5470  -31.3690 C.3   276  ARG276      0.0489
    154  CD        10.7490    5.7680  -31.7260 C.3   276  ARG276      0.2205
    155  NE        11.2120    6.5060  -32.9150 N.pl3 276  ARG276     -0.0865
    156  CZ        10.9610    7.8030  -33.1570 C.cat 276  ARG276      0.5346
    157  NH1       10.2610    8.5410  -32.2980 N.pl3 276  ARG276      0.1354
    158  NH2       11.4100    8.3810  -34.2720 N.pl3 276  ARG276      0.1354
    159  N         12.7350    4.5150  -28.2640 N.am  277  HIS277     -0.1976
    160  CA        12.1530    4.2020  -26.9680 C.3   277  HIS277      0.1656
    161  C         13.2840    3.9580  -26.0290 C.2   277  HIS277      0.2291
    162  O         14.1710    3.1600  -26.3290 O.2   277  HIS277     -0.2864
    163  CB        11.2380    2.9730  -27.0390 C.3   277  HIS277      0.0771
    164  CG        10.0460    3.1810  -27.9100 C.ar  277  HIS277      0.0820
    165  ND1        9.5820    2.2320  -28.7990 N.ar  277  HIS277     -0.2267
    166  CD2        9.2430    4.2600  -28.0580 C.ar  277  HIS277      0.1154
    167  CE1        8.5320    2.7130  -29.4420 C.ar  277  HIS277      0.1986
    168  NE2        8.3140    3.9460  -29.0200 N.ar  277  HIS277     -0.2212
    169  N         11.8270   -1.5070  -35.6600 N.3   313  PHE313     -0.1241
    170  CA        12.9540   -0.6390  -35.3570 C.3   313  PHE313      0.1605
    171  C         14.2260   -1.4320  -35.0700 C.2   313  PHE313      0.2264
    172  O         14.2020   -2.4180  -34.3260 O.2   313  PHE313     -0.2867
    173  CB        12.6800    0.2430  -34.1250 C.3   313  PHE313      0.0534
    174  CG        11.4370    1.0870  -34.2240 C.ar  313  PHE313     -0.0203
    175  CD1       11.1190    1.7600  -35.3880 C.ar  313  PHE313     -0.0042
    176  CD2       10.6050    1.2330  -33.1240 C.ar  313  PHE313     -0.0042
    177  CE1        9.9780    2.5470  -35.4620 C.ar  313  PHE313     -0.0003
    178  CE2        9.4610    2.0070  -33.1970 C.ar  313  PHE313     -0.0003
    179  CZ         9.1510    2.6680  -34.3710 C.ar  313  PHE313     -0.0000
    180  N         17.6030   13.4180  -35.8850 N.3   341  TYR341     -0.1241
    181  CA        16.4040   14.2140  -36.1050 C.3   341  TYR341      0.1605
    182  C         16.6800   15.7090  -36.0020 C.2   341  TYR341      0.2264
    183  O         17.3050   16.1720  -35.0540 O.2   341  TYR341     -0.2867
    184  CB        15.2970   13.8290  -35.1320 C.3   341  TYR341      0.0534
    185  CG        14.4410   12.7030  -35.6360 C.ar  341  TYR341     -0.0201
    186  CD1       13.4670   12.9280  -36.5980 C.ar  341  TYR341     -0.0009
    187  CD2       14.6290   11.4050  -35.1770 C.ar  341  TYR341     -0.0009
    188  CE1       12.6890   11.8920  -37.0710 C.ar  341  TYR341      0.0417
    189  CE2       13.8610   10.3680  -35.6460 C.ar  341  TYR341      0.0417
    190  CZ        12.8960   10.6210  -36.5890 C.ar  341  TYR341      0.1957
    191  OH        12.1350    9.5920  -37.0300 O.3   341  TYR341     -0.2866
    192  N         14.7230   18.2310  -35.3190 N.3   343  ASP343     -0.1225
    193  CA        14.1470   18.9510  -34.1780 C.3   343  ASP343      0.1805
    194  C         14.8000   18.5720  -32.8490 C.2   343  ASP343      0.2597
    195  O         14.7220   19.3100  -31.8930 O.2   343  ASP343     -0.2718
    196  CB        12.6490   18.7150  -34.0900 C.3   343  ASP343      0.1424
    197  CG        12.3130   17.3750  -33.4640 C.2   343  ASP343      0.3668
    198  OD1       12.8490   16.3440  -33.9230 O.co2 343  ASP343     -0.2456
    199  OD2       11.5460   17.3610  -32.4830 O.co2 343  ASP343     -0.2456
    200  N         15.4680   17.4310  -32.7920 N.am  344  ARG344     -0.1979
    201  CA        16.1580   17.0550  -31.5770 C.3   344  ARG344      0.1597
    202  C         17.4830   17.7910  -31.3250 C.2   344  ARG344      0.2287
    203  O         17.8990   17.9280  -30.1710 O.2   344  ARG344     -0.2864
    204  CB        16.4120   15.5760  -31.5730 C.3   344  ARG344      0.0334
    205  CG        15.1660   14.7430  -31.6580 C.3   344  ARG344      0.0492
    206  CD        15.5270   13.2850  -31.5290 C.3   344  ARG344      0.2205
    207  NE        14.3620   12.4320  -31.7090 N.pl3 344  ARG344     -0.0865
    208  CZ        14.4200   11.1130  -31.7230 C.cat 344  ARG344      0.5346
    209  NH1       15.5960   10.4850  -31.5760 N.pl3 344  ARG344      0.1354
    210  NH2       13.3140   10.4160  -31.8890 N.pl3 344  ARG344      0.1354
    211  N          8.4810   20.6700  -31.8750 N.3   352  TRP352     -0.1241
    212  CA         7.8050   19.5050  -32.3950 C.3   352  TRP352      0.1605
    213  C          6.2920   19.7320  -32.4150 C.2   352  TRP352      0.2264
    214  O          5.6370   19.5940  -33.4500 O.2   352  TRP352     -0.2867
    215  CB         8.1670   18.3080  -31.5400 C.3   352  TRP352      0.0550
    216  CG         7.3560   17.0950  -31.7980 C.ar  352  TRP352      0.0003
    217  CD1        6.3380   16.6140  -31.0300 C.ar  352  TRP352      0.0946
    218  CD2        7.5040   16.1820  -32.8880 C.ar  352  TRP352      0.0152
    219  NE1        5.8370   15.4640  -31.5760 N.ar  352  TRP352     -0.2442
    220  CE2        6.5290   15.1800  -32.7250 C.ar  352  TRP352      0.0810
    221  CE3        8.3520   16.1280  -34.0050 C.ar  352  TRP352      0.0012
    222  CZ2        6.3900   14.1140  -33.6230 C.ar  352  TRP352      0.0191
    223  CZ3        8.2060   15.0680  -34.9060 C.ar  352  TRP352      0.0001
    224  CH2        7.2510   14.0720  -34.6980 C.ar  352  TRP352      0.0015
@<TRIPOS>BOND
     1    88    89    1
     2   146   145    1
     3   113   112    2
     4   122   121    2
     5   121   120    1
     6   119   120    1
     7   112   111    1
     8   108   107    2
     9    89    90    1
    10    89    92    1
    11   147   145    1
    12   134   135    1
    13   120   123    1
    14   145   142    1
    15    90    91    2
    16   115   114    1
    17   115   116    1
    18   107   106    1
    19   111   114    1
    20   111   110    1
    21   141   142    1
    22   141   136   am
    23   142   143    1
    24   123   124    1
    25   118   116   am
    26   135   136    1
    27   135   138    1
    28   109   106    1
    29   143   144    2
    30   139   138    1
    31   106   105    1
    32   116   117    2
    33   136   137    2
    34   138   140    1
    35   130   129    2
    36   188   186   ar
    37   188   190   ar
    38   191   190    1
    39   125   124   ar
    40   124   126   ar
    41   186   185   ar
    42   190   189   ar
    43   129   128    1
    44   128   127    1
    45   128   131    1
    46   104   103    2
    47   127   133    1
    48   105   103   am
    49    96    95    2
    50   181   182    1
    51   181   180    1
    52   181   184    1
    53   182   183    2
    54   103   102    1
    55   169   170    1
    56   189   187   ar
    57   185   187   ar
    58   185   184    1
    59   177   175   ar
    60   177   179   ar
    61   175   174   ar
    62   170   171    1
    63   170   173    1
    64   192   193    1
    65    93    94    1
    66   131   132    1
    67   133   132    1
    68   171   172    2
    69    95    94    1
    70   223   224   ar
    71   223   221   ar
    72   224   222   ar
    73   102   101    1
    74    94    97    1
    75   179   178   ar
    76    97    98    1
    77   158   156    1
    78   174   173    1
    79   174   176   ar
    80   193   196    1
    81   193   194    1
    82    99    98   ar
    83   196   197    1
    84   221   218   ar
    85   198   197   ar
    86   222   220   ar
    87    98   100   ar
    88   197   199   ar
    89   214   213    2
    90   178   176   ar
    91    22    20   am
    92   156   155    2
    93   156   157    1
    94   155   154    1
    95   218   220   ar
    96   218   216   ar
    97    21    20    2
    98   194   200   am
    99   194   195    2
   100   200   201    1
   101   220   219   ar
   102    20    19    1
   103   213   212    1
   104   212   211    1
   105   212   215    1
   106   210   208    1
   107   216   215    1
   108   216   217   ar
   109   154   153    1
   110   208   207    2
   111   208   209    1
   112   207   206    1
   113   205   204    1
   114   205   206    1
   115    19    16    1
   116   201   204    1
   117   201   202    1
   118   219   217   ar
   119   153   152    1
   120   202   203    2
   121   152   149    1
   122    13    12    1
   123    16    15    1
   124    16    17    1
   125   149   148    1
   126   149   150    1
   127    15    10   am
   128    31    29   ar
   129    30    29   ar
   130    11    10    2
   131    12    14    1
   132    12     9    1
   133    17    18    2
   134    29    28    1
   135    10     9    1
   136   167   168   ar
   137   167   165   ar
   138    85    87   ar
   139    85    83   ar
   140   168   166   ar
   141    28    27    1
   142    23    24    1
   143     9     8    1
   144    27    24    1
   145   150   159   am
   146   150   151    2
   147   165   164   ar
   148    87    86   ar
   149    40    41    1
   150    40    37    1
   151    82    83   ar
   152    82    80   ar
   153    83    81   ar
   154   159   160    1
   155    67    66    2
   156    63    61   ar
   157    24    25    1
   158   166   164   ar
   159    41    42    1
   160   164   163    1
   161    37    36    1
   162    37    38    1
   163    42    36    1
   164    86    84   ar
   165    66    65    1
   166     4     3    2
   167    80    79   ar
   168    36    34   am
   169    81    84   ar
   170    81    79   ar
   171    61    62   ar
   172    61    60    1
   173   163   160    1
   174    39    38    2
   175   160   161    1
   176    25    26    2
   177    34    33    1
   178    34    35    2
   179    65    68    1
   180    65    64    1
   181    79    78    1
   182    68    69    1
   183     6     5    1
   184    70    69   ar
   185    70    72   ar
   186     3     2    1
   187   162   161    2
   188    74    75    1
   189    33    32    1
   190     5     7    1
   191     5     2    1
   192    60    59    1
   193    69    71   ar
   194    72    73   ar
   195    75    78    1
   196    75    76    1
   197     2     1    1
   198    59    56    1
   199    71    73   ar
   200    76    77    2
   201    47    44    1
   202    47    48    1
   203    43    44    1
   204    55    56    1
   205    55    45   am
   206    56    57    1
   207    44    45    1
   208    48    49   ar
   209    48    50   ar
   210    49    51   ar
   211    45    46    2
   212    57    58    2
   213    50    52   ar
   214    51    53   ar
   215    52    53   ar
   216    53    54    1
