@<TRIPOS>MOLECULE
tmp/4rkaA02.pdb
 196 187 0 0 0
SMALL
GASTEIGER

@<TRIPOS>ATOM
      1  N         -5.5870   23.8730   -7.5050 N.3     7  TYR7       -0.1241
      2  CA        -5.3760   25.2870   -7.2030 C.3     7  TYR7        0.1605
      3  C         -4.0980   25.8390   -7.8330 C.2     7  TYR7        0.2264
      4  O         -4.1150   26.8850   -8.4820 O.2     7  TYR7       -0.2867
      5  CB        -5.3340   25.5240   -5.7080 C.3     7  TYR7        0.0534
      6  CG        -6.6730   25.6470   -5.0020 C.ar    7  TYR7       -0.0201
      7  CD1       -7.4500   24.5210   -4.7350 C.ar    7  TYR7       -0.0009
      8  CD2       -7.1320   26.8930   -4.5510 C.ar    7  TYR7       -0.0009
      9  CE1       -8.6410   24.6280   -4.0390 C.ar    7  TYR7        0.0417
     10  CE2       -8.3300   27.0120   -3.8670 C.ar    7  TYR7        0.0417
     11  CZ        -9.0690   25.8770   -3.6100 C.ar    7  TYR7        0.1957
     12  OH       -10.2340   25.9820   -2.9220 O.3     7  TYR7       -0.2866
     13  N         -7.1180   26.9420  -10.6660 N.3    11  LEU11      -0.1231
     14  CA        -7.8740   28.0100   -9.9510 C.3    11  LEU11       0.1693
     15  C         -7.0550   29.2930   -9.7470 C.2    11  LEU11       0.2591
     16  O         -7.5480   30.4070  -10.0230 O.2    11  LEU11      -0.2718
     17  CB        -8.4260   27.4930   -8.5960 C.3    11  LEU11       0.0284
     18  CG        -9.4000   28.3120   -7.7110 C.3    11  LEU11       0.0019
     19  CD1      -10.2240   29.3700   -8.4430 C.3    11  LEU11       0.0001
     20  CD2      -10.3380   27.3710   -6.9650 C.3    11  LEU11       0.0001
     21  N         -5.8090   29.1320   -9.2910 N.am   12  MET12      -0.1979
     22  CA        -4.9840   30.2830   -8.9100 C.3    12  MET12       0.1605
     23  C         -4.5500   31.1140  -10.1130 C.2    12  MET12       0.2287
     24  O         -4.7260   32.3310  -10.0630 O.2    12  MET12      -0.2864
     25  CB        -3.7650   29.9070   -8.0320 C.3    12  MET12       0.0413
     26  CG        -4.0940   29.4190   -6.6240 C.3    12  MET12       0.0598
     27  SD        -5.2930   30.4090   -5.7120 S.3    12  MET12      -0.1393
     28  CE        -4.2040   31.7770   -5.3340 C.3    12  MET12       0.0692
     29  N         -7.6640   33.1110  -11.2210 N.3    15  LEU15      -0.1231
     30  CA        -7.9950   34.2240  -10.3240 C.3    15  LEU15       0.1693
     31  C         -7.0350   35.3990  -10.5480 C.2    15  LEU15       0.2591
     32  O         -7.4620   36.5570  -10.6060 O.2    15  LEU15      -0.2718
     33  CB        -7.9380   33.7480   -8.8740 C.3    15  LEU15       0.0284
     34  CG        -8.2970   34.7670   -7.7830 C.3    15  LEU15       0.0019
     35  CD1       -8.7140   34.0830   -6.4820 C.3    15  LEU15       0.0001
     36  CD2       -7.1470   35.7190   -7.5140 C.3    15  LEU15       0.0001
     37  N         -5.7460   35.0810  -10.6890 N.am   16  GLN16      -0.1979
     38  CA        -4.7080   36.0740  -11.0060 C.3    16  GLN16       0.1601
     39  C         -4.9640   36.7790  -12.3430 C.2    16  GLN16       0.2287
     40  O         -4.7800   37.9820  -12.4490 O.2    16  GLN16      -0.2864
     41  CB        -3.2980   35.4440  -11.0030 C.3    16  GLN16       0.0394
     42  CG        -2.8580   34.8820   -9.6440 C.3    16  GLN16       0.0908
     43  CD        -1.3580   34.9940   -9.3560 C.2    16  GLN16       0.2608
     44  OE1       -0.9620   35.2340   -8.2000 O.2    16  GLN16      -0.2717
     45  NE2       -0.5190   34.8280  -10.3930 N.am   16  GLN16      -0.0878
     46  N         -4.1980   42.2600   -7.5020 N.3    21  PRO21      -0.2116
     47  CA        -3.8000   41.7030   -6.1810 C.3    21  PRO21       0.1372
     48  C         -4.6230   42.1890   -4.9850 C.2    21  PRO21       0.2244
     49  O         -5.0600   41.3760   -4.1870 O.2    21  PRO21      -0.2868
     50  CB        -2.3450   42.1560   -6.0100 C.3    21  PRO21       0.0268
     51  CG        -1.8990   42.5910   -7.3750 C.3    21  PRO21       0.0207
     52  CD        -3.1140   43.0480   -8.1200 C.3    21  PRO21       0.0892
     53  N         -8.0380   40.7670   -5.2080 N.3    24  ALA24      -0.1231
     54  CA        -7.9460   39.3230   -4.9290 C.3    24  ALA24       0.1694
     55  C         -7.8820   39.0730   -3.4340 C.2    24  ALA24       0.2592
     56  O         -8.5000   38.1920   -2.9100 O.2    24  ALA24      -0.2718
     57  CB        -6.7410   38.7240   -5.6160 C.3    24  ALA24       0.0304
     58  N         -7.1290   39.8970   -2.7440 N.am   25  HIS25      -0.1976
     59  CA        -7.0520   39.7990   -1.3240 C.3    25  HIS25       0.1656
     60  C         -8.3780   40.0770   -0.5940 C.2    25  HIS25       0.2291
     61  O         -8.7100   39.4050    0.3770 O.2    25  HIS25      -0.2864
     62  CB        -6.0640   40.8430   -0.8580 C.3    25  HIS25       0.0771
     63  CG        -5.8120   40.7950    0.5960 C.ar   25  HIS25       0.0820
     64  ND1       -5.6380   41.9190    1.3470 N.ar   25  HIS25      -0.2267
     65  CD2       -5.6800   39.7550    1.4410 C.ar   25  HIS25       0.1154
     66  CE1       -5.4030   41.5830    2.6010 C.ar   25  HIS25       0.1986
     67  NE2       -5.4400   40.2720    2.6870 N.ar   25  HIS25      -0.2212
     68  N        -10.5930   36.9130   -1.1190 N.3    28  ALA28      -0.1245
     69  CA       -10.0830   35.8520   -0.2780 C.3    28  ALA28       0.1562
     70  C        -10.4380   36.0370    1.1910 C.2    28  ALA28       0.2260
     71  O        -10.7700   35.0620    1.8690 O.2    28  ALA28      -0.2867
     72  CB        -8.5820   35.7600   -0.4330 C.3    28  ALA28       0.0290
     73  N        -14.1580   35.4780    1.3520 N.3    31  PHE31      -0.1227
     74  CA       -14.4790   34.0530    1.2160 C.3    31  PHE31       0.1736
     75  C        -14.1300   33.2860    2.4750 C.2    31  PHE31       0.2596
     76  O        -14.8840   32.4060    2.9160 O.2    31  PHE31      -0.2718
     77  CB       -13.7520   33.3850    0.0570 C.3    31  PHE31       0.0547
     78  CG       -14.5930   33.1520   -1.1690 C.ar   31  PHE31      -0.0202
     79  CD1      -15.1590   34.2210   -1.8610 C.ar   31  PHE31      -0.0042
     80  CD2      -14.7660   31.8460   -1.6720 C.ar   31  PHE31      -0.0042
     81  CE1      -15.9030   34.0070   -3.0190 C.ar   31  PHE31      -0.0003
     82  CE2      -15.5180   31.6200   -2.8290 C.ar   31  PHE31      -0.0003
     83  CZ       -16.0900   32.7080   -3.5010 C.ar   31  PHE31      -0.0000
     84  N        -12.9780   33.6360    3.0490 N.am   32  THR32      -0.1953
     85  CA       -12.4740   32.9830    4.2530 C.3    32  THR32       0.1897
     86  C        -13.3170   33.3640    5.4510 C.2    32  THR32       0.2313
     87  O        -13.5890   32.5320    6.2850 O.2    32  THR32      -0.2863
     88  CB       -11.0020   33.3670    4.5110 C.3    32  THR32       0.1794
     89  OG1      -10.2490   33.1860    3.3200 O.3    32  THR32      -0.2208
     90  CG2      -10.3800   32.5340    5.5830 C.3    32  THR32       0.0378
     91  N        -16.4010   29.6530    3.2550 N.3    36  LEU36      -0.1231
     92  CA       -16.2380   29.0710    1.9250 C.3    36  LEU36       0.1693
     93  C        -14.8380   28.5300    1.6270 C.2    36  LEU36       0.2591
     94  O        -14.0180   29.2060    1.0050 O.2    36  LEU36      -0.2718
     95  CB       -16.6410   30.0850    0.8510 C.3    36  LEU36       0.0284
     96  CG       -17.9330   30.8640    1.1050 C.3    36  LEU36       0.0019
     97  CD1      -18.2860   31.7270   -0.0970 C.3    36  LEU36       0.0001
     98  CD2      -19.0740   29.9180    1.4440 C.3    36  LEU36       0.0001
     99  N        -14.5830   27.3020    2.0650 N.am   37  LEU37      -0.1980
    100  CA       -13.3920   26.5590    1.6820 C.3    37  LEU37       0.1596
    101  C        -13.7910   25.0870    1.7410 C.2    37  LEU37       0.2287
    102  O        -14.9240   24.7660    2.1210 O.2    37  LEU37      -0.2864
    103  CB       -12.2420   26.8180    2.6630 C.3    37  LEU37       0.0297
    104  CG       -11.9800   28.2410    3.1690 C.3    37  LEU37       0.0022
    105  CD1      -12.2480   28.4500    4.6610 C.3    37  LEU37       0.0001
    106  CD2      -10.5410   28.5640    2.8890 C.3    37  LEU37       0.0001
    107  N         -2.6200   39.4870    6.3130 N.3    67  PHE67      -0.1241
    108  CA        -3.6360   38.8790    5.5230 C.3    67  PHE67       0.1605
    109  C         -4.9450   39.3350    6.1090 C.2    67  PHE67       0.2264
    110  O         -5.7400   39.9460    5.4210 O.2    67  PHE67      -0.2867
    111  CB        -3.5730   37.3390    5.4810 C.3    67  PHE67       0.0534
    112  CG        -4.6960   36.7300    4.7060 C.ar   67  PHE67      -0.0203
    113  CD1       -4.7420   36.8490    3.3360 C.ar   67  PHE67      -0.0042
    114  CD2       -5.7580   36.1210    5.3460 C.ar   67  PHE67      -0.0042
    115  CE1       -5.8220   36.3280    2.6200 C.ar   67  PHE67      -0.0003
    116  CE2       -6.8300   35.5770    4.6410 C.ar   67  PHE67      -0.0003
    117  CZ        -6.8510   35.6770    3.2790 C.ar   67  PHE67      -0.0000
    118  N         -8.8920   26.7640    7.8850 N.3    80  MET80      -0.1245
    119  CA        -8.0430   26.5480    6.7450 C.3    80  MET80       0.1570
    120  C         -6.8660   25.6690    7.1130 C.2    80  MET80       0.2261
    121  O         -6.1880   25.1680    6.2120 O.2    80  MET80      -0.2867
    122  CB        -7.5700   27.8950    6.2320 C.3    80  MET80       0.0387
    123  CG        -7.1020   27.8980    4.8100 C.3    80  MET80       0.0595
    124  SD        -6.5350   29.5160    4.3370 S.3    80  MET80      -0.1393
    125  CE        -8.0950   30.3430    4.1350 C.3    80  MET80       0.0692
    126  N         -0.0440   47.1210   -4.0860 N.3   103  VAL103     -0.1245
    127  CA         0.4480   45.7830   -3.9290 C.3   103  VAL103      0.1561
    128  C          0.6480   45.1320   -5.2970 C.2   103  VAL103      0.2260
    129  O         -0.0700   45.4130   -6.2260 O.2   103  VAL103     -0.2867
    130  CB        -0.4470   44.9810   -2.9650 C.3   103  VAL103      0.0252
    131  CG1       -1.8700   45.1260   -3.3130 C.3   103  VAL103      0.0019
    132  CG2       -0.0580   43.5140   -2.9700 C.3   103  VAL103      0.0019
    133  N          2.2780   41.7560   -7.7510 N.3   105  ARG105     -0.1245
    134  CA         2.6920   40.4060   -7.9850 C.3   105  ARG105      0.1563
    135  C          3.9790   40.4000   -8.7890 C.2   105  ARG105      0.2260
    136  O          4.0980   41.1350   -9.7530 O.2   105  ARG105     -0.2867
    137  CB         1.5930   39.6490   -8.7470 C.3   105  ARG105      0.0307
    138  CG         0.3630   39.4440   -7.9140 C.3   105  ARG105      0.0489
    139  CD        -0.5540   38.3630   -8.4730 C.3   105  ARG105      0.2205
    140  NE        -1.6990   38.9720   -9.1710 N.pl3 105  ARG105     -0.0865
    141  CZ        -2.9870   38.8570   -8.8380 C.cat 105  ARG105      0.5346
    142  NH1       -3.4150   38.1160   -7.8060 N.pl3 105  ARG105      0.1354
    143  NH2       -3.8930   39.4950   -9.5600 N.pl3 105  ARG105      0.1354
    144  N          6.0080   39.0360   -3.7440 N.3   112  VAL112     -0.1245
    145  CA         5.0550   40.1060   -3.6990 C.3   112  VAL112      0.1561
    146  C          5.7930   41.3040   -3.1280 C.2   112  VAL112      0.2260
    147  O          6.6760   41.1700   -2.2810 O.2   112  VAL112     -0.2867
    148  CB         3.7900   39.7190   -2.8710 C.3   112  VAL112      0.0252
    149  CG1        2.9080   40.9120   -2.5920 C.3   112  VAL112      0.0019
    150  CG2        2.9680   38.6860   -3.6010 C.3   112  VAL112      0.0019
    151  N          1.1470   48.9840    1.5940 N.3   116  TYR116     -0.1241
    152  CA        -0.1850   49.3660    2.0450 C.3   116  TYR116      0.1605
    153  C         -0.2080   50.5380    2.9860 C.2   116  TYR116      0.2264
    154  O         -1.0980   51.3490    2.9230 O.2   116  TYR116     -0.2867
    155  CB        -0.8130   48.2350    2.7860 C.3   116  TYR116      0.0534
    156  CG        -1.5980   47.2750    1.9660 C.ar  116  TYR116     -0.0201
    157  CD1       -2.9120   47.5350    1.6380 C.ar  116  TYR116     -0.0009
    158  CD2       -1.0660   46.0420    1.6030 C.ar  116  TYR116     -0.0009
    159  CE1       -3.6790   46.6110    0.9280 C.ar  116  TYR116      0.0417
    160  CE2       -1.8320   45.1180    0.9160 C.ar  116  TYR116      0.0417
    161  CZ        -3.1440   45.4110    0.5980 C.ar  116  TYR116      0.1957
    162  OH        -3.8730   44.5050   -0.1210 O.3   116  TYR116     -0.2866
    163  N          2.5100   33.8340    4.3920 N.3   325  TYR325     -0.1241
    164  CA         1.5770   34.8370    3.8970 C.3   325  TYR325      0.1605
    165  C          1.5840   34.8730    2.3680 C.2   325  TYR325      0.2264
    166  O          0.5390   34.7130    1.7370 O.2   325  TYR325     -0.2867
    167  CB         1.9240   36.2170    4.4590 C.3   325  TYR325      0.0534
    168  CG         0.9260   37.2950    4.1000 C.ar  325  TYR325     -0.0201
    169  CD1       -0.1770   37.0120    3.3050 C.ar  325  TYR325     -0.0009
    170  CD2        1.0860   38.5960    4.5570 C.ar  325  TYR325     -0.0009
    171  CE1       -1.0910   37.9940    2.9750 C.ar  325  TYR325      0.0417
    172  CE2        0.1770   39.5850    4.2320 C.ar  325  TYR325      0.0417
    173  CZ        -0.9100   39.2780    3.4420 C.ar  325  TYR325      0.1957
    174  OH        -1.8180   40.2590    3.1160 O.3   325  TYR325     -0.2866
    175  N          0.3940   31.5400    0.1750 N.3   328  LEU328     -0.1231
    176  CA        -1.0720   31.4160    0.0770 C.3   328  LEU328      0.1693
    177  C         -1.6060   32.1720   -1.1090 C.2   328  LEU328      0.2592
    178  O         -2.5280   31.7370   -1.7440 O.2   328  LEU328     -0.2718
    179  CB        -1.7060   31.9890    1.3440 C.3   328  LEU328      0.0284
    180  CG        -3.1420   31.7090    1.7160 C.3   328  LEU328      0.0019
    181  CD1       -3.3660   30.2410    2.0210 C.3   328  LEU328      0.0001
    182  CD2       -3.4450   32.5490    2.9530 C.3   328  LEU328      0.0001
    183  N         -0.9870   33.2890   -1.4380 N.am  329  THR329     -0.1953
    184  CA        -1.3760   34.0150   -2.6350 C.3   329  THR329      0.1897
    185  C         -0.9770   33.3010   -3.9270 C.2   329  THR329      0.2313
    186  O         -1.6580   33.4520   -4.9250 O.2   329  THR329     -0.2863
    187  CB        -0.8870   35.4750   -2.6210 C.3   329  THR329      0.1794
    188  OG1        0.4800   35.5490   -2.9830 O.3   329  THR329     -0.2208
    189  CG2       -1.0830   36.0830   -1.2110 C.3   329  THR329      0.0378
    190  N         -5.1890   27.9290   -0.3770 N.3   333  PRO333     -0.2116
    191  CA        -5.2980   27.1840    0.8690 C.3   333  PRO333      0.1372
    192  C         -4.6810   25.7880    0.8930 C.2   333  PRO333      0.2244
    193  O         -4.3290   25.3370    1.9530 O.2   333  PRO333     -0.2868
    194  CB        -6.8130   27.0470    1.0640 C.3   333  PRO333      0.0268
    195  CG        -7.4030   28.2180    0.3820 C.3   333  PRO333      0.0207
    196  CD        -6.4810   28.5230   -0.7730 C.3   333  PRO333      0.0892
@<TRIPOS>BOND
     1    40    39    2
     2    39    38    1
     3    29    30    1
     4    38    41    1
     5    38    37    1
     6    41    42    1
     7    37    31   am
     8    13    14    1
     9    32    31    2
    10    31    30    1
    11    45    43   am
    12    30    33    1
    13    23    24    2
    14    23    22    1
    15    16    15    2
    16    14    15    1
    17    14    17    1
    18   136   135    2
    19    15    21   am
    20    42    43    1
    21   143   141    1
    22    43    44    2
    23    21    22    1
    24   140   141    2
    25   140   139    1
    26    22    25    1
    27    33    34    1
    28   141   142    1
    29   135   134    1
    30   137   134    1
    31   137   138    1
    32    17    18    1
    33     4     3    2
    34   139   138    1
    35    19    18    1
    36    52    46    1
    37    52    51    1
    38    25    26    1
    39   134   133    1
    40     3     2    1
    41    34    36    1
    42    34    35    1
    43    18    20    1
    44     1     2    1
    45    46    47    1
    46    51    50    1
    47     2     5    1
    48    26    27    1
    49   129   128    2
    50    47    50    1
    51    47    48    1
    52    27    28    1
    53     5     6    1
    54    57    54    1
    55   128   127    1
    56    53    54    1
    57     6     7   ar
    58     6     8   ar
    59    48    49    2
    60    54    55    1
    61   186   185    2
    62     7     9   ar
    63     8    10   ar
    64   126   127    1
    65     9    11   ar
    66   127   130    1
    67   185   184    1
    68    10    11   ar
    69   144   145    1
    70   145   146    1
    71   145   148    1
    72    11    12    1
    73   150   148    1
    74    83    81   ar
    75    83    82   ar
    76    55    56    2
    77    55    58   am
    78   131   130    1
    79   146   147    2
    80    81    79   ar
    81   188   187    1
    82   132   130    1
    83   148   149    1
    84    82    80   ar
    85    58    59    1
    86   184   187    1
    87   184   183    1
    88   187   189    1
    89    79    78   ar
    90   178   177    2
    91    80    78   ar
    92   183   177   am
    93    59    62    1
    94    59    60    1
    95    78    77    1
    96    68    69    1
    97   177   176    1
    98    62    63    1
    99   196   190    1
   100   196   195    1
   101    60    61    2
   102    72    69    1
   103   190   191    1
   104    69    70    1
   105   162   161    1
   106    97    96    1
   107    77    74    1
   108   176   175    1
   109   176   179    1
   110   195   194    1
   111    63    64   ar
   112    63    65   ar
   113   161   160   ar
   114   161   159   ar
   115    95    96    1
   116    95    92    1
   117   191   192    1
   118   191   194    1
   119   192   193    2
   120   160   158   ar
   121   159   157   ar
   122    94    93    2
   123    96    98    1
   124    70    71    2
   125    74    73    1
   126    74    75    1
   127   179   180    1
   128    64    66   ar
   129    65    67   ar
   130   151   152    1
   131   158   156   ar
   132    93    92    1
   133    93    99   am
   134   157   156   ar
   135   100   101    1
   136   100    99    1
   137   100   103    1
   138   180   181    1
   139   180   182    1
   140   166   165    2
   141   101   102    2
   142    92    91    1
   143   156   155    1
   144   152   155    1
   145   152   153    1
   146   165   164    1
   147    75    76    2
   148    75    84   am
   149    66    67   ar
   150   115   117   ar
   151   115   113   ar
   152   103   104    1
   153   106   104    1
   154   154   153    2
   155   171   169   ar
   156   171   173   ar
   157    84    85    1
   158   174   173    1
   159   104   105    1
   160   117   116   ar
   161   169   168   ar
   162    89    88    1
   163   113   112   ar
   164   173   172   ar
   165   164   163    1
   166   164   167    1
   167   168   167    1
   168   168   170   ar
   169   125   124    1
   170   172   170   ar
   171    85    88    1
   172    85    86    1
   173   124   123    1
   174    88    90    1
   175   116   114   ar
   176   112   114   ar
   177   112   111    1
   178   123   122    1
   179   110   109    2
   180    86    87    2
   181   111   108    1
   182   108   109    1
   183   108   107    1
   184   121   120    2
   185   122   119    1
   186   119   120    1
   187   119   118    1
