@<TRIPOS>MOLECULE
tmp/4rkcB00.pdb
 135 128 0 0 0
SMALL
GASTEIGER

@<TRIPOS>ATOM
      1  N         14.6940   26.1210   57.6840 N.3   103  GLY103     -0.1210
      2  CA        13.5430   26.5950   58.4010 C.3   103  GLY103      0.1956
      3  C         13.6530   26.2810   59.8750 C.2   103  GLY103      0.2612
      4  O         13.1050   27.0030   60.6910 O.2   103  GLY103     -0.2717
      5  N         14.2820   25.1670   60.2130 N.am  104  SER104     -0.1952
      6  CA        14.5430   24.7890   61.6130 C.3   104  SER104      0.1924
      7  C         15.1940   25.9270   62.3890 C.2   104  SER104      0.2314
      8  O         14.7370   26.2750   63.4330 O.2   104  SER104     -0.2863
      9  CB        15.5010   23.5780   61.6470 C.3   104  SER104      0.2116
     10  OG        14.7960   22.5070   61.1120 O.3   104  SER104     -0.2180
     11  N         12.7940   28.7710   62.8150 N.3   107  LEU107     -0.1245
     12  CA        11.8350   28.4850   63.8570 C.3   107  LEU107      0.1561
     13  C         12.5280   28.6610   65.2080 C.2   107  LEU107      0.2260
     14  O         11.9440   29.1590   66.1720 O.2   107  LEU107     -0.2867
     15  CB        11.3140   27.0440   63.7660 C.3   107  LEU107      0.0270
     16  CG        10.2910   26.7870   62.6620 C.3   107  LEU107      0.0019
     17  CD1       10.0140   25.3040   62.6220 C.3   107  LEU107      0.0001
     18  CD2        9.0110   27.4700   63.0700 C.3   107  LEU107      0.0001
     19  N          4.5650   18.2990   62.3570 N.3   130  TRP130     -0.1241
     20  CA         5.9510   17.9090   62.0360 C.3   130  TRP130      0.1605
     21  C          6.7340   17.9370   63.3740 C.2   130  TRP130      0.2264
     22  O          7.0570   19.0200   63.8700 O.2   130  TRP130     -0.2867
     23  CB         6.5280   18.8840   60.9630 C.3   130  TRP130      0.0550
     24  CG         8.0440   18.8330   60.7950 C.ar  130  TRP130      0.0003
     25  CD1        8.7780   17.7510   60.3540 C.ar  130  TRP130      0.0946
     26  CD2        9.0210   19.8880   61.0760 C.ar  130  TRP130      0.0152
     27  NE1       10.1300   18.0600   60.3500 N.ar  130  TRP130     -0.2442
     28  CE2       10.3160   19.3490   60.7820 C.ar  130  TRP130      0.0810
     29  CE3        8.9290   21.2280   61.5370 C.ar  130  TRP130      0.0012
     30  CZ2       11.5070   20.1030   60.9180 C.ar  130  TRP130      0.0191
     31  CZ3       10.1150   21.9770   61.6730 C.ar  130  TRP130      0.0001
     32  CH2       11.3910   21.4070   61.3510 C.ar  130  TRP130      0.0015
     33  N          9.0470   20.6250   65.1550 N.3   133  HIS133     -0.1241
     34  CA         8.3990   21.8660   65.5850 C.3   133  HIS133      0.1621
     35  C          8.4030   21.9370   67.1190 C.2   133  HIS133      0.2264
     36  O          8.7470   22.9830   67.7190 O.2   133  HIS133     -0.2867
     37  CB         6.8930   21.8320   65.2340 C.3   133  HIS133      0.0745
     38  CG         6.4950   22.3460   63.8650 C.ar  133  HIS133      0.0817
     39  ND1        5.1460   22.4610   63.4800 N.ar  133  HIS133     -0.2268
     40  CD2        7.2340   22.7940   62.8150 C.ar  133  HIS133      0.1154
     41  CE1        5.0950   22.9690   62.2640 C.ar  133  HIS133      0.1986
     42  NE2        6.3420   23.1730   61.8350 N.ar  133  HIS133     -0.2212
     43  N          0.7340   26.3300   59.1950 N.3   178  HIS178     -0.1241
     44  CA         1.2600   25.7720   57.9950 C.3   178  HIS178      0.1621
     45  C          0.3970   26.4420   56.9270 C.2   178  HIS178      0.2264
     46  O         -0.7600   26.0610   56.7210 O.2   178  HIS178     -0.2867
     47  CB         1.0080   24.2590   57.9470 C.3   178  HIS178      0.0745
     48  CG         1.6420   23.4600   59.0460 C.ar  178  HIS178      0.0817
     49  ND1        2.7230   22.6210   58.8310 N.ar  178  HIS178     -0.2268
     50  CD2        1.2770   23.2690   60.3420 C.ar  178  HIS178      0.1154
     51  CE1        3.0190   21.9800   59.9530 C.ar  178  HIS178      0.1986
     52  NE2        2.1540   22.3480   60.8840 N.ar  178  HIS178     -0.2212
     53  N          0.3210   22.8830   52.2080 N.3   181  CYS181     -0.1235
     54  CA         1.0970   21.6640   52.1600 C.3   181  CYS181      0.1677
     55  C          1.3740   21.1220   53.5570 C.2   181  CYS181      0.2270
     56  O          2.5210   20.8080   53.9420 O.2   181  CYS181     -0.2867
     57  CB         2.4180   21.9200   51.4730 C.3   181  CYS181      0.0956
     58  SG         2.1370   22.4290   49.7980 S.3   181  CYS181     -0.0801
     59  N          2.1060   19.3170   56.7060 N.3   183  ASN183     -0.1240
     60  CA         2.8440   18.1610   57.1250 C.3   183  ASN183      0.1653
     61  C          2.4720   17.7780   58.5900 C.2   183  ASN183      0.2266
     62  O          2.6660   18.5550   59.4730 O.2   183  ASN183     -0.2867
     63  CB         4.3390   18.4920   57.0150 C.3   183  ASN183      0.1155
     64  CG         5.2460   17.4220   57.6410 C.2   183  ASN183      0.2627
     65  OD1        4.8520   16.2850   57.9280 O.2   183  ASN183     -0.2716
     66  ND2        6.4970   17.8100   57.8530 N.am  183  ASN183     -0.0877
     67  N          4.9600   28.7960   59.2390 N.3   211  ASP211     -0.1239
     68  CA         6.0810   27.9800   58.7970 C.3   211  ASP211      0.1674
     69  C          5.8100   27.4170   57.3910 C.2   211  ASP211      0.2266
     70  O          4.9310   26.5780   57.2310 O.2   211  ASP211     -0.2867
     71  CB         6.2640   26.8020   59.7730 C.3   211  ASP211      0.1410
     72  CG         7.4880   25.9830   59.4210 C.2   211  ASP211      0.3668
     73  OD1        8.5860   26.5760   59.1490 O.co2 211  ASP211     -0.2456
     74  OD2        7.3010   24.7650   59.3490 O.co2 211  ASP211     -0.2456
     75  N          7.3620   25.4510   54.3380 N.3   213  ALA213     -0.1231
     76  CA         8.5430   24.7030   53.9790 C.3   213  ALA213      0.1694
     77  C          8.3820   24.1880   52.5510 C.2   213  ALA213      0.2592
     78  O          9.3530   23.6780   51.9690 O.2   213  ALA213     -0.2718
     79  CB         8.7640   23.5670   54.9630 C.3   213  ALA213      0.0304
     80  N          7.2040   24.3840   51.9590 N.am  214  TYR214     -0.1976
     81  CA         6.8830   23.8000   50.6610 C.3   214  TYR214      0.1639
     82  C          6.2620   24.7600   49.7160 C.2   214  TYR214      0.2290
     83  O          5.4310   24.3670   48.9570 O.2   214  TYR214     -0.2864
     84  CB         5.9190   22.5930   50.7960 C.3   214  TYR214      0.0560
     85  CG         6.4430   21.6390   51.8590 C.ar  214  TYR214     -0.0198
     86  CD1        7.4290   20.7220   51.5560 C.ar  214  TYR214     -0.0009
     87  CD2        5.9570   21.6970   53.1700 C.ar  214  TYR214     -0.0009
     88  CE1        7.9410   19.8790   52.5310 C.ar  214  TYR214      0.0417
     89  CE2        6.4420   20.8330   54.1710 C.ar  214  TYR214      0.0417
     90  CZ         7.4470   19.9510   53.8340 C.ar  214  TYR214      0.1957
     91  OH         7.9710   19.1510   54.8180 O.3   214  TYR214     -0.2866
     92  N         11.6530   27.6840   54.3690 N.3   243  SER243     -0.1217
     93  CA        12.7370   26.7940   54.1300 C.3   243  SER243      0.1889
     94  C         12.8740   26.6240   52.6350 C.2   243  SER243      0.2288
     95  O         11.8780   26.4450   51.9930 O.2   243  SER243     -0.2866
     96  CB        12.4340   25.4520   54.7600 C.3   243  SER243      0.2089
     97  OG        13.3890   24.5280   54.3050 O.3   243  SER243     -0.2183
     98  N         14.7650   24.1190   51.7550 N.3   245  SER245     -0.1202
     99  CA        15.2330   22.7100   51.6980 C.3   245  SER245      0.2020
    100  C         14.6150   21.8430   50.5760 C.2   245  SER245      0.2618
    101  O         15.3320   21.2400   49.7890 O.2   245  SER245     -0.2717
    102  CB        15.1540   22.0400   53.0300 C.3   245  SER245      0.2103
    103  OG        16.0960   22.6420   53.9320 O.3   245  SER245     -0.2182
    104  N         13.3130   21.8210   50.4720 N.am  246  LYS246     -0.1979
    105  CA        12.6260   20.9880   49.5250 C.3   246  LYS246      0.1596
    106  C         12.5810   21.7100   48.1750 C.2   246  LYS246      0.2287
    107  O         13.0310   21.1380   47.1610 O.2   246  LYS246     -0.2864
    108  CB        11.2450   20.6940   50.0140 C.3   246  LYS246      0.0298
    109  CG        11.1720   19.5650   51.0010 C.3   246  LYS246      0.0038
    110  CD        11.5890   19.9510   52.4410 C.3   246  LYS246      0.0206
    111  CE        11.4260   18.7440   53.3820 C.3   246  LYS246      0.1093
    112  NZ        12.4820   18.7040   54.4740 N.3   246  LYS246     -0.1314
    113  N         18.6120   20.6910   51.0480 N.3   251  TYR251     -0.1241
    114  CA        18.4910   20.2570   52.4550 C.3   251  TYR251      0.1605
    115  C         19.7590   20.5060   53.2160 C.2   251  TYR251      0.2264
    116  O         19.7430   21.1490   54.2690 O.2   251  TYR251     -0.2867
    117  CB        18.1670   18.7410   52.5220 C.3   251  TYR251      0.0534
    118  CG        17.0240   18.3850   51.5800 C.ar  251  TYR251     -0.0201
    119  CD1       15.7170   18.2930   52.0610 C.ar  251  TYR251     -0.0009
    120  CD2       17.2560   18.2390   50.1940 C.ar  251  TYR251     -0.0009
    121  CE1       14.6620   18.0000   51.2390 C.ar  251  TYR251      0.0417
    122  CE2       16.1870   17.8890   49.3480 C.ar  251  TYR251      0.0417
    123  CZ        14.8940   17.7860   49.9070 C.ar  251  TYR251      0.1957
    124  OH        13.8240   17.5110   49.1070 O.3   251  TYR251     -0.2866
    125  N         21.3430   24.0950   54.3710 N.3   254  ARG254     -0.1245
    126  CA        20.6680   24.7990   55.4620 C.3   254  ARG254      0.1563
    127  C         20.3050   26.2160   55.0960 C.2   254  ARG254      0.2260
    128  O         20.9270   27.2050   55.5920 O.2   254  ARG254     -0.2867
    129  CB        21.4510   24.7430   56.8060 C.3   254  ARG254      0.0307
    130  CG        22.1320   23.4030   57.0090 C.3   254  ARG254      0.0489
    131  CD        21.2260   22.1930   56.8810 C.3   254  ARG254      0.2205
    132  NE        20.2470   22.3330   57.9430 N.pl3 254  ARG254     -0.0865
    133  CZ        18.9320   22.4760   57.7570 C.cat 254  ARG254      0.5346
    134  NH1       18.3840   22.5310   56.5290 N.pl3 254  ARG254      0.1354
    135  NH2       18.1800   22.6630   58.8290 N.pl3 254  ARG254      0.1354
@<TRIPOS>BOND
     1   107   106    2
     2   106   105    1
     3    83    82    2
     4   124   123    1
     5   122   123   ar
     6   122   120   ar
     7   105   108    1
     8   105   104    1
     9    82    81    1
    10   101   100    2
    11    58    57    1
    12   123   121   ar
    13   108   109    1
    14   120   118   ar
    15   104   100   am
    16   100    99    1
    17    81    84    1
    18    81    80    1
    19    84    85    1
    20   109   110    1
    21   113   114    1
    22   121   119   ar
    23    57    54    1
    24    86    85   ar
    25    86    88   ar
    26   118   119   ar
    27   118   117    1
    28    99    98    1
    29    99   102    1
    30    85    87   ar
    31    80    77   am
    32    78    77    2
    33    95    94    2
    34    54    53    1
    35    54    55    1
    36   110   111    1
    37   114   117    1
    38   114   115    1
    39    88    90   ar
    40    77    76    1
    41    94    93    1
    42   102   103    1
    43    87    89   ar
    44   115   116    2
    45   111   112    1
    46    55    56    2
    47    90    89   ar
    48    90    91    1
    49    76    75    1
    50    76    79    1
    51    93    92    1
    52    93    96    1
    53    97    96    1
    54   125   126    1
    55   127   126    1
    56   127   128    2
    57   126   129    1
    58   134   133    1
    59    59    60    1
    60    46    45    2
    61   129   130    1
    62   131   130    1
    63   131   132    1
    64    45    44    1
    65    63    60    1
    66    63    64    1
    67    60    61    1
    68    70    69    2
    69    69    68    1
    70    64    66   am
    71    64    65    2
    72     1     2    1
    73   133   132    2
    74   133   135    1
    75    47    44    1
    76    47    48    1
    77    44    43    1
    78     2     3    1
    79    61    62    2
    80    68    67    1
    81    68    71    1
    82    49    48   ar
    83    49    51   ar
    84    48    50   ar
    85    73    72   ar
    86    74    72   ar
    87    72    71    1
    88     3     5   am
    89     3     4    2
    90    51    52   ar
    91     5     6    1
    92    50    52   ar
    93    27    25   ar
    94    27    28   ar
    95    25    24   ar
    96    28    30   ar
    97    28    26   ar
    98    24    23    1
    99    24    26   ar
   100    30    32   ar
   101    23    20    1
   102    26    29   ar
   103    10     9    1
   104    32    31   ar
   105    29    31   ar
   106     6     9    1
   107     6     7    1
   108    42    41   ar
   109    42    40   ar
   110    20    19    1
   111    20    21    1
   112    41    39   ar
   113     7     8    2
   114    17    16    1
   115    16    18    1
   116    16    15    1
   117    40    38   ar
   118    11    12    1
   119    21    22    2
   120    39    38   ar
   121    15    12    1
   122    12    13    1
   123    38    37    1
   124    33    34    1
   125    13    14    2
   126    37    34    1
   127    34    35    1
   128    35    36    2
