@<TRIPOS>MOLECULE
tmp/4rkdG00.pdb
 175 166 0 0 0
SMALL
GASTEIGER

@<TRIPOS>ATOM
      1  N         25.7550   78.6280  166.5430 N.3    13  ILE13      -0.1245
      2  CA        26.9240   78.9660  165.7470 C.3    13  ILE13       0.1561
      3  C         26.7980   80.2700  164.9430 C.2    13  ILE13       0.2260
      4  O         27.7260   81.0810  164.9070 O.2    13  ILE13      -0.2867
      5  CB        27.2260   77.7950  164.7710 C.3    13  ILE13       0.0252
      6  CG1       25.9360   77.1790  164.1590 C.3    13  ILE13       0.0019
      7  CG2       27.9920   76.6810  165.4870 C.3    13  ILE13       0.0019
      8  CD1       24.9610   78.1410  163.4560 C.3    13  ILE13       0.0001
      9  N         34.4380   76.5180  165.3790 N.3    34  GLY34      -0.1210
     10  CA        35.3260   75.3680  165.3940 C.3    34  GLY34       0.1956
     11  C         36.0830   75.0880  164.0980 C.2    34  GLY34       0.2611
     12  O         35.8470   74.0560  163.4640 O.2    34  GLY34      -0.2717
     13  N         36.9960   75.9710  163.6860 N.am   35  ILE35      -0.1979
     14  CA        37.8190   75.7250  162.4670 C.3    35  ILE35       0.1595
     15  C         39.2550   76.2020  162.6290 C.2    35  ILE35       0.2287
     16  O         39.5210   77.1360  163.4010 O.2    35  ILE35      -0.2864
     17  CB        37.2480   76.3740  161.1920 C.3    35  ILE35       0.0276
     18  CG1       37.3820   77.8850  161.2710 C.3    35  ILE35       0.0022
     19  CG2       35.8060   75.9730  160.9710 C.3    35  ILE35       0.0022
     20  CD1       36.2460   78.6180  160.6110 C.3    35  ILE35       0.0001
     21  N         31.0350   64.5290  154.3200 N.3   102  GLY102     -0.1210
     22  CA        31.6400   64.9030  155.5990 C.3   102  GLY102      0.1956
     23  C         31.5420   63.7250  156.5260 C.2   102  GLY102      0.2612
     24  O         30.9560   62.6890  156.1440 O.2   102  GLY102     -0.2717
     25  N         32.1530   63.8420  157.7110 N.am  103  GLY103     -0.1942
     26  CA        31.8950   62.9310  158.8090 C.3   103  GLY103      0.2014
     27  C         30.3660   62.9000  159.1020 C.2   103  GLY103      0.2639
     28  O         29.7540   61.8110  159.2670 O.2   103  GLY103     -0.2714
     29  N         29.7520   64.0870  159.1650 N.am  104  SER104     -0.1949
     30  CA        28.3340   64.2300  159.3230 C.3   104  SER104      0.1924
     31  C         27.6100   63.2030  158.4730 C.2   104  SER104      0.2314
     32  O         26.7510   62.4680  158.9810 O.2   104  SER104     -0.2863
     33  CB        27.9030   65.6300  158.9100 C.3   104  SER104      0.2116
     34  OG        28.3100   66.5980  159.8560 O.3   104  SER104     -0.2180
     35  N         28.1030   59.8180  159.4960 N.3   107  LEU107     -0.1245
     36  CA        27.4090   59.5080  160.7440 C.3   107  LEU107      0.1561
     37  C         25.9620   59.1940  160.4160 C.2   107  LEU107      0.2260
     38  O         25.3610   58.2270  160.8980 O.2   107  LEU107     -0.2867
     39  CB        27.4990   60.6640  161.7550 C.3   107  LEU107      0.0270
     40  CG        28.7550   60.7500  162.6300 C.3   107  LEU107      0.0019
     41  CD1       28.6750   62.0630  163.3910 C.3   107  LEU107      0.0001
     42  CD2       28.8780   59.5070  163.5070 C.3   107  LEU107      0.0001
     43  N         30.1010   66.2370  170.7800 N.3   130  TRP130     -0.1241
     44  CA        29.7330   67.1160  169.6790 C.3   130  TRP130      0.1605
     45  C         28.2320   67.0730  169.4960 C.2   130  TRP130      0.2264
     46  O         27.6820   66.0050  169.2550 O.2   130  TRP130     -0.2867
     47  CB        30.3420   66.6300  168.4060 C.3   130  TRP130      0.0550
     48  CG        30.1030   67.5370  167.2660 C.ar  130  TRP130      0.0003
     49  CD1       30.1920   68.9270  167.2450 C.ar  130  TRP130      0.0946
     50  CD2       29.7840   67.1380  165.9410 C.ar  130  TRP130      0.0152
     51  NE1       29.9320   69.3980  165.9830 N.ar  130  TRP130     -0.2442
     52  CE2       29.6960   68.3340  165.1520 C.ar  130  TRP130      0.0810
     53  CE3       29.5440   65.8860  165.3370 C.ar  130  TRP130      0.0012
     54  CZ2       29.3650   68.3170  163.7990 C.ar  130  TRP130      0.0191
     55  CZ3       29.2200   65.8510  163.9950 C.ar  130  TRP130      0.0001
     56  CH2       29.1380   67.0740  163.2220 C.ar  130  TRP130      0.0015
     57  N         26.3560   64.8980  167.0450 N.3   133  HIS133     -0.1241
     58  CA        26.1760   63.5130  167.3220 C.3   133  HIS133      0.1621
     59  C         24.7790   63.1770  167.7880 C.2   133  HIS133      0.2264
     60  O         24.2020   62.1830  167.3350 O.2   133  HIS133     -0.2867
     61  CB        27.0930   63.0970  168.4320 C.3   133  HIS133      0.0745
     62  CG        28.4700   62.8310  167.9610 C.ar  133  HIS133      0.0817
     63  ND1       29.5290   62.6670  168.8270 N.ar  133  HIS133     -0.2268
     64  CD2       28.9630   62.7050  166.7030 C.ar  133  HIS133      0.1154
     65  CE1       30.6160   62.4270  168.1110 C.ar  133  HIS133      0.1986
     66  NE2       30.2980   62.4640  166.8230 N.ar  133  HIS133     -0.2212
     67  N         35.1600   58.8700  170.6510 N.3   178  HIS178     -0.1241
     68  CA        36.1430   59.7260  169.9800 C.3   178  HIS178      0.1621
     69  C         37.5940   59.1150  170.0280 C.2   178  HIS178      0.2264
     70  O         38.2440   59.0460  171.0980 O.2   178  HIS178     -0.2867
     71  CB        36.1750   61.1330  170.5880 C.3   178  HIS178      0.0745
     72  CG        34.8590   61.8560  170.6280 C.ar  178  HIS178      0.0817
     73  ND1       34.7050   63.1320  170.1160 N.ar  178  HIS178     -0.2268
     74  CD2       33.6720   61.5330  171.2040 C.ar  178  HIS178      0.1154
     75  CE1       33.4670   63.5430  170.3310 C.ar  178  HIS178      0.1986
     76  NE2       32.8180   62.5880  170.9850 N.ar  178  HIS178     -0.2212
     77  N         36.0200   66.3010  171.2040 N.3   183  ASN183     -0.1240
     78  CA        35.2940   67.5440  170.9610 C.3   183  ASN183      0.1653
     79  C         34.0610   67.4260  171.8060 C.2   183  ASN183      0.2266
     80  O         33.2580   66.5270  171.5510 O.2   183  ASN183     -0.2867
     81  CB        34.8760   67.6240  169.4740 C.3   183  ASN183      0.1155
     82  CG        33.9640   68.8120  169.1670 C.2   183  ASN183      0.2627
     83  OD1       33.8190   69.7050  169.9740 O.2   183  ASN183     -0.2716
     84  ND2       33.3560   68.8130  167.9920 N.am  183  ASN183     -0.0877
     85  N         34.1900   57.8800  165.6160 N.3   211  ASP211     -0.1239
     86  CA        34.0510   59.0980  164.8380 C.3   211  ASP211      0.1674
     87  C         35.2980   59.9940  164.9400 C.2   211  ASP211      0.2266
     88  O         35.5060   60.6110  165.9890 O.2   211  ASP211     -0.2867
     89  CB        32.8070   59.8680  165.3000 C.3   211  ASP211      0.1410
     90  CG        32.5860   61.1780  164.5010 C.2   211  ASP211      0.3668
     91  OD1       32.8340   61.2010  163.2890 O.co2 211  ASP211     -0.2456
     92  OD2       32.2060   62.2230  165.0630 O.co2 211  ASP211     -0.2456
     93  N         37.6570   63.2070  163.3450 N.3   213  ALA213     -0.1231
     94  CA        37.5210   64.3780  162.4760 C.3   213  ALA213      0.1694
     95  C         38.7470   65.2140  162.4280 C.2   213  ALA213      0.2592
     96  O         38.7650   66.2410  161.7770 O.2   213  ALA213     -0.2718
     97  CB        36.3580   65.2090  162.9340 C.3   213  ALA213      0.0304
     98  N         39.7690   64.7870  163.1770 N.am  214  TYR214     -0.1976
     99  CA        40.9790   65.6000  163.4430 C.3   214  TYR214      0.1639
    100  C         42.2080   64.6890  163.4160 C.2   214  TYR214      0.2290
    101  O         43.1810   64.9180  164.1790 O.2   214  TYR214     -0.2864
    102  CB        40.8740   66.3230  164.8240 C.3   214  TYR214      0.0560
    103  CG        39.5610   67.0510  165.0350 C.ar  214  TYR214     -0.0198
    104  CD1       39.3730   68.3570  164.5190 C.ar  214  TYR214     -0.0009
    105  CD2       38.4770   66.4330  165.6860 C.ar  214  TYR214     -0.0009
    106  CE1       38.1530   69.0030  164.6480 C.ar  214  TYR214      0.0417
    107  CE2       37.2490   67.0870  165.8060 C.ar  214  TYR214      0.0417
    108  CZ        37.1040   68.3570  165.2910 C.ar  214  TYR214      0.1957
    109  OH        35.9280   69.0100  165.4180 O.3   214  TYR214     -0.2866
    110  N         36.3590   62.3650  158.7670 N.3   243  SER243     -0.1217
    111  CA        36.1500   63.5970  158.0750 C.3   243  SER243      0.1889
    112  C         37.4820   64.2180  157.5690 C.2   243  SER243      0.2288
    113  O         38.4820   64.1750  158.2930 O.2   243  SER243     -0.2866
    114  CB        35.4680   64.5100  159.0200 C.3   243  SER243      0.2089
    115  OG        35.3440   65.7150  158.3950 O.3   243  SER243     -0.2183
    116  N         37.5710   67.4070  156.9050 N.3   245  SER245     -0.1202
    117  CA        37.1990   68.8210  156.8880 C.3   245  SER245      0.2020
    118  C         38.3030   69.7000  157.4960 C.2   245  SER245      0.2618
    119  O         38.7160   70.6930  156.8770 O.2   245  SER245     -0.2717
    120  CB        35.8380   69.0610  157.5330 C.3   245  SER245      0.2103
    121  OG        34.8300   68.4970  156.7400 O.3   245  SER245     -0.2182
    122  N         38.8140   69.2920  158.6620 N.am  246  LYS246     -0.1979
    123  CA        39.8070   70.0900  159.3560 C.3   246  LYS246      0.1596
    124  C         41.1360   69.7330  158.8050 C.2   246  LYS246      0.2287
    125  O         41.9550   70.6200  158.6250 O.2   246  LYS246     -0.2864
    126  CB        39.8050   69.8810  160.8690 C.3   246  LYS246      0.0298
    127  CG        38.4300   69.8930  161.5120 C.3   246  LYS246      0.0038
    128  CD        37.6150   71.1790  161.2820 C.3   246  LYS246      0.0206
    129  CE        36.2490   71.1580  161.9750 C.3   246  LYS246      0.1093
    130  NZ        35.6350   69.7680  161.9610 N.3   246  LYS246     -0.1314
    131  N         36.5490   72.0140  154.5020 N.3   251  TYR251     -0.1241
    132  CA        35.2380   72.0170  155.1070 C.3   251  TYR251      0.1605
    133  C         34.0810   72.0050  154.1070 C.2   251  TYR251      0.2264
    134  O         33.2790   71.0900  154.0440 O.2   251  TYR251     -0.2867
    135  CB        35.1440   73.2610  155.9790 C.3   251  TYR251      0.0534
    136  CG        36.3200   73.4680  156.9330 C.ar  251  TYR251     -0.0201
    137  CD1       36.3050   72.9000  158.1780 C.ar  251  TYR251     -0.0009
    138  CD2       37.4300   74.2500  156.5840 C.ar  251  TYR251     -0.0009
    139  CE1       37.3420   73.0810  159.0640 C.ar  251  TYR251      0.0417
    140  CE2       38.4780   74.4330  157.4600 C.ar  251  TYR251      0.0417
    141  CZ        38.4250   73.8440  158.7190 C.ar  251  TYR251      0.1957
    142  OH        39.4500   73.9910  159.6740 O.3   251  TYR251     -0.2866
    143  N         32.6900   68.9730  151.6340 N.3   254  ARG254     -0.1245
    144  CA        31.9110   67.8960  152.2310 C.3   254  ARG254      0.1563
    145  C         32.4860   66.4830  151.9280 C.2   254  ARG254      0.2260
    146  O         31.8740   65.6540  151.2490 O.2   254  ARG254     -0.2867
    147  CB        30.4390   68.0310  151.7850 C.3   254  ARG254      0.0307
    148  CG        29.8770   69.4530  151.8600 C.3   254  ARG254      0.0489
    149  CD        29.8730   70.0640  153.2470 C.3   254  ARG254      0.2205
    150  NE        29.4980   69.1000  154.2800 N.pl3 254  ARG254     -0.0865
    151  CZ        30.2340   68.8220  155.3530 C.cat 254  ARG254      0.5346
    152  NH1       31.3740   69.4550  155.5800 N.pl3 254  ARG254      0.1354
    153  NH2       29.8210   67.9330  156.2180 N.pl3 254  ARG254      0.1354
    154  N         39.9950   71.8210  170.3680 N.3   348  PHE348     -0.1241
    155  CA        39.2250   72.3980  171.4290 C.3   348  PHE348      0.1605
    156  C         39.7970   72.1750  172.7720 C.2   348  PHE348      0.2264
    157  O         40.3680   71.1130  173.0640 O.2   348  PHE348     -0.2867
    158  CB        37.8170   71.8670  171.3980 C.3   348  PHE348      0.0534
    159  CG        37.2570   71.9250  170.0650 C.ar  348  PHE348     -0.0203
    160  CD1       37.2110   70.7900  169.2830 C.ar  348  PHE348     -0.0042
    161  CD2       36.9310   73.1640  169.5220 C.ar  348  PHE348     -0.0042
    162  CE1       36.7860   70.8790  167.9720 C.ar  348  PHE348     -0.0003
    163  CE2       36.5030   73.2680  168.2170 C.ar  348  PHE348     -0.0003
    164  CZ        36.4420   72.1220  167.4360 C.ar  348  PHE348     -0.0000
    165  N         34.1050   75.8490  176.1570 N.3   374  ARG374     -0.1245
    166  CA        34.9040   75.3830  175.0390 C.3   374  ARG374      0.1563
    167  C         35.5500   76.5310  174.3090 C.2   374  ARG374      0.2260
    168  O         34.8650   77.4120  173.8260 O.2   374  ARG374     -0.2867
    169  CB        34.0930   74.5960  174.0360 C.3   374  ARG374      0.0307
    170  CG        35.0010   73.7780  173.1670 C.3   374  ARG374      0.0489
    171  CD        34.2240   73.1720  172.0630 C.3   374  ARG374      0.2205
    172  NE        33.9490   74.1350  171.0180 N.pl3 374  ARG374     -0.0865
    173  CZ        33.4000   73.8110  169.8590 C.cat 374  ARG374      0.5346
    174  NH1       33.0930   72.5620  169.6140 N.pl3 374  ARG374      0.1354
    175  NH2       33.1570   74.7170  168.9510 N.pl3 374  ARG374      0.1354
@<TRIPOS>BOND
     1   146   145    2
     2   143   144    1
     3   147   148    1
     4   147   144    1
     5   148   149    1
     6   145   144    1
     7   149   150    1
     8   134   133    2
     9   133   132    1
    10   150   151    2
    11    21    22    1
    12   131   132    1
    13   132   135    1
    14   151   152    1
    15   151   153    1
    16    22    23    1
    17   135   136    1
    18    24    23    2
    19    23    25   am
    20   138   136   ar
    21   138   140   ar
    22   121   120    1
    23   119   118    2
    24   117   116    1
    25   117   118    1
    26   117   120    1
    27   136   137   ar
    28   140   141   ar
    29   118   122   am
    30   112   111    1
    31   112   113    2
    32    25    26    1
    33   111   110    1
    34   111   114    1
    35   137   139   ar
    36   115   114    1
    37    31    32    2
    38    31    30    1
    39   125   124    2
    40   122   123    1
    41   141   139   ar
    42   141   142    1
    43   124   123    1
    44    26    27    1
    45    33    30    1
    46    33    34    1
    47    27    29   am
    48    27    28    2
    49    29    30    1
    50   123   126    1
    51    35    36    1
    52    37    36    1
    53    37    38    2
    54    20    18    1
    55    36    39    1
    56   126   127    1
    57    19    17    1
    58    17    18    1
    59    17    14    1
    60   128   127    1
    61   128   129    1
    62    39    40    1
    63    96    95    2
    64   130   129    1
    65    95    94    1
    66    95    98   am
    67    14    15    1
    68    14    13    1
    69    94    97    1
    70    94    93    1
    71    15    16    2
    72    40    41    1
    73    40    42    1
    74    98    99    1
    75    56    54   ar
    76    56    55   ar
    77    91    90   ar
    78   100    99    1
    79   100   101    2
    80    99   102    1
    81     8     6    1
    82    12    11    2
    83    13    11   am
    84    54    52   ar
    85    55    53   ar
    86    11    10    1
    87     6     5    1
    88    90    92   ar
    89    90    89    1
    90   104   106   ar
    91   104   103   ar
    92   106   108   ar
    93     5     7    1
    94     5     2    1
    95   102   103    1
    96    86    87    1
    97    86    89    1
    98    86    85    1
    99     4     3    2
   100    87    88    2
   101     3     2    1
   102   103   105   ar
   103    52    50   ar
   104    52    51   ar
   105   108   109    1
   106   108   107   ar
   107    53    50   ar
   108     9    10    1
   109   105   107   ar
   110     2     1    1
   111    50    48   ar
   112    51    49   ar
   113    64    66   ar
   114    64    62   ar
   115    66    65   ar
   116    57    58    1
   117    49    48   ar
   118    48    47    1
   119    58    59    1
   120    58    61    1
   121    60    59    2
   122   164   162   ar
   123   164   163   ar
   124    62    61    1
   125    62    63   ar
   126   162   160   ar
   127    84    82   am
   128    65    63   ar
   129   163   161   ar
   130    47    44    1
   131   175   173    1
   132    82    81    1
   133    82    83    2
   134    46    45    2
   135   160   159   ar
   136    81    78    1
   137    45    44    1
   138   161   159   ar
   139   174   173    1
   140    44    43    1
   141   173   172    2
   142    68    69    1
   143    68    71    1
   144    68    67    1
   145    69    70    2
   146   159   158    1
   147    73    75   ar
   148    73    72   ar
   149    75    76   ar
   150   154   155    1
   151    71    72    1
   152    72    74   ar
   153    78    77    1
   154    78    79    1
   155    76    74   ar
   156   172   171    1
   157   158   155    1
   158   155   156    1
   159    80    79    2
   160   171   170    1
   161   156   157    2
   162   170   169    1
   163   168   167    2
   164   169   166    1
   165   167   166    1
   166   166   165    1
