@<TRIPOS>MOLECULE
tmp/4rkdD00.pdb
 106 99 0 0 0
SMALL
GASTEIGER

@<TRIPOS>ATOM
      1  N         58.2380   66.9930   88.5380 N.3    11  ASP11      -0.1239
      2  CA        57.0490   66.6610   87.7670 C.3    11  ASP11       0.1674
      3  C         56.8550   67.8010   86.7710 C.2    11  ASP11       0.2266
      4  O         56.6100   68.9590   87.1800 O.2    11  ASP11      -0.2867
      5  CB        55.8160   66.4710   88.6510 C.3    11  ASP11       0.1410
      6  CG        54.5670   66.0720   87.8400 C.2    11  ASP11       0.3668
      7  OD1       54.6710   65.8140   86.6100 O.co2  11  ASP11      -0.2456
      8  OD2       53.4640   66.0150   88.4310 O.co2  11  ASP11      -0.2456
      9  N         54.8000   69.2510   85.0700 N.3    13  ILE13      -0.1245
     10  CA        53.6460   70.1430   85.2020 C.3    13  ILE13       0.1561
     11  C         53.8720   71.1590   86.3150 C.2    13  ILE13       0.2260
     12  O         53.3070   72.2490   86.2660 O.2    13  ILE13      -0.2867
     13  CB        52.2830   69.3830   85.3930 C.3    13  ILE13       0.0252
     14  CG1       51.7210   69.5260   86.8210 C.3    13  ILE13       0.0019
     15  CG2       52.3560   67.9140   84.9470 C.3    13  ILE13       0.0019
     16  CD1       50.4910   70.4060   86.9390 C.3    13  ILE13       0.0001
     17  N         46.5770   73.2150   87.0050 N.3    33  ILE33      -0.1231
     18  CA        46.6720   72.4930   88.2810 C.3    33  ILE33       0.1692
     19  C         45.4610   71.5790   88.3970 C.2    33  ILE33       0.2593
     20  O         44.4820   71.7920   87.6860 O.2    33  ILE33      -0.2718
     21  CB        46.8860   73.4280   89.5470 C.3    33  ILE33       0.0266
     22  CG1       47.0670   72.6150   90.8700 C.3    33  ILE33       0.0019
     23  CG2       45.8120   74.5370   89.6450 C.3    33  ILE33       0.0020
     24  CD1       48.1480   71.5430   90.8600 C.3    33  ILE33       0.0001
     25  N         45.5560   70.5570   89.2530 N.am   34  GLY34      -0.1942
     26  CA        44.5590   69.4840   89.3440 C.3    34  GLY34       0.2014
     27  C         43.8200   69.5920   90.6470 C.2    34  GLY34       0.2638
     28  O         43.6620   68.6200   91.3770 O.2    34  GLY34      -0.2714
     29  N         43.3910   70.8040   90.9420 N.am   35  ILE35      -0.1977
     30  CA        42.7870   71.1190   92.2240 C.3    35  ILE35       0.1596
     31  C         41.3690   71.6420   91.9150 C.2    35  ILE35       0.2287
     32  O         41.1550   72.2080   90.8020 O.2    35  ILE35      -0.2864
     33  CB        43.6740   72.1830   92.9270 C.3    35  ILE35       0.0276
     34  CG1       45.1100   71.7060   93.0360 C.3    35  ILE35       0.0022
     35  CG2       43.3070   72.3770   94.3670 C.3    35  ILE35       0.0022
     36  CD1       45.2780   70.3210   93.6250 C.3    35  ILE35       0.0001
     37  N         47.7390   58.3700   96.9550 N.3   104  SER104     -0.1217
     38  CA        49.1690   57.9900   96.7560 C.3   104  SER104      0.1889
     39  C         49.6480   56.8390   97.6440 C.2   104  SER104      0.2288
     40  O         50.1100   55.7940   97.1740 O.2   104  SER104     -0.2866
     41  CB        50.0340   59.2060   96.9740 C.3   104  SER104      0.2089
     42  OG        49.6210   60.2180   96.0490 O.3   104  SER104     -0.2183
     43  N         48.0380   59.5330   84.8990 N.3   130  TRP130     -0.1241
     44  CA        48.5970   60.4870   85.7980 C.3   130  TRP130      0.1605
     45  C         50.0340   59.9880   86.0630 C.2   130  TRP130      0.2264
     46  O         50.2310   58.7860   86.3820 O.2   130  TRP130     -0.2867
     47  CB        47.6970   60.4400   87.0440 C.3   130  TRP130      0.0550
     48  CG        48.1230   61.2090   88.2380 C.ar  130  TRP130      0.0003
     49  CD1       48.3860   62.5430   88.2940 C.ar  130  TRP130      0.0946
     50  CD2       48.2710   60.7150   89.5840 C.ar  130  TRP130      0.0152
     51  NE1       48.7320   62.9210   89.5920 N.ar  130  TRP130     -0.2442
     52  CE2       48.6830   61.8120   90.3970 C.ar  130  TRP130      0.0810
     53  CE3       48.1320   59.4500   90.1790 C.ar  130  TRP130      0.0012
     54  CZ2       48.9210   61.6860   91.7710 C.ar  130  TRP130      0.0191
     55  CZ3       48.3830   59.3240   91.5560 C.ar  130  TRP130      0.0001
     56  CH2       48.7520   60.4360   92.3330 C.ar  130  TRP130      0.0015
     57  N         52.1760   59.9990   88.3800 N.3   132  ASN132     -0.1240
     58  CA        52.5790   59.4080   89.6090 C.3   132  ASN132      0.1653
     59  C         52.2060   57.9200   89.7010 C.2   132  ASN132      0.2266
     60  O         52.8240   57.1700   90.4970 O.2   132  ASN132     -0.2867
     61  CB        52.0980   60.2260   90.7920 C.3   132  ASN132      0.1155
     62  CG        53.0080   60.0520   91.9730 C.2   132  ASN132      0.2627
     63  OD1       54.1880   59.6730   91.7570 O.2   132  ASN132     -0.2716
     64  ND2       52.5050   60.2810   93.2360 N.am  132  ASN132     -0.0877
     65  N         40.1170   65.3180   96.8420 N.3   246  LYS246     -0.1245
     66  CA        39.4500   66.2600   95.9740 C.3   246  LYS246      0.1561
     67  C         37.9950   66.4470   96.4250 C.2   246  LYS246      0.2260
     68  O         37.5240   67.6080   96.5100 O.2   246  LYS246     -0.2867
     69  CB        39.5840   65.8620   94.5170 C.3   246  LYS246      0.0271
     70  CG        40.8760   65.1470   94.2370 C.3   246  LYS246      0.0035
     71  CD        41.8470   66.0420   93.4930 C.3   246  LYS246      0.0206
     72  CE        43.2930   65.5050   93.5260 C.3   246  LYS246      0.1093
     73  NZ        44.2210   66.3290   92.6790 N.3   246  LYS246     -0.1314
     74  N         46.0920   64.4050  103.7500 N.3   254  ARG254     -0.1245
     75  CA        46.4870   63.0660  103.3160 C.3   254  ARG254      0.1563
     76  C         45.5780   61.9130  103.6980 C.2   254  ARG254      0.2260
     77  O         46.0150   60.9520  104.3040 O.2   254  ARG254     -0.2867
     78  CB        47.9120   62.7360  103.7750 C.3   254  ARG254      0.0307
     79  CG        48.9480   63.7830  103.4550 C.3   254  ARG254      0.0489
     80  CD        48.7400   64.4780  102.1370 C.3   254  ARG254      0.2205
     81  NE        49.2110   63.6180  101.0880 N.pl3 254  ARG254     -0.0865
     82  CZ        48.4940   63.2040  100.0660 C.cat 254  ARG254      0.5346
     83  NH1       47.2180   63.5610   99.9470 N.pl3 254  ARG254      0.1354
     84  NH2       49.0740   62.3950   99.1700 N.pl3 254  ARG254      0.1354
     85  N         39.1130   66.8970   84.5100 N.3   348  PHE348     -0.1241
     86  CA        40.0400   67.0960   83.3590 C.3   348  PHE348      0.1605
     87  C         39.4470   66.8000   81.9950 C.2   348  PHE348      0.2264
     88  O         38.5370   65.9590   81.8550 O.2   348  PHE348     -0.2867
     89  CB        41.1920   66.1140   83.4900 C.3   348  PHE348      0.0534
     90  CG        41.8810   66.2330   84.7810 C.ar  348  PHE348     -0.0203
     91  CD1       41.7530   65.2670   85.7310 C.ar  348  PHE348     -0.0042
     92  CD2       42.6090   67.4140   85.0820 C.ar  348  PHE348     -0.0042
     93  CE1       42.3830   65.4410   86.9450 C.ar  348  PHE348     -0.0003
     94  CE2       43.2530   67.5880   86.2850 C.ar  348  PHE348     -0.0003
     95  CZ        43.1520   66.5780   87.2160 C.ar  348  PHE348     -0.0000
     96  N         45.8330   68.7370   78.2990 N.3   374  ARG374     -0.1245
     97  CA        44.9890   68.5410   79.4710 C.3   374  ARG374      0.1563
     98  C         44.6680   69.8630   80.1300 C.2   374  ARG374      0.2260
     99  O         45.5650   70.6150   80.4990 O.2   374  ARG374     -0.2867
    100  CB        45.6440   67.6950   80.5310 C.3   374  ARG374      0.0307
    101  CG        44.6430   67.4190   81.6210 C.3   374  ARG374      0.0489
    102  CD        45.3020   66.7500   82.7860 C.3   374  ARG374      0.2205
    103  NE        45.7550   67.7870   83.6870 N.pl3 374  ARG374     -0.0865
    104  CZ        46.2590   67.6190   84.9070 C.cat 374  ARG374      0.5346
    105  NH1       46.3970   66.4050   85.4120 N.pl3 374  ARG374      0.1354
    106  NH2       46.5940   68.7120   85.6090 N.pl3 374  ARG374      0.1354
@<TRIPOS>BOND
     1    96    97    1
     2    97    98    1
     3    97   100    1
     4    98    99    2
     5   100   101    1
     6   101   102    1
     7    88    87    2
     8    87    86    1
     9   102   103    1
    10    86    89    1
    11    86    85    1
    12    89    90    1
    13   103   104    2
    14    90    92   ar
    15    90    91   ar
    16    43    44    1
    17   104   105    1
    18   104   106    1
    19    15    13    1
    20     9    10    1
    21    92    94   ar
    22    10    13    1
    23    10    11    1
    24    13    14    1
    25    91    93   ar
    26    44    45    1
    27    44    47    1
    28    45    46    2
    29    12    11    2
    30    94    95   ar
    31     7     6   ar
    32     3     4    2
    33     3     2    1
    34    14    16    1
    35    93    95   ar
    36    17    18    1
    37    47    48    1
    38    20    19    2
    39     2     1    1
    40     2     5    1
    41     6     8   ar
    42     6     5    1
    43    48    49   ar
    44    48    50   ar
    45    18    19    1
    46    18    21    1
    47    49    51   ar
    48    57    58    1
    49    19    25   am
    50    25    26    1
    51    26    27    1
    52    21    23    1
    53    21    22    1
    54    50    53   ar
    55    50    52   ar
    56    51    52   ar
    57    58    59    1
    58    58    61    1
    59    59    60    2
    60    53    55   ar
    61    52    54   ar
    62    27    29   am
    63    27    28    2
    64    61    62    1
    65    32    31    2
    66    24    22    1
    67    29    30    1
    68    55    56   ar
    69    63    62    2
    70    54    56   ar
    71    31    30    1
    72    62    64   am
    73    30    33    1
    74    73    72    1
    75    33    34    1
    76    33    35    1
    77    34    36    1
    78    71    72    1
    79    71    70    1
    80    70    69    1
    81    69    66    1
    82    66    67    1
    83    66    65    1
    84    42    41    1
    85    67    68    2
    86    38    37    1
    87    38    41    1
    88    38    39    1
    89    40    39    2
    90    84    82    1
    91    83    82    1
    92    82    81    2
    93    81    80    1
    94    80    79    1
    95    75    76    1
    96    75    74    1
    97    75    78    1
    98    79    78    1
    99    76    77    2
