@<TRIPOS>MOLECULE
tmp/4rkeA02.pdb
 92 88 0 0 0
SMALL
GASTEIGER

@<TRIPOS>ATOM
      1  N         22.8020   29.2960  179.3560 N.3    18  ASP18      -0.1239
      2  CA        22.5730   29.2960  180.8130 C.3    18  ASP18       0.1674
      3  C         22.7770   27.9400  181.4670 C.2    18  ASP18       0.2266
      4  O         22.7200   26.8960  180.8080 O.2    18  ASP18      -0.2867
      5  CB        21.1520   29.7410  181.1230 C.3    18  ASP18       0.1410
      6  CG        20.9860   31.2360  181.1230 C.2    18  ASP18       0.3668
      7  OD1       21.9300   31.9600  180.7590 O.co2  18  ASP18      -0.2456
      8  OD2       19.8840   31.6870  181.4970 O.co2  18  ASP18      -0.2456
      9  N         26.9120   31.2910  186.3660 N.3    70  GLU70      -0.1245
     10  CA        27.6150   32.5680  186.3800 C.3    70  GLU70       0.1567
     11  C         28.7650   32.5740  187.3960 C.2    70  GLU70       0.2260
     12  O         29.8030   33.1890  187.1630 O.2    70  GLU70      -0.2867
     13  CB        26.6370   33.7110  186.6780 C.3    70  GLU70       0.0388
     14  CG        27.2090   35.0870  186.3620 C.3    70  GLU70       0.1160
     15  CD        26.3680   36.2300  186.9140 C.2    70  GLU70       0.3649
     16  OE1       25.2060   35.9890  187.3210 O.co2  70  GLU70      -0.2457
     17  OE2       26.8810   37.3710  186.9490 O.co2  70  GLU70      -0.2457
     18  N         31.7560   30.9340  185.6700 N.3    73  ARG73      -0.1231
     19  CA        32.1670   31.4990  184.3760 C.3    73  ARG73       0.1694
     20  C         33.2860   32.5180  184.4780 C.2    73  ARG73       0.2593
     21  O         33.1660   33.4990  185.2100 O.2    73  ARG73      -0.2718
     22  CB        30.9640   32.1640  183.6790 C.3    73  ARG73       0.0321
     23  CG        30.1080   31.2030  182.8700 C.3    73  ARG73       0.0489
     24  CD        28.6360   31.6190  182.7190 C.3    73  ARG73       0.2205
     25  NE        28.4110   33.0450  182.4770 N.pl3  73  ARG73      -0.0865
     26  CZ        27.2180   33.6240  182.5830 C.cat  73  ARG73       0.5346
     27  NH1       27.0810   34.9200  182.3500 N.pl3  73  ARG73       0.1354
     28  NH2       26.1560   32.9010  182.9220 N.pl3  73  ARG73       0.1354
     29  N         34.3600   32.3140  183.7200 N.am   74  SER74      -0.1938
     30  CA        35.4370   33.3000  183.6700 C.3    74  SER74       0.2055
     31  C         34.9900   34.6210  183.0360 C.2    74  SER74       0.2642
     32  O         34.1120   34.6480  182.1710 O.2    74  SER74      -0.2714
     33  CB        36.6370   32.7500  182.8960 C.3    74  SER74       0.2130
     34  OG        37.6210   33.7660  182.7090 O.3    74  SER74      -0.2179
     35  N         35.6050   35.7150  183.4650 N.am   75  ILE75      -0.1977
     36  CA        35.3860   37.0130  182.8360 C.3    75  ILE75       0.1596
     37  C         36.2710   37.1240  181.5920 C.2    75  ILE75       0.2287
     38  O         36.1210   38.0410  180.7930 O.2    75  ILE75      -0.2864
     39  CB        35.6840   38.1850  183.8070 C.3    75  ILE75       0.0276
     40  CG1       34.9980   39.4720  183.3410 C.3    75  ILE75       0.0022
     41  CG2       37.1980   38.4090  183.9570 C.3    75  ILE75       0.0022
     42  CD1       33.4980   39.4310  183.4250 C.3    75  ILE75       0.0001
     43  N         36.9830   35.7390  178.1360 N.3    77  ARG77      -0.1245
     44  CA        36.1520   34.9890  177.2020 C.3    77  ARG77       0.1563
     45  C         37.0200   34.4160  176.0890 C.2    77  ARG77       0.2260
     46  O         36.5880   34.2680  174.9480 O.2    77  ARG77      -0.2867
     47  CB        35.0610   35.8970  176.6260 C.3    77  ARG77       0.0307
     48  CG        34.5430   36.9730  177.5930 C.3    77  ARG77       0.0489
     49  CD        33.8330   36.3670  178.7890 C.3    77  ARG77       0.2205
     50  NE        32.7750   35.4540  178.3580 N.pl3  77  ARG77      -0.0865
     51  CZ        32.6060   34.2180  178.8280 C.cat  77  ARG77       0.5346
     52  NH1       33.4240   33.7340  179.7590 N.pl3  77  ARG77       0.1354
     53  NH2       31.6140   33.4630  178.3680 N.pl3  77  ARG77       0.1354
     54  N         18.2110   35.5410  178.0810 N.3   100  HIS100     -0.1241
     55  CA        19.6580   35.7650  178.1560 C.3   100  HIS100      0.1621
     56  C         20.3790   35.5810  176.8230 C.2   100  HIS100      0.2264
     57  O         21.5920   35.7640  176.7580 O.2   100  HIS100     -0.2867
     58  CB        20.3020   34.8290  179.1920 C.3   100  HIS100      0.0745
     59  CG        19.9330   35.1490  180.6120 C.ar  100  HIS100      0.0817
     60  ND1       19.7500   34.1750  181.5710 N.ar  100  HIS100     -0.2268
     61  CD2       19.7220   36.3320  181.2340 C.ar  100  HIS100      0.1154
     62  CE1       19.4360   34.7450  182.7230 C.ar  100  HIS100      0.1986
     63  NE2       19.4070   36.0510  182.5450 N.ar  100  HIS100     -0.2212
     64  N         22.4880   38.4900  175.3360 N.3   103  THR103     -0.1203
     65  CA        23.7810   38.7310  175.9710 C.3   103  THR103      0.1994
     66  C         24.8100   37.6590  175.5980 C.2   103  THR103      0.2617
     67  O         25.9590   37.9800  175.3090 O.2   103  THR103     -0.2717
     68  CB        23.6410   38.8130  177.5000 C.3   103  THR103      0.1784
     69  OG1       22.5650   39.6970  177.8160 O.3   103  THR103     -0.2211
     70  CG2       24.9240   39.3440  178.1260 C.3   103  THR103      0.0376
     71  N         24.4030   36.3880  175.6080 N.am  104  TRP104     -0.1975
     72  CA        25.2640   35.3130  175.1220 C.3   104  TRP104      0.1640
     73  C         25.7310   35.5730  173.6790 C.2   104  TRP104      0.2290
     74  O         26.8880   35.3200  173.3290 O.2   104  TRP104     -0.2864
     75  CB        24.5400   33.9570  175.1740 C.3   104  TRP104      0.0576
     76  CG        24.5000   33.3180  176.5230 C.ar  104  TRP104      0.0006
     77  CD1       23.3970   33.1030  177.2980 C.ar  104  TRP104      0.0946
     78  CD2       25.6130   32.8060  177.2590 C.ar  104  TRP104      0.0152
     79  NE1       23.7510   32.4890  178.4670 N.ar  104  TRP104     -0.2442
     80  CE2       25.1090   32.2970  178.4740 C.ar  104  TRP104      0.0810
     81  CE3       26.9880   32.7310  177.0100 C.ar  104  TRP104      0.0012
     82  CZ2       25.9300   31.7230  179.4400 C.ar  104  TRP104      0.0191
     83  CZ3       27.8030   32.1590  177.9620 C.ar  104  TRP104      0.0001
     84  CH2       27.2740   31.6720  179.1730 C.ar  104  TRP104      0.0015
     85  N         28.2360   38.4930  173.6240 N.3   107  ASP107     -0.1239
     86  CA        29.4500   37.8840  174.1750 C.3   107  ASP107      0.1674
     87  C         30.1750   37.0530  173.1150 C.2   107  ASP107      0.2266
     88  O         31.3860   37.1510  172.9490 O.2   107  ASP107     -0.2867
     89  CB        29.0960   37.0090  175.3940 C.3   107  ASP107      0.1410
     90  CG        30.3210   36.3770  176.0600 C.2   107  ASP107      0.3668
     91  OD1       31.3090   37.0930  176.3110 O.co2 107  ASP107     -0.2456
     92  OD2       30.2930   35.1580  176.3430 O.co2 107  ASP107     -0.2456
@<TRIPOS>BOND
     1    88    87    2
     2    87    86    1
     3    74    73    2
     4    85    86    1
     5    73    72    1
     6    86    89    1
     7    46    45    2
     8    72    75    1
     9    72    71    1
    10    75    76    1
    11    67    66    2
    12    64    65    1
    13    89    90    1
    14    66    71   am
    15    66    65    1
    16    65    68    1
    17    90    91   ar
    18    90    92   ar
    19    45    44    1
    20    76    78   ar
    21    76    77   ar
    22    47    44    1
    23    47    48    1
    24    57    56    2
    25    56    55    1
    26    81    78   ar
    27    81    83   ar
    28    44    43    1
    29    78    80   ar
    30    77    79   ar
    31    68    69    1
    32    68    70    1
    33    48    49    1
    34    83    84   ar
    35    54    55    1
    36    55    58    1
    37    50    49    1
    38    50    51    2
    39    53    51    1
    40    79    80   ar
    41    80    82   ar
    42    51    52    1
    43    84    82   ar
    44    58    59    1
    45     1     2    1
    46    59    61   ar
    47    59    60   ar
    48     7     6   ar
    49    38    37    2
    50     4     3    2
    51     2     5    1
    52     2     3    1
    53     6     5    1
    54     6     8   ar
    55    61    63   ar
    56    60    62   ar
    57    37    36    1
    58    32    31    2
    59    27    26    1
    60    25    26    2
    61    25    24    1
    62    63    62   ar
    63    26    28    1
    64    34    33    1
    65    24    23    1
    66    36    35    1
    67    36    39    1
    68    23    22    1
    69    33    30    1
    70    31    35   am
    71    31    30    1
    72    40    42    1
    73    40    39    1
    74    30    29    1
    75    22    19    1
    76    29    20   am
    77    39    41    1
    78    19    20    1
    79    19    18    1
    80    20    21    2
    81    14    13    1
    82    14    15    1
    83     9    10    1
    84    10    13    1
    85    10    11    1
    86    15    17   ar
    87    15    16   ar
    88    12    11    2
