@<TRIPOS>MOLECULE
tmp/4rkeA00.pdb
 184 180 0 0 0
SMALL
GASTEIGER

@<TRIPOS>ATOM
      1  N         22.9500   27.9410  182.7800 N.3    19  THR19      -0.1203
      2  CA        23.0770   26.6810  183.4980 C.3    19  THR19       0.1994
      3  C         21.7800   25.8560  183.3740 C.2    19  THR19       0.2618
      4  O         20.6770   26.4050  183.3460 O.2    19  THR19      -0.2717
      5  CB        23.4380   26.9210  184.9860 C.3    19  THR19       0.1784
      6  OG1       23.7790   25.6780  185.6050 O.3    19  THR19      -0.2211
      7  CG2       22.2860   27.5710  185.7480 C.3    19  THR19       0.0376
      8  N         21.9250   24.5400  183.2390 N.am   20  GLY20      -0.1942
      9  CA        20.7870   23.6400  183.2430 C.3    20  GLY20       0.2014
     10  C         20.0130   23.5390  181.9390 C.2    20  GLY20       0.2639
     11  O         19.0120   22.8140  181.8790 O.2    20  GLY20      -0.2714
     12  N         20.4380   24.2560  180.8980 N.am   21  VAL21      -0.1963
     13  CA        19.6910   24.2290  179.6320 C.3    21  VAL21       0.1727
     14  C         19.9060   22.9140  178.8890 C.2    21  VAL21       0.2617
     15  O         19.0740   22.5150  178.0690 O.2    21  VAL21      -0.2715
     16  CB        20.0520   25.4070  178.6910 C.3    21  VAL21       0.0290
     17  CG1       19.6740   26.7340  179.3270 C.3    21  VAL21       0.0023
     18  CG2       21.5300   25.3850  178.2820 C.3    21  VAL21       0.0023
     19  N         21.0230   22.2490  179.1790 N.am   22  GLY22      -0.1940
     20  CA        21.2870   20.9130  178.6750 C.3    22  GLY22       0.2014
     21  C         22.4630   20.7700  177.7200 C.2    22  GLY22       0.2639
     22  O         22.4990   19.8280  176.9270 O.2    22  GLY22      -0.2714
     23  N         23.4330   21.6780  177.8150 N.am   23  LYS23      -0.1963
     24  CA        24.6400   21.6400  176.9890 C.3    23  LYS23       0.1728
     25  C         25.4170   20.3190  177.0810 C.2    23  LYS23       0.2617
     26  O         25.7530   19.7070  176.0590 O.2    23  LYS23      -0.2715
     27  CB        25.5710   22.7950  177.3780 C.3    23  LYS23       0.0311
     28  CG        24.9510   24.1740  177.2180 C.3    23  LYS23       0.0038
     29  CD        25.9470   25.2870  177.5390 C.3    23  LYS23       0.0206
     30  CE        26.2820   25.3010  179.0370 C.3    23  LYS23       0.1093
     31  NZ        25.0660   25.4080  179.8960 N.3    23  LYS23      -0.1314
     32  N         25.7180   19.8930  178.3070 N.am   24  SER24      -0.1936
     33  CA        26.5130   18.7010  178.5330 C.3    24  SER24       0.2055
     34  C         25.7830   17.4320  178.1170 C.2    24  SER24       0.2643
     35  O         26.3990   16.4970  177.5990 O.2    24  SER24      -0.2714
     36  CB        26.9160   18.6080  180.0070 C.3    24  SER24       0.2130
     37  OG        27.7220   19.7160  180.3710 O.3    24  SER24      -0.2179
     38  N         24.4730   17.4000  178.3560 N.am   25  CYS25      -0.1967
     39  CA        23.6490   16.2640  177.9770 C.3    25  CYS25       0.1712
     40  C         23.4960   16.1640  176.4430 C.2    25  CYS25       0.2296
     41  O         23.3960   15.0680  175.8940 O.2    25  CYS25      -0.2864
     42  CB        22.2760   16.3430  178.6500 C.3    25  CYS25       0.0983
     43  SG        22.3060   15.9790  180.4430 S.3    25  CYS25      -0.0798
     44  N         21.7450    9.3450  177.8850 N.3    35  PHE35      -0.1227
     45  CA        21.1730   10.5240  178.5410 C.3    35  PHE35       0.1736
     46  C         21.5250   10.5590  180.0280 C.2    35  PHE35       0.2595
     47  O         21.2820    9.5990  180.7580 O.2    35  PHE35      -0.2718
     48  CB        19.6510   10.5770  178.3620 C.3    35  PHE35       0.0547
     49  CG        18.9850   11.6700  179.1630 C.ar   35  PHE35      -0.0202
     50  CD1       19.3390   13.0000  178.9810 C.ar   35  PHE35      -0.0042
     51  CD2       18.0010   11.3690  180.0910 C.ar   35  PHE35      -0.0042
     52  CE1       18.7310   14.0080  179.7150 C.ar   35  PHE35      -0.0003
     53  CE2       17.3910   12.3720  180.8330 C.ar   35  PHE35      -0.0003
     54  CZ        17.7600   13.6970  180.6400 C.ar   35  PHE35      -0.0000
     55  N         22.1030   11.6730  180.4640 N.am   36  GLN36      -0.1966
     56  CA        22.4740   11.8730  181.8620 C.3    36  GLN36       0.1718
     57  C         21.3590   12.6370  182.6040 C.2    36  GLN36       0.2458
     58  O         21.1710   13.8310  182.3780 O.2    36  GLN36      -0.2730
     59  CB        23.8110   12.6230  181.9320 C.3    36  GLN36       0.0407
     60  CG        24.1310   13.2640  183.2750 C.3    36  GLN36       0.0908
     61  CD        24.4230   12.2460  184.3610 C.2    36  GLN36       0.2608
     62  OE1       23.5100   11.6380  184.9190 O.2    36  GLN36      -0.2717
     63  NE2       25.7020   12.0610  184.6720 N.am   36  GLN36      -0.0878
     64  N         20.5990   11.9450  183.4750 N.am   37  PRO37      -0.2716
     65  CA        19.4370   12.5730  184.1250 C.3    37  PRO37       0.1536
     66  C         19.8070   13.5430  185.2540 C.2    37  PRO37       0.2598
     67  O         18.9690   14.3290  185.7040 O.2    37  PRO37      -0.2715
     68  CB        18.6670   11.3710  184.6830 C.3    37  PRO37       0.0310
     69  CG        19.7420   10.3680  184.9760 C.3    37  PRO37       0.0237
     70  CD        20.7690   10.5390  183.8920 C.3    37  PRO37       0.0939
     71  N         21.0480   13.4810  185.7180 N.am   38  VAL38      -0.1964
     72  CA        21.4820   14.3540  186.7980 C.3    38  VAL38       0.1727
     73  C         22.1910   15.5960  186.2450 C.2    38  VAL38       0.2616
     74  O         22.9170   15.5120  185.2470 O.2    38  VAL38      -0.2715
     75  CB        22.4060   13.6000  187.7790 C.3    38  VAL38       0.0290
     76  CG1       23.2110   14.5680  188.6440 C.3    38  VAL38       0.0023
     77  CG2       21.5850   12.6520  188.6550 C.3    38  VAL38       0.0023
     78  N         21.9580   16.7450  186.8810 N.am   39  HIS39      -0.1959
     79  CA        22.6460   17.9920  186.5370 C.3    39  HIS39       0.1787
     80  C         23.9900   18.0820  187.2500 C.2    39  HIS39       0.2620
     81  O         24.0710   18.5110  188.3970 O.2    39  HIS39      -0.2715
     82  CB        21.7690   19.2060  186.8870 C.3    39  HIS39       0.0785
     83  CG        22.3620   20.5320  186.5100 C.ar   39  HIS39       0.0821
     84  ND1       21.8850   21.7260  187.0110 N.ar   39  HIS39      -0.2267
     85  CD2       23.3740   20.8590  185.6690 C.ar   39  HIS39       0.1154
     86  CE1       22.5870   22.7260  186.5100 C.ar   39  HIS39       0.1986
     87  NE2       23.5000   22.2280  185.6950 N.ar   39  HIS39      -0.2212
     88  N         25.0510   17.6700  186.5680 N.am   40  ASP40      -0.1957
     89  CA        26.3990   17.8950  187.0740 C.3    40  ASP40       0.1840
     90  C         26.9040   19.2080  186.5060 C.2    40  ASP40       0.2622
     91  O         27.1780   19.3050  185.3080 O.2    40  ASP40      -0.2715
     92  CB        27.3400   16.7460  186.6990 C.3    40  ASP40       0.1450
     93  CG        27.1700   15.5280  187.5960 C.2    40  ASP40       0.3671
     94  OD1       26.9620   15.6980  188.8250 O.co2  40  ASP40      -0.2456
     95  OD2       27.2560   14.3970  187.0690 O.co2  40  ASP40      -0.2456
     96  N         27.0200   20.2150  187.3610 N.am   41  LEU41      -0.1963
     97  CA        27.4080   21.5430  186.9230 C.3    41  LEU41       0.1728
     98  C         28.8130   21.5490  186.3380 C.2    41  LEU41       0.2616
     99  O         29.7770   21.2300  187.0260 O.2    41  LEU41      -0.2715
    100  CB        27.3150   22.5430  188.0730 C.3    41  LEU41       0.0311
    101  CG        25.9010   23.0930  188.3240 C.3    41  LEU41       0.0022
    102  CD1       25.0300   22.0830  189.0460 C.3    41  LEU41       0.0001
    103  CD2       25.9490   24.3920  189.0820 C.3    41  LEU41       0.0001
    104  N         28.9130   21.9020  185.0580 N.am   42  THR42      -0.1951
    105  CA        30.2060   22.0930  184.4060 C.3    42  THR42       0.1897
    106  C         30.9380   23.2830  184.9900 C.2    42  THR42       0.2313
    107  O         30.3250   24.3290  185.2260 O.2    42  THR42      -0.2863
    108  CB        30.0400   22.3170  182.9050 C.3    42  THR42       0.1794
    109  OG1       29.1280   21.3410  182.3910 O.3    42  THR42      -0.2208
    110  CG2       31.3750   22.2120  182.2090 C.3    42  THR42       0.0378
    111  N         31.0270   24.3010  178.0050 N.3    66  THR66      -0.1218
    112  CA        31.3840   25.3700  178.9410 C.3    66  THR66       0.1862
    113  C         30.4370   25.4840  180.1300 C.2    66  THR66       0.2287
    114  O         29.3850   24.8420  180.1670 O.2    66  THR66      -0.2866
    115  CB        31.4240   26.7320  178.2240 C.3    66  THR66       0.1770
    116  OG1       30.1010   27.0980  177.8110 O.3    66  THR66      -0.2211
    117  CG2       32.3380   26.6650  176.9890 C.3    66  THR66       0.0375
    118  N         27.6720   27.1280  182.3020 N.3    68  GLY68      -0.1210
    119  CA        26.5810   28.0830  182.2880 C.3    68  GLY68       0.1956
    120  C         26.4580   28.8670  183.5900 C.2    68  GLY68       0.2611
    121  O         26.0100   30.0170  183.5790 O.2    68  GLY68      -0.2717
    122  N         26.8330   28.2550  184.7150 N.am   69  LEU69      -0.1979
    123  CA        26.6790   28.9040  186.0260 C.3    69  LEU69       0.1596
    124  C         27.5480   30.1510  186.1310 C.2    69  LEU69       0.2287
    125  O         28.7740   30.0760  186.0230 O.2    69  LEU69      -0.2864
    126  CB        27.0350   27.9520  187.1720 C.3    69  LEU69       0.0297
    127  CG        26.6640   28.4990  188.5510 C.3    69  LEU69       0.0022
    128  CD1       25.1480   28.6000  188.6790 C.3    69  LEU69       0.0001
    129  CD2       27.2520   27.6550  189.6810 C.3    69  LEU69       0.0001
    130  N         16.3510   23.4510  173.6310 N.3   123  ASN123     -0.1225
    131  CA        16.4360   22.0800  174.1330 C.3   123  ASN123      0.1785
    132  C         15.2990   21.7430  175.1180 C.2   123  ASN123      0.2597
    133  O         14.6080   22.6370  175.5950 O.2   123  ASN123     -0.2718
    134  CB        17.8120   21.8710  174.7830 C.3   123  ASN123      0.1169
    135  CG        18.0800   20.4280  175.1640 C.2   123  ASN123      0.2627
    136  OD1       17.8200   19.4950  174.3900 O.2   123  ASN123     -0.2716
    137  ND2       18.6060   20.2350  176.3650 N.am  123  ASN123     -0.0877
    138  N         15.1200   20.4480  175.3960 N.am  124  LYS124     -0.1980
    139  CA        14.0570   19.8990  176.2490 C.3   124  LYS124      0.1596
    140  C         12.6890   19.9540  175.5800 C.2   124  LYS124      0.2287
    141  O         11.6800   20.2220  176.2370 O.2   124  LYS124     -0.2864
    142  CB        14.0160   20.6050  177.6130 C.3   124  LYS124      0.0298
    143  CG        15.3700   20.5990  178.3200 C.3   124  LYS124      0.0038
    144  CD        15.2660   20.9490  179.7990 C.3   124  LYS124      0.0206
    145  CE        16.6510   21.1700  180.4050 C.3   124  LYS124      0.1093
    146  NZ        16.5460   21.6140  181.8420 N.3   124  LYS124     -0.1314
    147  N         11.0180   17.5790  174.6850 N.3   126  ASP126     -0.1225
    148  CA        10.2110   16.4840  175.2250 C.3   126  ASP126      0.1805
    149  C          9.3130   16.9390  176.3720 C.2   126  ASP126      0.2597
    150  O          8.3790   16.2380  176.7440 O.2   126  ASP126     -0.2718
    151  CB        11.1020   15.3250  175.7040 C.3   126  ASP126      0.1424
    152  CG        12.1100   15.7470  176.7540 C.2   126  ASP126      0.3668
    153  OD1       13.0360   16.5210  176.4170 O.co2 126  ASP126     -0.2456
    154  OD2       11.9960   15.2980  177.9190 O.co2 126  ASP126     -0.2456
    155  N          9.5850   18.1100  176.9330 N.am  127  LEU127     -0.1979
    156  CA         8.7970   18.5780  178.0750 C.3   127  LEU127      0.1596
    157  C          7.7110   19.5430  177.6290 C.2   127  LEU127      0.2287
    158  O          7.5880   20.6320  178.1810 O.2   127  LEU127     -0.2864
    159  CB         9.6950   19.2550  179.1110 C.3   127  LEU127      0.0297
    160  CG        10.8360   18.4370  179.7130 C.3   127  LEU127      0.0022
    161  CD1       11.6140   19.2700  180.7130 C.3   127  LEU127      0.0001
    162  CD2       10.3240   17.1380  180.3700 C.3   127  LEU127      0.0001
    163  N         15.8140   17.3410  171.9590 N.3   153  SER153     -0.1202
    164  CA        15.7270   16.7310  173.2880 C.3   153  SER153      0.2020
    165  C         16.9340   15.8310  173.4840 C.2   153  SER153      0.2619
    166  O         17.0960   14.8390  172.7640 O.2   153  SER153     -0.2717
    167  CB        14.4420   15.9240  173.4570 C.3   153  SER153      0.2103
    168  OG        14.4640   15.1980  174.6820 O.3   153  SER153     -0.2182
    169  N         17.7970   16.1910  174.4300 N.am  154  ALA154     -0.1965
    170  CA        18.9070   15.3300  174.8150 C.3   154  ALA154      0.1728
    171  C         18.3760   14.0500  175.4480 C.2   154  ALA154      0.2616
    172  O         19.0360   13.0090  175.4340 O.2   154  ALA154     -0.2715
    173  CB        19.8400   16.0530  175.7830 C.3   154  ALA154      0.0334
    174  N         17.1730   14.1320  176.0020 N.am  155  ARG155     -0.1977
    175  CA        16.5820   12.9950  176.6920 C.3   155  ARG155      0.1597
    176  C         16.1710   11.9010  175.7250 C.2   155  ARG155      0.2287
    177  O         16.5250   10.7370  175.9160 O.2   155  ARG155     -0.2864
    178  CB        15.3720   13.4310  177.5140 C.3   155  ARG155      0.0334
    179  CG        14.7140   12.2820  178.2610 C.3   155  ARG155      0.0492
    180  CD        13.6270   12.7930  179.1850 C.3   155  ARG155      0.2205
    181  NE        13.1970   11.7800  180.1400 N.pl3 155  ARG155     -0.0865
    182  CZ        12.1040   11.0390  180.0020 C.cat 155  ARG155      0.5346
    183  NH1       11.3250   11.1910  178.9370 N.pl3 155  ARG155      0.1354
    184  NH2       11.7940   10.1440  180.9310 N.pl3 155  ARG155      0.1354
@<TRIPOS>BOND
     1   163   164    1
     2   166   165    2
     3   164   167    1
     4   164   165    1
     5   167   168    1
     6   165   169   am
     7   130   131    1
     8   131   134    1
     9   131   132    1
    10   136   135    2
    11   169   170    1
    12   147   148    1
    13   134   135    1
    14   170   171    1
    15   170   173    1
    16   132   138   am
    17   132   133    2
    18   135   137   am
    19   148   151    1
    20   148   149    1
    21   138   139    1
    22   172   171    2
    23   171   174   am
    24   140   141    2
    25   140   139    1
    26   151   152    1
    27   176   177    2
    28   176   175    1
    29    41    40    2
    30   174   175    1
    31    26    25    2
    32   139   142    1
    33   149   150    2
    34   149   155   am
    35   153   152   ar
    36    40    39    1
    37   175   178    1
    38   152   154   ar
    39    22    21    2
    40   155   156    1
    41   117   115    1
    42    24    25    1
    43    24    27    1
    44    24    23    1
    45    25    32   am
    46    28    27    1
    47    28    29    1
    48   178   179    1
    49    29    30    1
    50    35    34    2
    51   142   143    1
    52   157   156    1
    53   157   158    2
    54    21    23   am
    55    21    20    1
    56   116   115    1
    57    44    45    1
    58    39    38    1
    59    39    42    1
    60   111   112    1
    61    15    14    2
    62   156   159    1
    63    34    38   am
    64    34    33    1
    65   115   112    1
    66   179   180    1
    67    18    16    1
    68    32    33    1
    69   143   144    1
    70    48    45    1
    71    48    49    1
    72    33    36    1
    73    45    46    1
    74    42    43    1
    75    20    19    1
    76    16    17    1
    77    16    13    1
    78    14    19   am
    79    14    13    1
    80   183   182    1
    81   112   113    1
    82    50    49   ar
    83    50    52   ar
    84    30    31    1
    85   159   160    1
    86    49    51   ar
    87   180   181    1
    88    13    12    1
    89   160   162    1
    90   160   161    1
    91    52    54   ar
    92   144   145    1
    93   182   181    2
    94   182   184    1
    95    36    37    1
    96    46    55   am
    97    46    47    2
    98    51    53   ar
    99   113   114    2
   100   145   146    1
   101    55    56    1
   102    54    53   ar
   103    12    10   am
   104    56    59    1
   105    56    57    1
   106    11    10    2
   107    59    60    1
   108    10     9    1
   109   110   108    1
   110   119   118    1
   111   119   120    1
   112    58    57    2
   113   109   108    1
   114    57    64   am
   115     1     2    1
   116   108   105    1
   117     8     9    1
   118     8     3   am
   119    60    61    1
   120     4     3    2
   121     3     2    1
   122    64    70    1
   123    64    65    1
   124     2     5    1
   125   121   120    2
   126   120   122   am
   127    70    69    1
   128    65    68    1
   129    65    66    1
   130    61    63   am
   131    61    62    2
   132   105   106    1
   133   105   104    1
   134    68    69    1
   135   122   123    1
   136     5     6    1
   137     5     7    1
   138   106   107    2
   139   104    98   am
   140    74    73    2
   141    66    67    2
   142    66    71   am
   143    91    90    2
   144    85    87   ar
   145    85    83   ar
   146    87    86   ar
   147    71    72    1
   148   125   124    2
   149   123   124    1
   150   123   126    1
   151    73    72    1
   152    73    78   am
   153    98    97    1
   154    98    99    2
   155    90    89    1
   156    90    96   am
   157    83    82    1
   158    83    84   ar
   159    86    84   ar
   160    79    78    1
   161    79    82    1
   162    79    80    1
   163    88    89    1
   164    88    80   am
   165    92    89    1
   166    92    93    1
   167    72    75    1
   168    97    96    1
   169    97   100    1
   170    95    93   ar
   171   126   127    1
   172    80    81    2
   173    93    94   ar
   174    75    76    1
   175    75    77    1
   176   100   101    1
   177   101   102    1
   178   101   103    1
   179   127   128    1
   180   127   129    1
