@<TRIPOS>MOLECULE
tmp/4rkfB01.pdb
 79 74 0 0 0
SMALL
GASTEIGER

@<TRIPOS>ATOM
      1  N         26.6870  -12.5040  108.1670 N.3   101  VAL101     -0.1245
      2  CA        27.4910  -11.5140  108.8870 C.3   101  VAL101      0.1561
      3  C         28.9390  -11.4930  108.3770 C.2   101  VAL101      0.2260
      4  O         29.5260  -10.4180  108.1240 O.2   101  VAL101     -0.2867
      5  CB        27.4760  -11.7880  110.4150 C.3   101  VAL101      0.0252
      6  CG1       28.4790  -10.8910  111.1370 C.3   101  VAL101      0.0019
      7  CG2       26.0670  -11.5970  110.9780 C.3   101  VAL101      0.0019
      8  N         29.0920   -9.6360  105.1180 N.3   104  ILE104     -0.1231
      9  CA        29.0960   -8.1900  105.3300 C.3   104  ILE104      0.1692
     10  C         30.4600   -7.7060  105.8180 C.2   104  ILE104      0.2591
     11  O         30.9940   -6.7160  105.3160 O.2   104  ILE104     -0.2718
     12  CB        28.0110   -7.7790  106.3450 C.3   104  ILE104      0.0266
     13  CG1       26.6230   -7.9910  105.7410 C.3   104  ILE104      0.0019
     14  CG2       28.1470   -6.3020  106.7470 C.3   104  ILE104      0.0020
     15  CD1       25.5130   -7.8810  106.7620 C.3   104  ILE104      0.0001
     16  N         31.0460   -8.4050  106.7850 N.am  105  LYS105     -0.1980
     17  CA        32.3290   -7.9560  107.3130 C.3   105  LYS105      0.1596
     18  C         33.4500   -8.0120  106.2770 C.2   105  LYS105      0.2287
     19  O         34.4360   -7.2990  106.3770 O.2   105  LYS105     -0.2864
     20  CB        32.7370   -8.7870  108.5380 C.3   105  LYS105      0.0298
     21  CG        31.8550   -8.5430  109.7710 C.3   105  LYS105      0.0038
     22  CD        32.2970   -9.4390  110.9070 C.3   105  LYS105      0.0206
     23  CE        31.4730   -9.2190  112.1650 C.3   105  LYS105      0.1093
     24  NZ        31.8190  -10.2200  113.2270 N.3   105  LYS105     -0.1314
     25  N         31.7170   -5.3900  102.7110 N.3   108  SER108     -0.1202
     26  CA        31.1020   -4.0860  102.9060 C.3   108  SER108      0.2020
     27  C         32.0280   -3.0370  103.4900 C.2   108  SER108      0.2619
     28  O         33.1660   -3.3030  103.8840 O.2   108  SER108     -0.2717
     29  CB        29.8730   -4.1960  103.8160 C.3   108  SER108      0.2103
     30  OG        30.2650   -4.1870  105.1780 O.3   108  SER108     -0.2182
     31  N         31.5010   -1.8270  103.5300 N.am  109  TRP109     -0.1961
     32  CA        32.1570   -0.6540  104.0870 C.3   109  TRP109      0.1771
     33  C         32.3100   -0.7880  105.5950 C.2   109  TRP109      0.2619
     34  O         31.4200   -1.3360  106.2450 O.2   109  TRP109     -0.2715
     35  CB        31.3100    0.5680  103.7310 C.3   109  TRP109      0.0590
     36  CG        31.7910    1.8850  104.1900 C.ar  109  TRP109      0.0006
     37  CD1       33.0790    2.3490  104.2100 C.ar  109  TRP109      0.0946
     38  CD2       30.9710    2.9460  104.6800 C.ar  109  TRP109      0.0152
     39  NE1       33.1060    3.6400  104.6970 N.ar  109  TRP109     -0.2442
     40  CE2       31.8230    4.0280  104.9870 C.ar  109  TRP109      0.0810
     41  CE3       29.5940    3.0860  104.8880 C.ar  109  TRP109      0.0012
     42  CZ2       31.3410    5.2320  105.4940 C.ar  109  TRP109      0.0191
     43  CZ3       29.1220    4.2740  105.3970 C.ar  109  TRP109      0.0001
     44  CH2       29.9900    5.3370  105.6870 C.ar  109  TRP109      0.0015
     45  N         33.4200   -0.2900  106.1370 N.am  110  ASP110     -0.1971
     46  CA        33.6520   -0.2710  107.5840 C.3   110  ASP110      0.1709
     47  C         32.4650    0.2800  108.3600 C.2   110  ASP110      0.2293
     48  O         32.1310   -0.2070  109.4350 O.2   110  ASP110     -0.2864
     49  CB        34.8870    0.5690  107.9330 C.3   110  ASP110      0.1436
     50  CG        36.1780   -0.1070  107.5560 C.2   110  ASP110      0.3671
     51  OD1       36.1600   -1.3380  107.3170 O.co2 110  ASP110     -0.2456
     52  OD2       37.2080    0.5990  107.5020 O.co2 110  ASP110     -0.2456
     53  N         29.2700    0.4080  107.4920 N.3   112  ALA112     -0.1245
     54  CA        27.9370   -0.0780  107.1320 C.3   112  ALA112      0.1562
     55  C         27.1660   -0.5030  108.3790 C.2   112  ALA112      0.2260
     56  O         27.7210   -1.1320  109.2870 O.2   112  ALA112     -0.2867
     57  CB        28.0360   -1.2280  106.1500 C.3   112  ALA112      0.0290
     58  N         23.8100   -2.4890  110.1800 N.3   114  VAL114     -0.1245
     59  CA        23.1160   -3.7490  109.9790 C.3   114  VAL114      0.1561
     60  C         21.9500   -3.8630  110.9580 C.2   114  VAL114      0.2260
     61  O         22.1240   -3.5760  112.1550 O.2   114  VAL114     -0.2867
     62  CB        24.0630   -4.9630  110.1950 C.3   114  VAL114      0.0252
     63  CG1       23.3370   -6.2760  109.9770 C.3   114  VAL114      0.0019
     64  CG2       25.3000   -4.8610  109.3300 C.3   114  VAL114      0.0019
     65  N         25.5970  -10.0880  118.2750 N.3   141  LEU141     -0.1245
     66  CA        26.2070   -9.4280  117.1150 C.3   141  LEU141      0.1561
     67  C         26.3620   -7.9230  117.3050 C.2   141  LEU141      0.2260
     68  O         27.0940   -7.2770  116.5480 O.2   141  LEU141     -0.2867
     69  CB        25.3720   -9.6800  115.8590 C.3   141  LEU141      0.0270
     70  CG        25.2290  -11.1340  115.4230 C.3   141  LEU141      0.0019
     71  CD1       24.1650  -11.2460  114.3250 C.3   141  LEU141      0.0001
     72  CD2       26.5690  -11.6560  114.9210 C.3   141  LEU141      0.0001
     73  N         23.6920   -5.7160  117.1120 N.3   143  VAL143     -0.1245
     74  CA        22.8280   -5.0400  116.1440 C.3   143  VAL143      0.1561
     75  C         21.4010   -4.9790  116.6570 C.2   143  VAL143      0.2260
     76  O         20.9980   -5.7550  117.5380 O.2   143  VAL143     -0.2867
     77  CB        22.8320   -5.7300  114.7410 C.3   143  VAL143      0.0252
     78  CG1       24.2330   -5.7850  114.1670 C.3   143  VAL143      0.0019
     79  CG2       22.2400   -7.1470  114.8100 C.3   143  VAL143      0.0019
@<TRIPOS>BOND
     1    25    26    1
     2    26    27    1
     3    26    29    1
     4    27    31   am
     5    27    28    2
     6    31    32    1
     7    35    32    1
     8    35    36    1
     9    29    30    1
    10    32    33    1
    11    36    37   ar
    12    36    38   ar
    13    37    39   ar
    14    38    41   ar
    15    38    40   ar
    16    39    40   ar
    17    41    43   ar
    18    40    42   ar
    19     8     9    1
    20    11    10    2
    21     9    10    1
    22     9    12    1
    23    43    44   ar
    24    42    44   ar
    25    33    45   am
    26    33    34    2
    27    13    12    1
    28    13    15    1
    29    10    16   am
    30    45    46    1
    31    57    54    1
    32    18    19    2
    33    18    17    1
    34    12    14    1
    35    16    17    1
    36    54    53    1
    37    54    55    1
    38    17    20    1
    39    51    50   ar
    40    52    50   ar
    41    50    49    1
    42    46    49    1
    43    46    47    1
    44     4     3    2
    45     1     2    1
    46    47    48    2
    47     3     2    1
    48    55    56    2
    49    20    21    1
    50     2     5    1
    51    64    62    1
    52    21    22    1
    53    63    62    1
    54    59    58    1
    55    59    62    1
    56    59    60    1
    57     5     7    1
    58     5     6    1
    59    22    23    1
    60    60    61    2
    61    23    24    1
    62    78    77    1
    63    71    70    1
    64    77    79    1
    65    77    74    1
    66    72    70    1
    67    70    69    1
    68    69    66    1
    69    74    75    1
    70    74    73    1
    71    68    67    2
    72    75    76    2
    73    66    67    1
    74    66    65    1
