@<TRIPOS>MOLECULE
tmp/4rkfA00.pdb
 185 180 0 0 0
SMALL
GASTEIGER

@<TRIPOS>ATOM
      1  N         15.9240    1.6620  146.0310 N.3    15  SER15      -0.1202
      2  CA        17.0820    2.2510  146.6940 C.3    15  SER15       0.2020
      3  C         18.3670    1.4050  146.4680 C.2    15  SER15       0.2619
      4  O         18.3220    0.1700  146.5610 O.2    15  SER15      -0.2717
      5  CB        16.8020    2.4000  148.1970 C.3    15  SER15       0.2103
      6  OG        17.9350    2.9370  148.8790 O.3    15  SER15      -0.2182
      7  N         19.4730    2.1350  146.1680 N.am   16  SER16      -0.1937
      8  CA        20.8590    1.6380  146.0000 C.3    16  SER16       0.2055
      9  C         21.2010    1.1370  144.6010 C.2    16  SER16       0.2643
     10  O         22.3320    0.7040  144.3760 O.2    16  SER16      -0.2714
     11  CB        21.2270    0.5290  147.0220 C.3    16  SER16       0.2130
     12  OG        20.7650   -0.7550  146.5980 O.3    16  SER16      -0.2179
     13  N         20.2570    1.2230  143.6530 N.am   17  VAL17      -0.1963
     14  CA        20.5590    0.6760  142.3160 C.3    17  VAL17       0.1727
     15  C         21.5020    1.5540  141.5010 C.2    17  VAL17       0.2617
     16  O         22.0920    1.0740  140.5350 O.2    17  VAL17      -0.2715
     17  CB        19.2830    0.3960  141.4910 C.3    17  VAL17       0.0290
     18  CG1       18.3640   -0.5760  142.2430 C.3    17  VAL17       0.0023
     19  CG2       18.5450    1.6700  141.1470 C.3    17  VAL17       0.0023
     20  N         21.6500    2.8100  141.9110 N.am   18  GLY18      -0.1940
     21  CA        22.6340    3.7140  141.3180 C.3    18  GLY18       0.2014
     22  C         22.0210    4.8940  140.5700 C.2    18  GLY18       0.2639
     23  O         22.6440    5.4150  139.6410 O.2    18  GLY18      -0.2714
     24  N         20.8150    5.3280  140.9410 N.am   19  LYS19      -0.1963
     25  CA        20.1310    6.4140  140.2250 C.3    19  LYS19       0.1728
     26  C         20.8760    7.7440  140.3310 C.2    19  LYS19       0.2617
     27  O         21.1350    8.4080  139.3070 O.2    19  LYS19      -0.2715
     28  CB        18.6860    6.5620  140.7410 C.3    19  LYS19       0.0311
     29  CG        17.8540    5.2930  140.5100 C.3    19  LYS19       0.0038
     30  CD        16.4130    5.4380  141.0310 C.3    19  LYS19       0.0206
     31  CE        16.3140    5.7480  142.5450 C.3    19  LYS19       0.1093
     32  NZ        16.9490    4.6880  143.4090 N.3    19  LYS19      -0.1314
     33  N         21.2430    8.1140  141.5470 N.am   20  THR20      -0.1937
     34  CA        22.0050    9.3420  141.7610 C.3    20  THR20       0.2028
     35  C         23.3450    9.2560  141.0360 C.2    20  THR20       0.2642
     36  O         23.7880   10.2180  140.4010 O.2    20  THR20      -0.2714
     37  CB        22.1790    9.5810  143.2680 C.3    20  THR20       0.1808
     38  OG1       20.8640    9.7120  143.8150 O.3    20  THR20      -0.2208
     39  CG2       22.9740   10.8490  143.5830 C.3    20  THR20       0.0379
     40  N         23.9890    8.0940  141.1270 N.am   21  SER21      -0.1949
     41  CA        25.2640    7.9180  140.4350 C.3    21  SER21       0.1924
     42  C         25.1170    8.0470  138.9250 C.2    21  SER21       0.2314
     43  O         26.0030    8.5730  138.2500 O.2    21  SER21      -0.2863
     44  CB        25.8920    6.5600  140.7610 C.3    21  SER21       0.2116
     45  OG        26.1730    6.4140  142.1490 O.3    21  SER21      -0.2180
     46  N         31.9300   10.2680  139.8440 N.3    31  PHE31      -0.1227
     47  CA        31.4830    9.0810  140.5500 C.3    31  PHE31       0.1736
     48  C         31.9610    9.1410  141.9840 C.2    31  PHE31       0.2596
     49  O         33.1050    9.5590  142.2440 O.2    31  PHE31      -0.2718
     50  CB        32.0260    7.8050  139.8840 C.3    31  PHE31       0.0547
     51  CG        31.6290    6.5360  140.6010 C.ar   31  PHE31      -0.0202
     52  CD1       30.3620    5.9840  140.4070 C.ar   31  PHE31      -0.0042
     53  CD2       32.5110    5.8980  141.4610 C.ar   31  PHE31      -0.0042
     54  CE1       29.9950    4.8230  141.0720 C.ar   31  PHE31      -0.0003
     55  CE2       32.1340    4.7330  142.1310 C.ar   31  PHE31      -0.0003
     56  CZ        30.8830    4.1990  141.9270 C.ar   31  PHE31      -0.0000
     57  N         31.1120    8.6910  142.9000 N.am   32  THR32      -0.1939
     58  CA        31.5620    8.4040  144.2540 C.3    32  THR32       0.2028
     59  C         31.1290    7.0050  144.6700 C.2    32  THR32       0.2643
     60  O         30.0320    6.5420  144.3390 O.2    32  THR32      -0.2714
     61  CB        31.0400    9.4220  145.2690 C.3    32  THR32       0.1808
     62  OG1       31.5380    9.0640  146.5630 O.3    32  THR32      -0.2208
     63  CG2       29.5160    9.4360  145.3020 C.3    32  THR32       0.0379
     64  N         32.0030    6.3310  145.4100 N.am   33  SER33      -0.1935
     65  CA        31.6900    5.0200  145.9710 C.3    33  SER33       0.2055
     66  C         30.7620    5.1250  147.1840 C.2    33  SER33       0.2643
     67  O         30.1930    4.1250  147.6020 O.2    33  SER33      -0.2714
     68  CB        32.9820    4.3170  146.3740 C.3    33  SER33       0.2130
     69  OG        33.6860    5.1120  147.3200 O.3    33  SER33      -0.2179
     70  N         30.6290    6.3190  147.7490 N.am   34  ALA34      -0.1963
     71  CA        29.7820    6.4910  148.9390 C.3    34  ALA34       0.1728
     72  C         28.3170    6.2550  148.5750 C.2    34  ALA34       0.2616
     73  O         27.8640    6.6010  147.4650 O.2    34  ALA34      -0.2715
     74  CB        29.9580    7.8830  149.5410 C.3    34  ALA34       0.0334
     75  N         27.5730    5.6560  149.4990 N.am   35  PHE35      -0.1960
     76  CA        26.1390    5.4750  149.3160 C.3    35  PHE35       0.1771
     77  C         25.4280    6.3860  150.3060 C.2    35  PHE35       0.2619
     78  O         25.3290    6.0880  151.4910 O.2    35  PHE35      -0.2715
     79  CB        25.7530    4.0130  149.5180 C.3    35  PHE35       0.0574
     80  CG        24.2780    3.7450  149.4430 C.ar   35  PHE35      -0.0200
     81  CD1       23.4290    4.5880  148.7540 C.ar   35  PHE35      -0.0042
     82  CD2       23.7420    2.6370  150.0910 C.ar   35  PHE35      -0.0042
     83  CE1       22.0540    4.3380  148.7100 C.ar   35  PHE35      -0.0003
     84  CE2       22.3790    2.3700  150.0450 C.ar   35  PHE35      -0.0003
     85  CZ        21.5310    3.2320  149.3410 C.ar   35  PHE35      -0.0000
     86  N         24.9470    7.5080  149.8090 N.am   36  VAL36      -0.1963
     87  CA        24.1420    8.4200  150.6110 C.3    36  VAL36       0.1727
     88  C         22.7680    8.4630  149.9640 C.2    36  VAL36       0.2617
     89  O         22.6190    9.0060  148.8650 O.2    36  VAL36      -0.2715
     90  CB        24.7530    9.8420  150.6880 C.3    36  VAL36       0.0290
     91  CG1       23.8570   10.7840  151.4850 C.3    36  VAL36       0.0023
     92  CG2       26.1670    9.7990  151.3040 C.3    36  VAL36       0.0023
     93  N         21.7680    7.8670  150.6080 N.am   37  SER37      -0.1936
     94  CA        20.4220    7.8330  150.0010 C.3    37  SER37       0.2055
     95  C         19.8680    9.2230  149.7640 C.2    37  SER37       0.2643
     96  O         20.0570   10.1330  150.5650 O.2    37  SER37      -0.2714
     97  CB        19.4370    7.0440  150.8720 C.3    37  SER37       0.2130
     98  OG        19.5530    5.6610  150.6180 O.3    37  SER37      -0.2179
     99  N         19.1750    9.3540  148.6390 N.am   38  THR38      -0.1950
    100  CA        18.4460   10.5520  148.2750 C.3    38  THR38       0.1897
    101  C         17.2060   10.7300  149.1380 C.2    38  THR38       0.2313
    102  O         16.4940    9.7700  149.4040 O.2    38  THR38      -0.2863
    103  CB        18.0890   10.4750  146.7920 C.3    38  THR38       0.1794
    104  OG1       19.3290   10.2880  146.0690 O.3    38  THR38      -0.2208
    105  CG2       17.4210   11.7450  146.3140 C.3    38  THR38       0.0378
    106  N         15.9960   13.1210  139.8880 N.3    61  ASP61      -0.1225
    107  CA        16.5740   11.9670  140.5550 C.3    61  ASP61       0.1805
    108  C         15.7180   11.6390  141.7580 C.2    61  ASP61       0.2598
    109  O         15.7080   12.3880  142.7320 O.2    61  ASP61      -0.2718
    110  CB        17.9980   12.3170  140.9600 C.3    61  ASP61       0.1424
    111  CG        18.6730   11.2310  141.7840 C.2    61  ASP61       0.3668
    112  OD1       18.2380   10.0640  141.7100 O.co2  61  ASP61      -0.2456
    113  OD2       19.6570   11.5940  142.4760 O.co2  61  ASP61      -0.2456
    114  N         14.9570   10.5590  141.6730 N.am   62  THR62      -0.1953
    115  CA        14.0230   10.2210  142.7460 C.3    62  THR62       0.1897
    116  C         14.6630    9.3540  143.8090 C.2    62  THR62       0.2313
    117  O         15.5280    8.5290  143.5490 O.2    62  THR62      -0.2863
    118  CB        12.7720    9.4790  142.2170 C.3    62  THR62       0.1794
    119  OG1       13.1520    8.1850  141.7130 O.3    62  THR62      -0.2208
    120  CG2       12.0200   10.3090  141.1680 C.3    62  THR62       0.0378
    121  N         14.6840    6.1640  145.9570 N.3    64  GLY64      -0.1210
    122  CA        14.1340    4.8240  145.8660 C.3    64  GLY64       0.1956
    123  C         13.5260    4.2950  147.1640 C.2    64  GLY64       0.2611
    124  O         12.7260    3.3580  147.1240 O.2    64  GLY64      -0.2717
    125  N         13.9250    4.8640  148.2970 N.am   65  LEU65      -0.1979
    126  CA        13.4200    4.3870  149.5890 C.3    65  LEU65       0.1596
    127  C         11.8980    4.5430  149.6710 C.2    65  LEU65       0.2287
    128  O         11.3530    5.5770  149.2480 O.2    65  LEU65      -0.2864
    129  CB        14.0760    5.1480  150.7430 C.3    65  LEU65       0.0297
    130  CG        15.5360    4.7780  150.9990 C.3    65  LEU65       0.0022
    131  CD1       16.1170    5.7630  152.0130 C.3    65  LEU65       0.0001
    132  CD2       15.5890    3.3410  151.5240 C.3    65  LEU65       0.0001
    133  N         21.8490   -1.5680  135.8170 N.3   119  ASN119     -0.1225
    134  CA        23.0820   -0.8650  136.1760 C.3   119  ASN119      0.1785
    135  C         24.0480   -1.7600  136.9610 C.2   119  ASN119      0.2597
    136  O         23.6850   -2.8630  137.4290 O.2   119  ASN119     -0.2718
    137  CB        22.7260    0.3990  136.9840 C.3   119  ASN119      0.1169
    138  CG        23.8990    1.3420  137.1950 C.2   119  ASN119      0.2627
    139  OD1       24.6750    1.6290  136.2770 O.2   119  ASN119     -0.2716
    140  ND2       24.0300    1.8460  138.4140 N.am  119  ASN119     -0.0877
    141  N         25.2750   -1.2660  137.0790 N.am  120  LYS120     -0.1980
    142  CA        26.3940   -1.8970  137.7780 C.3   120  LYS120      0.1596
    143  C         26.9220   -3.0990  137.0000 C.2   120  LYS120      0.2287
    144  O         27.3960   -4.0630  137.5850 O.2   120  LYS120     -0.2864
    145  CB        26.0280   -2.3050  139.2200 C.3   120  LYS120      0.0298
    146  CG        25.3620   -1.1970  140.0540 C.3   120  LYS120      0.0038
    147  CD        25.5250   -1.4390  141.5430 C.3   120  LYS120      0.0206
    148  CE        24.7190   -0.4290  142.3450 C.3   120  LYS120      0.1093
    149  NZ        24.6800   -0.8520  143.7920 N.3   120  LYS120     -0.1314
    150  N         29.5690   -3.4580  135.5880 N.3   122  ASP122     -0.1225
    151  CA        30.9900   -3.6710  135.8760 C.3   122  ASP122      0.1805
    152  C         31.2370   -4.7150  136.9590 C.2   122  ASP122      0.2597
    153  O         32.3470   -5.2740  137.0430 O.2   122  ASP122     -0.2718
    154  CB        31.6470   -2.3520  136.2870 C.3   122  ASP122      0.1424
    155  CG        30.9900   -1.7350  137.5200 C.2   122  ASP122      0.3668
    156  OD1       29.8550   -1.2210  137.4050 O.co2 122  ASP122     -0.2456
    157  OD2       31.6280   -1.7670  138.5920 O.co2 122  ASP122     -0.2456
    158  N         30.2240   -4.9740  137.7840 N.am  123  MET123     -0.1979
    159  CA        30.3570   -5.8750  138.9170 C.3   123  MET123      0.1605
    160  C         30.0950   -7.3180  138.5000 C.2   123  MET123      0.2287
    161  O         29.1980   -7.9780  139.0400 O.2   123  MET123     -0.2864
    162  CB        29.3960   -5.4680  140.0440 C.3   123  MET123      0.0413
    163  CG        29.5770   -4.0350  140.5800 C.3   123  MET123      0.0598
    164  SD        28.5990   -3.6650  142.0840 S.3   123  MET123     -0.1393
    165  CE        29.4480   -4.7050  143.2570 C.3   123  MET123      0.0692
    166  N         27.0430    1.0250  133.3700 N.3   149  SER149     -0.1202
    167  CA        27.8610    1.2210  134.5530 C.3   149  SER149      0.2020
    168  C         28.0500    2.7250  134.8030 C.2   149  SER149      0.2619
    169  O         28.7830    3.3910  134.0750 O.2   149  SER149     -0.2717
    170  CB        29.2270    0.5380  134.4010 C.3   149  SER149      0.2103
    171  OG        29.9830    0.7620  135.5880 O.3   149  SER149     -0.2182
    172  N         27.4060    3.2670  135.8370 N.am  150  ALA150     -0.1965
    173  CA        27.7280    4.6200  136.2410 C.3   150  ALA150      0.1728
    174  C         29.1840    4.6980  136.6640 C.2   150  ALA150      0.2616
    175  O         29.8430    5.7060  136.4390 O.2   150  ALA150     -0.2715
    176  CB        26.8300    5.0710  137.3750 C.3   150  ALA150      0.0334
    177  N         29.6830    3.6240  137.2800 N.am  151  LYS151     -0.1977
    178  CA        31.0430    3.6510  137.8170 C.3   151  LYS151      0.1596
    179  C         32.1010    3.7640  136.7090 C.2   151  LYS151      0.2287
    180  O         33.0180    4.5890  136.8110 O.2   151  LYS151     -0.2864
    181  CB        31.3060    2.4170  138.6880 C.3   151  LYS151      0.0298
    182  CG        32.6960    2.4030  139.3020 C.3   151  LYS151      0.0038
    183  CD        32.7750    1.3850  140.4530 C.3   151  LYS151      0.0206
    184  CE        34.1200    1.4110  141.1770 C.3   151  LYS151      0.1093
    185  NZ        35.2850    0.9520  140.3180 N.3   151  LYS151     -0.1314
@<TRIPOS>BOND
     1   166   167    1
     2   169   168    2
     3   170   167    1
     4   170   171    1
     5   167   168    1
     6   168   172   am
     7   150   151    1
     8   133   134    1
     9   172   173    1
    10   151   154    1
    11   151   152    1
    12   134   135    1
    13   134   137    1
    14   173   174    1
    15   173   176    1
    16   139   138    2
    17   154   155    1
    18   175   174    2
    19   174   177   am
    20   179   180    2
    21   179   178    1
    22   152   153    2
    23   152   158   am
    24   135   141   am
    25   135   136    2
    26   137   138    1
    27   143   144    2
    28   143   142    1
    29   141   142    1
    30   138   140   am
    31   177   178    1
    32   156   155   ar
    33   155   157   ar
    34   142   145    1
    35   158   159    1
    36   178   181    1
    37    43    42    2
    38   160   159    1
    39   160   161    2
    40   181   182    1
    41   159   162    1
    42    42    41    1
    43   145   146    1
    44   182   183    1
    45    27    26    2
    46    23    22    2
    47    46    47    1
    48    50    47    1
    49    50    51    1
    50   106   107    1
    51   162   163    1
    52   146   147    1
    53    25    26    1
    54    25    28    1
    55    25    24    1
    56   185   184    1
    57    26    33   am
    58    36    35    2
    59    52    51   ar
    60    52    54   ar
    61    41    44    1
    62    41    40    1
    63   183   184    1
    64    29    28    1
    65    29    30    1
    66    16    15    2
    67    47    48    1
    68   107   110    1
    69   107   108    1
    70    22    24   am
    71    22    21    1
    72   163   164    1
    73    51    53   ar
    74    44    45    1
    75   110   111    1
    76    30    31    1
    77    35    40   am
    78    35    34    1
    79    54    56   ar
    80    19    17    1
    81   120   118    1
    82    21    20    1
    83    53    55   ar
    84    17    18    1
    85    17    14    1
    86    15    20   am
    87    15    14    1
    88   147   148    1
    89    33    34    1
    90   114   108   am
    91   114   115    1
    92   112   111   ar
    93   119   118    1
    94   108   109    2
    95    34    37    1
    96   111   113   ar
    97    56    55   ar
    98    48    49    2
    99    48    57   am
   100   164   165    1
   101   118   115    1
   102    14    13    1
   103   148   149    1
   104    31    32    1
   105   115   116    1
   106    57    58    1
   107    37    39    1
   108    37    38    1
   109   117   116    2
   110    13     9   am
   111    58    59    1
   112    58    61    1
   113    60    59    2
   114    10     9    2
   115     9     8    1
   116    59    64   am
   117    61    63    1
   118    61    62    1
   119    64    65    1
   120   122   121    1
   121   122   123    1
   122    65    68    1
   123    65    66    1
   124     8     7    1
   125     8    11    1
   126     1     2    1
   127   104   103    1
   128     7     3   am
   129   105   103    1
   130    68    69    1
   131     3     4    2
   132     3     2    1
   133    12    11    1
   134     2     5    1
   135   103   100    1
   136   124   123    2
   137   123   125   am
   138    66    67    2
   139    66    70   am
   140    73    72    2
   141    70    71    1
   142     5     6    1
   143   100    99    1
   144   100   101    1
   145   125   126    1
   146    72    71    1
   147    72    75   am
   148    99    95   am
   149    83    81   ar
   150    83    85   ar
   151    81    80   ar
   152    89    88    2
   153    71    74    1
   154   101   102    2
   155   128   127    2
   156    76    75    1
   157    76    79    1
   158    76    77    1
   159    85    84   ar
   160    80    79    1
   161    80    82   ar
   162   126   127    1
   163   126   129    1
   164    95    94    1
   165    95    96    2
   166    86    77   am
   167    86    87    1
   168    88    93   am
   169    88    87    1
   170    94    93    1
   171    94    97    1
   172    84    82   ar
   173    77    78    2
   174    87    90    1
   175    98    97    1
   176    90    92    1
   177    90    91    1
   178   129   130    1
   179   130   132    1
   180   130   131    1
