@<TRIPOS>MOLECULE
tmp/4rknB05.pdb
 189 181 0 0 0
SMALL
GASTEIGER

@<TRIPOS>ATOM
      1  N         49.1610  -20.4140  134.0970 N.3   381  ALA381     -0.1231
      2  CA        50.1610  -19.4370  133.6960 C.3   381  ALA381      0.1694
      3  C         50.7950  -19.7670  132.3720 C.2   381  ALA381      0.2592
      4  O         51.0710  -18.8680  131.5470 O.2   381  ALA381     -0.2718
      5  CB        51.2630  -19.3720  134.7460 C.3   381  ALA381      0.0304
      6  N         51.1560  -21.0400  132.1650 N.am  382  HIS382     -0.1976
      7  CA        51.7000  -21.4180  130.8570 C.3   382  HIS382      0.1656
      8  C         50.9080  -20.8940  129.6710 C.2   382  HIS382      0.2291
      9  O         51.4640  -20.2490  128.7400 O.2   382  HIS382     -0.2864
     10  CB        51.8230  -22.9380  130.7730 C.3   382  HIS382      0.0771
     11  CG        52.8890  -23.4760  131.6470 C.ar  382  HIS382      0.0820
     12  ND1       52.9560  -24.8070  132.0070 N.ar  382  HIS382     -0.2267
     13  CD2       53.9980  -22.8810  132.1510 C.ar  382  HIS382      0.1154
     14  CE1       54.0440  -24.9960  132.7240 C.ar  382  HIS382      0.1986
     15  NE2       54.6610  -23.8360  132.8640 N.ar  382  HIS382     -0.2212
     16  N         50.9950  -17.1710  129.2120 N.3   385  LYS385     -0.1245
     17  CA        52.2340  -16.7580  128.6200 C.3   385  LYS385      0.1561
     18  C         52.4220  -17.1800  127.2220 C.2   385  LYS385      0.2260
     19  O         53.5090  -16.9570  126.6680 O.2   385  LYS385     -0.2867
     20  CB        53.4510  -17.1990  129.5060 C.3   385  LYS385      0.0271
     21  CG        53.3290  -16.6200  130.9130 C.3   385  LYS385      0.0035
     22  CD        53.7320  -15.1550  130.8290 C.3   385  LYS385      0.0206
     23  CE        53.7450  -14.4520  132.1720 C.3   385  LYS385      0.1093
     24  NZ        53.8670  -13.0300  131.7900 N.3   385  LYS385     -0.1314
     25  N         51.9730  -20.2650  125.7730 N.3   387  MET387     -0.1245
     26  CA        52.3870  -21.6410  125.5420 C.3   387  MET387      0.1570
     27  C         51.1720  -22.4340  125.1260 C.2   387  MET387      0.2261
     28  O         50.0430  -22.1620  125.6150 O.2   387  MET387     -0.2867
     29  CB        53.0210  -22.2190  126.8050 C.3   387  MET387      0.0387
     30  CG        54.3710  -21.5270  127.1200 C.3   387  MET387      0.0595
     31  SD        54.9210  -21.8770  128.8150 S.3   387  MET387     -0.1393
     32  CE        55.2100  -23.6640  128.7800 C.3   387  MET387      0.0692
     33  N         54.2680  -26.1120  121.8820 N.3   391  THR391     -0.1203
     34  CA        55.3630  -25.4790  122.5200 C.3   391  THR391      0.1994
     35  C         56.2040  -26.5920  123.1130 C.2   391  THR391      0.2618
     36  O         57.4170  -26.6020  122.9660 O.2   391  THR391     -0.2717
     37  CB        54.8960  -24.5230  123.6540 C.3   391  THR391      0.1784
     38  OG1       54.1280  -23.4910  123.1020 O.3   391  THR391     -0.2211
     39  CG2       56.0940  -23.8040  124.3100 C.3   391  THR391      0.0376
     40  N         55.5600  -27.5090  123.8330 N.am  392  CYS392     -0.1969
     41  CA        56.2990  -28.5830  124.4620 C.3   392  CYS392      0.1712
     42  C         56.3910  -29.8990  123.7020 C.2   392  CYS392      0.2296
     43  O         57.3680  -30.6450  123.8480 O.2   392  CYS392     -0.2864
     44  CB        55.6510  -28.8780  125.7730 C.3   392  CYS392      0.0983
     45  SG        55.7550  -27.5150  126.9950 S.3   392  CYS392     -0.0798
     46  N         59.1610  -34.6340  123.5060 N.3   429  LEU429     -0.1245
     47  CA        59.0910  -33.2450  123.8530 C.3   429  LEU429      0.1561
     48  C         60.1900  -32.4070  123.2410 C.2   429  LEU429      0.2260
     49  O         61.3390  -32.8100  123.1920 O.2   429  LEU429     -0.2867
     50  CB        59.1520  -33.0520  125.3650 C.3   429  LEU429      0.0270
     51  CG        58.1090  -33.7710  126.2400 C.3   429  LEU429      0.0019
     52  CD1       58.3260  -33.5190  127.7160 C.3   429  LEU429      0.0001
     53  CD2       56.6590  -33.4430  125.8660 C.3   429  LEU429      0.0001
     54  N         60.5300  -29.2930  124.6050 N.3   431  LYS431     -0.1231
     55  CA        60.9420  -28.5830  125.8340 C.3   431  LYS431      0.1693
     56  C         60.6860  -29.4520  127.0700 C.2   431  LYS431      0.2592
     57  O         59.5920  -30.0680  127.2000 O.2   431  LYS431     -0.2718
     58  CB        60.2160  -27.2280  125.9500 C.3   431  LYS431      0.0285
     59  CG        60.6470  -26.2860  124.8270 C.3   431  LYS431      0.0035
     60  CD        60.2280  -24.8530  124.9380 C.3   431  LYS431      0.0206
     61  CE        60.7120  -24.0140  123.7260 C.3   431  LYS431      0.1093
     62  NZ        62.0750  -24.4740  123.2100 N.3   431  LYS431     -0.1314
     63  N         61.7010  -29.5350  127.9490 N.am  432  GLU432     -0.1966
     64  CA        61.5710  -30.1070  129.2960 C.3   432  GLU432      0.1733
     65  C         61.3670  -28.9590  130.3010 C.2   432  GLU432      0.2616
     66  O         61.7110  -27.8210  130.0100 O.2   432  GLU432     -0.2715
     67  CB        62.8250  -30.9110  129.6820 C.3   432  GLU432      0.0429
     68  CG        63.3300  -31.9210  128.6490 C.3   432  GLU432      0.1163
     69  CD        62.3570  -33.1000  128.3880 C.2   432  GLU432      0.3649
     70  OE1       61.6730  -33.5120  129.3290 O.co2 432  GLU432     -0.2457
     71  OE2       62.2680  -33.6070  127.2320 O.co2 432  GLU432     -0.2457
     72  N         60.8530  -29.2680  131.5010 N.am  433  CYS433     -0.1968
     73  CA        60.6000  -28.2530  132.5200 C.3   433  CYS433      0.1712
     74  C         61.8920  -27.5510  132.8620 C.2   433  CYS433      0.2296
     75  O         61.9260  -26.3490  133.0860 O.2   433  CYS433     -0.2864
     76  CB        60.0580  -28.8690  133.8160 C.3   433  CYS433      0.0983
     77  SG        58.7630  -30.0850  133.6100 S.3   433  CYS433     -0.0798
     78  N         63.2480  -24.1920  131.0410 N.3   436  CYS436     -0.1221
     79  CA        62.7930  -22.8920  131.3600 C.3   436  CYS436      0.1808
     80  C         62.8450  -22.5900  132.8650 C.2   436  CYS436      0.2601
     81  O         62.7310  -21.4420  133.2450 O.2   436  CYS436     -0.2717
     82  CB        61.3600  -22.7850  130.9520 C.3   436  CYS436      0.0970
     83  SG        61.0590  -22.8640  129.1550 S.3   436  CYS436     -0.0800
     84  N         62.9440  -23.6040  133.7230 N.am  437  HIS437     -0.1975
     85  CA        62.9400  -23.3530  135.1500 C.3   437  HIS437      0.1656
     86  C         64.3180  -23.7800  135.7380 C.2   437  HIS437      0.2291
     87  O         64.4630  -24.8240  136.3970 O.2   437  HIS437     -0.2864
     88  CB        61.8030  -24.1600  135.7810 C.3   437  HIS437      0.0771
     89  CG        60.4590  -23.6720  135.4130 C.ar  437  HIS437      0.0820
     90  ND1       60.0050  -22.4310  135.7960 N.ar  437  HIS437     -0.2267
     91  CD2       59.4520  -24.2540  134.6970 C.ar  437  HIS437      0.1154
     92  CE1       58.7840  -22.2510  135.3120 C.ar  437  HIS437      0.1986
     93  NE2       58.4240  -23.3480  134.6570 N.ar  437  HIS437     -0.2212
     94  N         60.5170  -33.7190  137.2810 N.3   455  CYS455     -0.1221
     95  CA        59.6110  -32.5550  137.6220 C.3   455  CYS455      0.1808
     96  C         58.1100  -32.8930  137.4940 C.2   455  CYS455      0.2601
     97  O         57.2840  -32.5840  138.3700 O.2   455  CYS455     -0.2717
     98  CB        59.9360  -31.3180  136.7650 C.3   455  CYS455      0.0970
     99  SG        61.6830  -30.9690  136.7310 S.3   455  CYS455     -0.0800
    100  N         57.8050  -33.6580  136.4550 N.am  456  ALA456     -0.1979
    101  CA        56.4480  -34.0690  136.1880 C.3   456  ALA456      0.1597
    102  C         55.8520  -34.9520  137.2990 C.2   456  ALA456      0.2287
    103  O         54.6540  -34.9320  137.5050 O.2   456  ALA456     -0.2864
    104  CB        56.3750  -34.7790  134.8540 C.3   456  ALA456      0.0319
    105  N         54.2620  -32.5560  139.7210 N.3   459  HIS459     -0.1226
    106  CA        53.4890  -31.5010  139.1050 C.3   459  HIS459      0.1752
    107  C         52.4160  -31.9400  138.1330 C.2   459  HIS459      0.2595
    108  O         51.4690  -31.1690  137.8930 O.2   459  HIS459     -0.2718
    109  CB        54.4610  -30.5440  138.3750 C.3   459  HIS459      0.0759
    110  CG        55.1650  -29.6160  139.3040 C.ar  459  HIS459      0.0818
    111  ND1       54.5310  -28.5250  139.8510 N.ar  459  HIS459     -0.2268
    112  CD2       56.4100  -29.6570  139.8520 C.ar  459  HIS459      0.1154
    113  CE1       55.3640  -27.8970  140.6730 C.ar  459  HIS459      0.1986
    114  NE2       56.4910  -28.5920  140.7240 N.ar  459  HIS459     -0.2212
    115  N         52.5560  -33.1550  137.5820 N.am  460  MET460     -0.1979
    116  CA        51.5760  -33.7190  136.6260 C.3   460  MET460      0.1605
    117  C         51.1070  -35.1230  137.0090 C.2   460  MET460      0.2287
    118  O         51.3850  -36.0710  136.3170 O.2   460  MET460     -0.2864
    119  CB        52.1270  -33.7490  135.2200 C.3   460  MET460      0.0413
    120  CG        52.7250  -32.4030  134.7770 C.3   460  MET460      0.0598
    121  SD        53.4750  -32.4220  133.1400 S.3   460  MET460     -0.1393
    122  CE        52.0550  -32.4870  132.0490 C.3   460  MET460      0.0692
    123  N         48.1520  -28.9610  134.5290 N.3   488  ILE488     -0.1231
    124  CA        47.7920  -27.8730  135.4660 C.3   488  ILE488      0.1692
    125  C         49.0430  -27.2030  136.1350 C.2   488  ILE488      0.2592
    126  O         49.0770  -25.9400  136.2720 O.2   488  ILE488     -0.2718
    127  CB        46.8950  -28.4790  136.5330 C.3   488  ILE488      0.0266
    128  CG1       45.5460  -28.8320  135.9170 C.3   488  ILE488      0.0019
    129  CG2       46.5940  -27.5160  137.6840 C.3   488  ILE488      0.0020
    130  CD1       44.5880  -29.5260  136.8620 C.3   488  ILE488      0.0001
    131  N         49.9830  -28.0680  136.5990 N.am  489  TRP489     -0.1962
    132  CA        51.3170  -27.7240  137.0370 C.3   489  TRP489      0.1771
    133  C         51.3720  -27.0480  138.4120 C.2   489  TRP489      0.2619
    134  O         52.1980  -27.4210  139.2300 O.2   489  TRP489     -0.2715
    135  CB        52.0430  -26.8840  135.9610 C.3   489  TRP489      0.0590
    136  CG        52.2280  -27.6440  134.6770 C.ar  489  TRP489      0.0006
    137  CD1       53.0760  -28.6850  134.4540 C.ar  489  TRP489      0.0946
    138  CD2       51.5130  -27.4370  133.4680 C.ar  489  TRP489      0.0152
    139  NE1       52.9860  -29.1050  133.1220 N.ar  489  TRP489     -0.2442
    140  CE2       52.0240  -28.3420  132.5130 C.ar  489  TRP489      0.0810
    141  CE3       50.5220  -26.5220  133.0720 C.ar  489  TRP489      0.0012
    142  CZ2       51.5000  -28.4260  131.2270 C.ar  489  TRP489      0.0191
    143  CZ3       50.0900  -26.5440  131.8040 C.ar  489  TRP489      0.0001
    144  CH2       50.5750  -27.5010  130.8770 C.ar  489  TRP489      0.0015
    145  N         50.5310  -26.0330  138.6280 N.am  490  LYS490     -0.1963
    146  CA        50.4690  -25.2930  139.8950 C.3   490  LYS490      0.1728
    147  C         50.0080  -26.2310  141.0370 C.2   490  LYS490      0.2616
    148  O         48.9880  -26.9170  140.9270 O.2   490  LYS490     -0.2715
    149  CB        49.5150  -24.1110  139.7920 C.3   490  LYS490      0.0311
    150  CG        49.1800  -23.4060  141.1270 C.3   490  LYS490      0.0038
    151  CD        50.3750  -22.6250  141.6670 C.3   490  LYS490      0.0206
    152  CE        50.0670  -21.9490  143.0000 C.3   490  LYS490      0.1093
    153  NZ        51.2000  -21.0900  143.3880 N.3   490  LYS490     -0.1314
    154  N         50.8200  -26.2720  142.0950 N.am  491  ILE491     -0.1977
    155  CA        50.5630  -27.0650  143.2890 C.3   491  ILE491      0.1596
    156  C         50.1950  -26.1040  144.4080 C.2   491  ILE491      0.2287
    157  O         50.9350  -25.1590  144.7010 O.2   491  ILE491     -0.2864
    158  CB        51.7450  -27.9320  143.7440 C.3   491  ILE491      0.0276
    159  CG1       52.0800  -28.9600  142.6940 C.3   491  ILE491      0.0022
    160  CG2       51.3900  -28.6330  145.0680 C.3   491  ILE491      0.0022
    161  CD1       53.3190  -29.7850  142.9740 C.3   491  ILE491      0.0001
    162  N         41.9510  -21.1130  142.0680 N.3   520  ASN520     -0.1240
    163  CA        42.5710  -20.4130  143.1560 C.3   520  ASN520      0.1653
    164  C         42.4210  -18.9150  142.9940 C.2   520  ASN520      0.2266
    165  O         41.7680  -18.3890  142.0860 O.2   520  ASN520     -0.2867
    166  CB        44.0670  -20.7940  143.2840 C.3   520  ASN520      0.1155
    167  CG        44.8840  -20.3690  142.0800 C.2   520  ASN520      0.2627
    168  OD1       44.4590  -19.5110  141.2780 O.2   520  ASN520     -0.2716
    169  ND2       46.0400  -21.0030  141.9090 N.am  520  ASN520     -0.0877
    170  N         44.3900  -16.7580  141.9390 N.3   522  GLU522     -0.1245
    171  CA        44.8620  -16.1760  140.6660 C.3   522  GLU522      0.1567
    172  C         43.9720  -16.5510  139.5050 C.2   522  GLU522      0.2260
    173  O         44.3070  -16.3050  138.3540 O.2   522  GLU522     -0.2867
    174  CB        46.3380  -16.5390  140.4150 C.3   522  GLU522      0.0388
    175  CG        47.2230  -15.8320  141.4460 C.3   522  GLU522      0.1160
    176  CD        48.6490  -16.3690  141.5360 C.2   522  GLU522      0.3649
    177  OE1       48.8590  -17.5880  141.5450 O.co2 522  GLU522     -0.2457
    178  OE2       49.5910  -15.5590  141.6090 O.co2 522  GLU522     -0.2457
    179  N         43.2820  -19.6850  138.4890 N.3   524  ARG524     -0.1245
    180  CA        43.9190  -20.8080  137.8240 C.3   524  ARG524      0.1563
    181  C         43.5270  -22.1150  138.4580 C.2   524  ARG524      0.2260
    182  O         43.2070  -22.1610  139.6200 O.2   524  ARG524     -0.2867
    183  CB        45.4530  -20.6720  137.8940 C.3   524  ARG524      0.0307
    184  CG        45.9410  -19.4390  137.1760 C.3   524  ARG524      0.0489
    185  CD        47.4490  -19.2750  137.2650 C.3   524  ARG524      0.2205
    186  NE        47.8620  -18.0550  136.6120 N.pl3 524  ARG524     -0.0865
    187  CZ        48.9270  -17.3400  136.9460 C.cat 524  ARG524      0.5346
    188  NH1       49.7670  -17.6930  137.9330 N.pl3 524  ARG524      0.1354
    189  NH2       49.1580  -16.2410  136.2510 N.pl3 524  ARG524      0.1354
@<TRIPOS>BOND
     1    33    34    1
     2    34    35    1
     3    34    37    1
     4    36    35    2
     5    38    37    1
     6    35    40   am
     7    49    48    2
     8    62    61    1
     9    48    47    1
    10    46    47    1
    11    37    39    1
    12    42    43    2
    13    42    41    1
    14    61    60    1
    15    40    41    1
    16    47    50    1
    17    41    44    1
    18    54    55    1
    19    59    60    1
    20    59    58    1
    21    27    26    1
    22    27    28    2
    23    50    51    1
    24    26    25    1
    25    26    29    1
    26    44    45    1
    27    55    58    1
    28    55    56    1
    29    53    51    1
    30    51    52    1
    31    19    18    2
    32    29    30    1
    33    56    57    2
    34    56    63   am
    35    30    31    1
    36    18    17    1
    37    71    69   ar
    38    63    64    1
    39    69    68    1
    40    69    70   ar
    41    17    16    1
    42    17    20    1
    43    68    67    1
    44     9     8    2
    45    32    31    1
    46    83    82    1
    47    64    67    1
    48    64    65    1
    49    20    21    1
    50     8     7    1
    51    66    65    2
    52    65    72   am
    53    10     7    1
    54    10    11    1
    55    22    21    1
    56    22    23    1
    57     7     6    1
    58   144   142   ar
    59   144   143   ar
    60    82    79    1
    61    78    79    1
    62   142   140   ar
    63    79    80    1
    64    72    73    1
    65     4     3    2
    66    11    12   ar
    67    11    13   ar
    68    24    23    1
    69   143   141   ar
    70    12    14   ar
    71   122   121    1
    72    13    15   ar
    73     6     3   am
    74     3     2    1
    75   140   139   ar
    76   140   138   ar
    77    73    74    1
    78    73    76    1
    79    14    15   ar
    80    74    75    2
    81    80    81    2
    82    80    84   am
    83   141   138   ar
    84   139   137   ar
    85   121   120    1
    86   138   136   ar
    87    77    76    1
    88     2     1    1
    89     2     5    1
    90    84    85    1
    91   137   136   ar
    92   123   124    1
    93    93    91   ar
    94    93    92   ar
    95   136   135    1
    96    91    89   ar
    97   120   119    1
    98   104   101    1
    99    85    86    1
   100    85    88    1
   101   119   116    1
   102    92    90   ar
   103    89    88    1
   104    89    90   ar
   105   124   125    1
   106   124   127    1
   107    86    87    2
   108   128   127    1
   109   128   130    1
   110   135   132    1
   111   125   126    2
   112   125   131   am
   113   101   100    1
   114   101   102    1
   115   189   187    1
   116   118   117    2
   117   100    96   am
   118   127   129    1
   119   131   132    1
   120   186   187    2
   121   186   185    1
   122   116   117    1
   123   116   115    1
   124    99    98    1
   125    98    95    1
   126   187   188    1
   127   132   133    1
   128   184   185    1
   129   184   183    1
   130    94    95    1
   131   102   103    2
   132    96    95    1
   133    96    97    2
   134   115   107   am
   135   180   183    1
   136   180   181    1
   137   180   179    1
   138   108   107    2
   139   107   106    1
   140   173   172    2
   141   109   106    1
   142   109   110    1
   143   133   145   am
   144   133   134    2
   145   181   182    2
   146   145   146    1
   147   106   105    1
   148   110   111   ar
   149   110   112   ar
   150   172   171    1
   151   149   146    1
   152   149   150    1
   153   111   113   ar
   154   112   114   ar
   155   146   147    1
   156   174   171    1
   157   174   175    1
   158   171   170    1
   159   113   114   ar
   160   148   147    2
   161   147   154   am
   162   150   151    1
   163   168   167    2
   164   175   176    1
   165   176   177   ar
   166   176   178   ar
   167   151   152    1
   168   169   167   am
   169   162   163    1
   170   167   166    1
   171   165   164    2
   172   154   155    1
   173   159   161    1
   174   159   158    1
   175   164   163    1
   176   152   153    1
   177   163   166    1
   178   155   158    1
   179   155   156    1
   180   158   160    1
   181   156   157    2
