@<TRIPOS>MOLECULE
tmp/4rknB03.pdb
 218 210 0 0 0
SMALL
GASTEIGER

@<TRIPOS>ATOM
      1  N         50.1360  -43.8830  118.9900 N.3   129  ARG129     -0.1231
      2  CA        48.7620  -44.2470  119.2510 C.3   129  ARG129      0.1694
      3  C         47.7470  -43.4030  118.4660 C.2   129  ARG129      0.2592
      4  O         46.5810  -43.8600  118.2520 O.2   129  ARG129     -0.2718
      5  CB        48.4540  -44.3120  120.7580 C.3   129  ARG129      0.0321
      6  CG        49.2140  -45.3990  121.4920 C.3   129  ARG129      0.0489
      7  CD        48.7270  -45.6980  122.9000 C.3   129  ARG129      0.2205
      8  NE        49.5120  -46.7500  123.5630 N.pl3 129  ARG129     -0.0865
      9  CZ        50.4980  -46.5230  124.4150 C.cat 129  ARG129      0.5346
     10  NH1       50.8570  -45.2640  124.6900 N.pl3 129  ARG129      0.1354
     11  NH2       51.0930  -47.5450  125.0380 N.pl3 129  ARG129      0.1354
     12  N         48.1780  -42.2670  117.9070 N.am  130  HIS130     -0.1976
     13  CA        47.3150  -41.5690  116.9910 C.3   130  HIS130      0.1656
     14  C         47.0210  -42.4810  115.7860 C.2   130  HIS130      0.2291
     15  O         45.8890  -42.5230  115.3230 O.2   130  HIS130     -0.2864
     16  CB        47.9110  -40.2650  116.4630 C.3   130  HIS130      0.0771
     17  CG        47.7690  -39.0570  117.3450 C.ar  130  HIS130      0.0820
     18  ND1       48.6050  -37.9780  117.2030 N.ar  130  HIS130     -0.2267
     19  CD2       46.8520  -38.6930  118.2720 C.ar  130  HIS130      0.1154
     20  CE1       48.2390  -37.0240  118.0370 C.ar  130  HIS130      0.1986
     21  NE2       47.1780  -37.4310  118.6900 N.ar  130  HIS130     -0.2212
     22  N         44.8210  -45.9920  116.8740 N.3   133  THR133     -0.1218
     23  CA        43.6660  -45.9390  117.7370 C.3   133  THR133      0.1862
     24  C         42.4450  -46.6280  117.1380 C.2   133  THR133      0.2287
     25  O         41.6410  -47.2020  117.8720 O.2   133  THR133     -0.2866
     26  CB        43.3640  -44.5100  118.2390 C.3   133  THR133      0.1770
     27  OG1       42.4740  -44.5610  119.3620 O.3   133  THR133     -0.2211
     28  CG2       42.8230  -43.6370  117.1700 C.3   133  THR133      0.0375
     29  N         41.1380  -48.0660  120.5740 N.3   174  GLY174     -0.1210
     30  CA        41.9560  -48.0360  121.7850 C.3   174  GLY174      0.1956
     31  C         43.1940  -48.9380  121.7390 C.2   174  GLY174      0.2611
     32  O         43.6530  -49.3680  120.6540 O.2   174  GLY174     -0.2717
     33  N         43.7180  -49.2200  122.9190 N.am  175  HIS175     -0.1975
     34  CA        45.0260  -49.8950  123.0530 C.3   175  HIS175      0.1656
     35  C         45.0140  -50.5550  124.4280 C.2   175  HIS175      0.2291
     36  O         44.1760  -50.2410  125.2860 O.2   175  HIS175     -0.2864
     37  CB        46.2130  -48.8970  122.9860 C.3   175  HIS175      0.0771
     38  CG        46.4830  -48.3350  121.6330 C.ar  175  HIS175      0.0820
     39  ND1       45.8850  -47.1790  121.1690 N.ar  175  HIS175     -0.2267
     40  CD2       47.3330  -48.7330  120.6610 C.ar  175  HIS175      0.1154
     41  CE1       46.3110  -46.9290  119.9430 C.ar  175  HIS175      0.1986
     42  NE2       47.1670  -47.8850  119.5930 N.ar  175  HIS175     -0.2212
     43  N         47.1830  -49.8860  126.5590 N.3   177  ARG177     -0.1245
     44  CA        47.5010  -48.7470  127.4370 C.3   177  ARG177      0.1563
     45  C         46.4200  -48.4980  128.4720 C.2   177  ARG177      0.2260
     46  O         46.7160  -48.4700  129.6600 O.2   177  ARG177     -0.2867
     47  CB        47.7590  -47.5240  126.5560 C.3   177  ARG177      0.0307
     48  CG        47.8350  -46.1420  127.2020 C.3   177  ARG177      0.0489
     49  CD        49.0920  -45.9640  128.0710 C.3   177  ARG177      0.2205
     50  NE        49.0550  -44.6410  128.7040 N.pl3 177  ARG177     -0.0865
     51  CZ        48.4060  -44.3560  129.8160 C.cat 177  ARG177      0.5346
     52  NH1       47.7360  -45.3180  130.4960 N.pl3 177  ARG177      0.1354
     53  NH2       48.4060  -43.0890  130.2670 N.pl3 177  ARG177      0.1354
     54  N         34.5900  -37.4690  115.8610 N.3   275  VAL275     -0.1231
     55  CA        35.2310  -36.2270  116.1900 C.3   275  VAL275      0.1692
     56  C         36.6820  -36.5460  116.5140 C.2   275  VAL275      0.2592
     57  O         37.5920  -35.8740  116.0130 O.2   275  VAL275     -0.2718
     58  CB        34.5710  -35.5520  117.3930 C.3   275  VAL275      0.0266
     59  CG1       35.3180  -34.2470  117.7020 C.3   275  VAL275      0.0020
     60  CG2       33.1120  -35.1910  117.1040 C.3   275  VAL275      0.0020
     61  N         36.8980  -37.5330  117.4040 N.am  276  CYS276     -0.1956
     62  CA        38.2320  -37.7620  117.9190 C.3   276  CYS276      0.1843
     63  C         38.9540  -39.0650  117.5890 C.2   276  CYS276      0.2625
     64  O         40.1620  -39.0690  117.6280 O.2   276  CYS276     -0.2714
     65  CB        38.2460  -37.6200  119.3930 C.3   276  CYS276      0.0997
     66  SG        37.5180  -36.0630  119.9700 S.3   276  CYS276     -0.0797
     67  N         38.2380  -40.1390  117.2860 N.am  277  HIS277     -0.1960
     68  CA        38.8380  -41.3730  116.8310 C.3   277  HIS277      0.1772
     69  C         38.2110  -41.6840  115.4650 C.2   277  HIS277      0.2462
     70  O         37.2990  -42.5540  115.3530 O.2   277  HIS277     -0.2730
     71  CB        38.5290  -42.5270  117.7370 C.3   277  HIS277      0.0785
     72  CG        38.8900  -42.3230  119.1710 C.ar  277  HIS277      0.0821
     73  ND1       39.9710  -42.9380  119.7640 N.ar  277  HIS277     -0.2267
     74  CD2       38.2500  -41.6670  120.1650 C.ar  277  HIS277      0.1154
     75  CE1       39.9750  -42.6770  121.0580 C.ar  277  HIS277      0.1986
     76  NE2       38.9780  -41.8660  121.3220 N.ar  277  HIS277     -0.2212
     77  N         38.6210  -40.9290  114.4450 N.am  278  PRO278     -0.2727
     78  CA        37.9740  -40.9420  113.1210 C.3   278  PRO278      0.1402
     79  C         38.3690  -42.0360  112.1520 C.2   278  PRO278      0.2269
     80  O         39.3580  -42.7390  112.3400 O.2   278  PRO278     -0.2865
     81  CB        38.4070  -39.5990  112.5060 C.3   278  PRO278      0.0296
     82  CG        39.1800  -38.8730  113.5470 C.3   278  PRO278      0.0237
     83  CD        39.6540  -39.8890  114.5120 C.3   278  PRO278      0.0939
     84  N         43.7670  -40.9620  113.8040 N.3   308  VAL308     -0.1245
     85  CA        44.2540  -39.5820  113.7650 C.3   308  VAL308      0.1561
     86  C         45.4150  -39.5300  112.8070 C.2   308  VAL308      0.2260
     87  O         46.5510  -39.5090  113.2110 O.2   308  VAL308     -0.2867
     88  CB        44.5940  -39.0750  115.1800 C.3   308  VAL308      0.0252
     89  CG1       44.8850  -37.5620  115.1460 C.3   308  VAL308      0.0019
     90  CG2       43.4370  -39.3740  116.1380 C.3   308  VAL308      0.0019
     91  N         43.7390  -35.8400  109.0560 N.3   312  GLU312     -0.1231
     92  CA        42.8190  -35.4340  110.1240 C.3   312  GLU312      0.1699
     93  C         43.3590  -34.1660  110.7850 C.2   312  GLU312      0.2592
     94  O         42.5820  -33.3210  111.2120 O.2   312  GLU312     -0.2718
     95  CB        42.6150  -36.5220  111.1800 C.3   312  GLU312      0.0402
     96  CG        41.8900  -37.7860  110.6370 C.3   312  GLU312      0.1161
     97  CD        40.4050  -37.5390  110.3150 C.2   312  GLU312      0.3649
     98  OE1       39.9040  -36.4830  110.7570 O.co2 312  GLU312     -0.2457
     99  OE2       39.7390  -38.4040  109.6520 O.co2 312  GLU312     -0.2457
    100  N         44.6790  -34.0380  110.8540 N.am  313  CYS313     -0.1970
    101  CA        45.2630  -32.7930  111.4210 C.3   313  CYS313      0.1712
    102  C         45.5430  -31.7420  110.3720 C.2   313  CYS313      0.2296
    103  O         45.4340  -30.5340  110.6660 O.2   313  CYS313     -0.2864
    104  CB        46.5780  -33.0630  112.1540 C.3   313  CYS313      0.0983
    105  SG        46.3480  -33.9410  113.7410 S.3   313  CYS313     -0.0798
    106  N         46.9670  -28.3290  112.9720 N.3   329  SER329     -0.1217
    107  CA        46.1070  -28.5550  114.1160 C.3   329  SER329      0.1889
    108  C         46.6560  -27.8640  115.3440 C.2   329  SER329      0.2288
    109  O         47.8540  -27.9910  115.6660 O.2   329  SER329     -0.2866
    110  CB        45.9330  -30.0560  114.3480 C.3   329  SER329      0.2089
    111  OG        45.1280  -30.3250  115.4830 O.3   329  SER329     -0.2183
    112  N         45.0270  -28.8500  118.0370 N.3   331  CYS331     -0.1235
    113  CA        44.6840  -29.9550  118.9260 C.3   331  CYS331      0.1677
    114  C         43.3280  -29.8250  119.6220 C.2   331  CYS331      0.2270
    115  O         42.9080  -30.7780  120.3380 O.2   331  CYS331     -0.2867
    116  CB        45.7780  -30.1480  120.0060 C.3   331  CYS331      0.0956
    117  SG        47.4900  -29.9250  119.4220 S.3   331  CYS331     -0.0801
    118  N         40.2330  -29.8150  118.6790 N.3   333  ARG333     -0.1231
    119  CA        39.1870  -30.7420  118.2460 C.3   333  ARG333      0.1694
    120  C         39.0320  -31.9100  119.1930 C.2   333  ARG333      0.2592
    121  O         37.9060  -32.3630  119.5380 O.2   333  ARG333     -0.2718
    122  CB        39.5020  -31.2300  116.8310 C.3   333  ARG333      0.0321
    123  CG        38.4770  -32.1930  116.2180 C.3   333  ARG333      0.0489
    124  CD        38.9230  -32.5580  114.8360 C.3   333  ARG333      0.2205
    125  NE        38.3220  -33.8130  114.4010 N.pl3 333  ARG333     -0.0865
    126  CZ        38.6960  -34.4880  113.2950 C.cat 333  ARG333      0.5346
    127  NH1       39.7100  -34.0550  112.5100 N.pl3 333  ARG333      0.1354
    128  NH2       38.0700  -35.6070  112.9850 N.pl3 333  ARG333      0.1354
    129  N         40.1670  -32.4260  119.6290 N.am  334  CYS334     -0.1956
    130  CA        40.1290  -33.6640  120.3790 C.3   334  CYS334      0.1843
    131  C         40.7050  -33.6550  121.7740 C.2   334  CYS334      0.2625
    132  O         40.5530  -34.6370  122.5020 O.2   334  CYS334     -0.2714
    133  CB        40.8360  -34.7580  119.5730 C.3   334  CYS334      0.0997
    134  SG        40.3970  -34.8110  117.8340 S.3   334  CYS334     -0.0797
    135  N         41.3580  -32.5820  122.1540 N.am  335  HIS335     -0.1973
    136  CA        42.0450  -32.5160  123.4360 C.3   335  HIS335      0.1656
    137  C         41.6140  -31.3980  124.3300 C.2   335  HIS335      0.2291
    138  O         42.1530  -31.2740  125.4170 O.2   335  HIS335     -0.2864
    139  CB        43.5990  -32.4100  123.2210 C.3   335  HIS335      0.0771
    140  CG        44.2310  -33.6810  122.7590 C.ar  335  HIS335      0.0820
    141  ND1       44.5800  -34.6710  123.6420 N.ar  335  HIS335     -0.2267
    142  CD2       44.6630  -34.0960  121.5340 C.ar  335  HIS335      0.1154
    143  CE1       45.1280  -35.6750  122.9800 C.ar  335  HIS335      0.1986
    144  NE2       45.2050  -35.3390  121.7030 N.ar  335  HIS335     -0.2212
    145  N         50.1550  -26.5730  123.0290 N.3   389  CYS389     -0.1221
    146  CA        50.6240  -27.9430  123.0310 C.3   389  CYS389      0.1808
    147  C         51.9520  -28.0890  122.2870 C.2   389  CYS389      0.2601
    148  O         52.8410  -28.8450  122.7090 O.2   389  CYS389     -0.2717
    149  CB        49.6040  -28.9270  122.3860 C.3   389  CYS389      0.0970
    150  SG        47.9000  -28.8280  122.9630 S.3   389  CYS389     -0.0800
    151  N         52.0540  -27.4100  121.1620 N.am  390  ALA390     -0.1979
    152  CA        53.2000  -27.5730  120.2750 C.3   390  ALA390      0.1597
    153  C         54.4280  -26.8830  120.8130 C.2   390  ALA390      0.2287
    154  O         55.4880  -27.0910  120.2860 O.2   390  ALA390     -0.2864
    155  CB        52.8590  -27.0130  118.9040 C.3   390  ALA390      0.0319
    156  N         55.3450  -30.2280  122.9620 N.3   393  HIS393     -0.1226
    157  CA        55.1970  -31.5000  122.2540 C.3   393  HIS393      0.1752
    158  C         55.5740  -31.5150  120.7700 C.2   393  HIS393      0.2596
    159  O         55.1200  -30.6760  119.9860 O.2   393  HIS393     -0.2718
    160  CB        53.6950  -32.0040  122.3360 C.3   393  HIS393      0.0759
    161  CG        53.3070  -32.5340  123.6700 C.ar  393  HIS393      0.0818
    162  ND1       53.5090  -33.8480  124.0200 N.ar  393  HIS393     -0.2268
    163  CD2       52.7120  -31.9490  124.7430 C.ar  393  HIS393      0.1154
    164  CE1       53.0390  -34.0640  125.2320 C.ar  393  HIS393      0.1986
    165  NE2       52.5970  -32.9170  125.7130 N.ar  393  HIS393     -0.2212
    166  N         56.2780  -32.5800  120.3720 N.am  394  ASP394     -0.1960
    167  CA        56.3420  -33.0310  119.0110 C.3   394  ASP394      0.1825
    168  C         54.9190  -33.5490  118.6450 C.2   394  ASP394      0.2464
    169  O         54.3830  -34.3560  119.3960 O.2   394  ASP394     -0.2730
    170  CB        57.3050  -34.2110  118.8410 C.3   394  ASP394      0.1450
    171  CG        57.5830  -34.5060  117.3960 C.2   394  ASP394      0.3671
    172  OD1       58.3920  -33.7870  116.7920 O.co2 394  ASP394     -0.2456
    173  OD2       56.8880  -35.3260  116.7740 O.co2 394  ASP394     -0.2456
    174  N         54.3520  -33.1170  117.4780 N.am  395  PRO395     -0.2727
    175  CA        52.9930  -33.5380  117.0900 C.3   395  PRO395      0.1402
    176  C         52.9240  -34.8830  116.3750 C.2   395  PRO395      0.2269
    177  O         51.8080  -35.4320  116.1870 O.2   395  PRO395     -0.2865
    178  CB        52.5460  -32.4060  116.1820 C.3   395  PRO395      0.0296
    179  CG        53.7540  -32.0470  115.4530 C.3   395  PRO395      0.0237
    180  CD        54.9050  -32.2130  116.4530 C.3   395  PRO395      0.0939
    181  N         54.1250  -38.8600  119.3260 N.3   398  VAL398     -0.1231
    182  CA        53.3710  -38.5980  120.5430 C.3   398  VAL398      0.1692
    183  C         53.3460  -39.7170  121.5690 C.2   398  VAL398      0.2592
    184  O         52.8240  -39.5150  122.6270 O.2   398  VAL398     -0.2718
    185  CB        51.8970  -38.1820  120.2190 C.3   398  VAL398      0.0266
    186  CG1       51.8400  -36.9040  119.3900 C.3   398  VAL398      0.0020
    187  CG2       51.1080  -39.2700  119.4880 C.3   398  VAL398      0.0020
    188  N         53.9560  -40.8680  121.3010 N.am  399  THR399     -0.1953
    189  CA        53.8640  -42.0340  122.1740 C.3   399  THR399      0.1897
    190  C         55.2490  -42.3950  122.7560 C.2   399  THR399      0.2313
    191  O         55.3880  -42.7290  123.9260 O.2   399  THR399     -0.2863
    192  CB        53.2470  -43.2070  121.3850 C.3   399  THR399      0.1794
    193  OG1       51.8420  -42.9240  121.0950 O.3   399  THR399     -0.2208
    194  CG2       53.3980  -44.4980  122.1220 C.3   399  THR399      0.0378
    195  N         52.8900  -44.1540  128.3120 N.3   425  SER425     -0.1217
    196  CA        53.1490  -43.2670  127.2340 C.3   425  SER425      0.1889
    197  C         54.3490  -42.3740  127.5630 C.2   425  SER425      0.2288
    198  O         54.4970  -42.0110  128.7150 O.2   425  SER425     -0.2866
    199  CB        51.9350  -42.3610  127.0640 C.3   425  SER425      0.2089
    200  OG        50.7270  -43.1260  126.8480 O.3   425  SER425     -0.2183
    201  N         55.5270  -39.2440  125.4500 N.3   427  PRO427     -0.2116
    202  CA        55.5080  -38.3920  124.2720 C.3   427  PRO427      0.1372
    203  C         56.8450  -37.6580  124.1000 C.2   427  PRO427      0.2244
    204  O         57.4080  -37.2160  125.0880 O.2   427  PRO427     -0.2868
    205  CB        54.4250  -37.3880  124.5830 C.3   427  PRO427      0.0268
    206  CG        53.5420  -38.0730  125.5590 C.3   427  PRO427      0.0207
    207  CD        54.4100  -38.9710  126.3630 C.3   427  PRO427      0.0892
    208  N         45.1090  -40.6680  132.8840 N.3   484  ARG484     -0.1245
    209  CA        45.7400  -39.6400  132.0790 C.3   484  ARG484      0.1563
    210  C         46.2980  -38.5160  132.9460 C.2   484  ARG484      0.2260
    211  O         45.9000  -38.3210  134.0760 O.2   484  ARG484     -0.2867
    212  CB        44.8520  -39.1150  130.9380 C.3   484  ARG484      0.0307
    213  CG        44.6630  -40.1010  129.7470 C.3   484  ARG484      0.0489
    214  CD        45.9770  -40.4350  129.0060 C.3   484  ARG484      0.2205
    215  NE        45.7700  -41.4600  127.9890 N.pl3 484  ARG484     -0.0865
    216  CZ        46.5850  -41.6600  126.9620 C.cat 484  ARG484      0.5346
    217  NH1       47.6610  -40.9080  126.8180 N.pl3 484  ARG484      0.1354
    218  NH2       46.3100  -42.5510  126.0240 N.pl3 484  ARG484      0.1354
@<TRIPOS>BOND
     1    91    92    1
     2    99    97   ar
     3    92    93    1
     4    92    95    1
     5    97    96    1
     6    97    98   ar
     7   102   103    2
     8   102   101    1
     9    96    95    1
    10    93   100   am
    11    93    94    2
    12   100   101    1
    13   101   104    1
    14    79    80    2
    15    79    78    1
    16   104   105    1
    17    81    78    1
    18    81    82    1
    19   127   126    1
    20    86    87    2
    21    86    85    1
    22   106   107    1
    23   128   126    1
    24    78    77    1
    25   126   125    2
    26    82    83    1
    27    85    84    1
    28    85    88    1
    29   107   110    1
    30   107   108    1
    31   110   111    1
    32   125   124    1
    33    77    83    1
    34    77    69   am
    35   124   123    1
    36    89    88    1
    37    88    90    1
    38    15    14    2
    39   108   109    2
    40    70    69    2
    41   179   178    1
    42   179   180    1
    43    69    68    1
    44    14    13    1
    45    54    55    1
    46    57    56    2
    47   178   175    1
    48   177   176    2
    49    55    56    1
    50    55    58    1
    51   123   122    1
    52   176   175    1
    53   180   174    1
    54    16    13    1
    55    16    17    1
    56    56    61   am
    57   173   171   ar
    58   172   171   ar
    59   122   119    1
    60    68    67    1
    61    68    71    1
    62    22    23    1
    63    13    12    1
    64   175   174    1
    65    60    58    1
    66    24    23    1
    67    24    25    2
    68    28    26    1
    69    18    17   ar
    70    18    20   ar
    71    67    63   am
    72    17    19   ar
    73    58    59    1
    74   171   170    1
    75    61    62    1
    76   174   168   am
    77    63    64    2
    78    63    62    1
    79    23    26    1
    80    71    72    1
    81   134   133    1
    82    12     3   am
    83    62    65    1
    84    20    21   ar
    85   112   113    1
    86    26    27    1
    87   119   118    1
    88   119   120    1
    89     4     3    2
    90    19    21   ar
    91     3     2    1
    92   168   167    1
    93   168   169    2
    94   170   167    1
    95   155   152    1
    96   113   114    1
    97   113   116    1
    98     1     2    1
    99   167   166    1
   100    72    73   ar
   101    72    74   ar
   102   120   121    2
   103   120   129   am
   104     2     5    1
   105   181   182    1
   106   186   185    1
   107    65    66    1
   108   117   116    1
   109   187   185    1
   110   133   130    1
   111    42    41   ar
   112    42    40   ar
   113   114   115    2
   114   129   130    1
   115    73    75   ar
   116    41    39   ar
   117   159   158    2
   118    74    76   ar
   119   185   182    1
   120   152   153    1
   121   152   151    1
   122   154   153    2
   123   166   158   am
   124   130   131    1
   125   182   183    1
   126    29    30    1
   127    32    31    2
   128    40    38   ar
   129     5     6    1
   130   158   157    1
   131    75    76   ar
   132   193   192    1
   133   151   147   am
   134    39    38   ar
   135   188   183   am
   136   188   189    1
   137   192   194    1
   138   192   189    1
   139     6     7    1
   140   142   144   ar
   141   142   140   ar
   142   183   184    2
   143    38    37    1
   144   144   143   ar
   145    31    30    1
   146    31    33   am
   147   131   135   am
   148   131   132    2
   149   135   136    1
   150   189   190    1
   151   157   160    1
   152   157   156    1
   153   147   148    2
   154   147   146    1
   155   160   161    1
   156   149   150    1
   157   149   146    1
   158   190   191    2
   159   140   139    1
   160   140   141   ar
   161     7     8    1
   162    33    34    1
   163   143   141   ar
   164    37    34    1
   165   145   146    1
   166    34    35    1
   167   139   136    1
   168   136   137    1
   169     8     9    2
   170   161   162   ar
   171   161   163   ar
   172   162   164   ar
   173   203   202    1
   174   203   204    2
   175   202   205    1
   176   202   201    1
   177   137   138    2
   178     9    10    1
   179     9    11    1
   180    35    36    2
   181   205   206    1
   182   163   165   ar
   183   164   165   ar
   184   201   207    1
   185   206   207    1
   186   218   216    1
   187    47    48    1
   188    47    44    1
   189    43    44    1
   190   217   216    1
   191   200   199    1
   192   216   215    2
   193   199   196    1
   194    48    49    1
   195   196   197    1
   196   196   195    1
   197    44    45    1
   198   197   198    2
   199   215   214    1
   200    49    50    1
   201    45    46    2
   202    50    51    2
   203   214   213    1
   204   213   212    1
   205    51    53    1
   206    51    52    1
   207   212   209    1
   208   209   208    1
   209   209   210    1
   210   210   211    2
