@<TRIPOS>MOLECULE
tmp/4rknB07.pdb
 203 191 0 0 0
SMALL
GASTEIGER

@<TRIPOS>ATOM
      1  N         66.3400  -36.5220  149.0570 N.3   449  THR449     -0.1203
      2  CA        65.1150  -37.3060  148.9920 C.3   449  THR449      0.1994
      3  C         64.4720  -37.5290  147.6010 C.2   449  THR449      0.2617
      4  O         64.3440  -38.6590  147.1150 O.2   449  THR449     -0.2717
      5  CB        64.1580  -36.6020  149.9190 C.3   449  THR449      0.1784
      6  OG1       64.7330  -36.7100  151.2030 O.3   449  THR449     -0.2211
      7  CG2       62.7620  -37.2130  149.9040 C.3   449  THR449      0.0376
      8  N         64.0940  -36.4800  146.9250 N.am  450  HIS450     -0.1975
      9  CA        63.3840  -36.7230  145.6220 C.3   450  HIS450      0.1656
     10  C         64.2420  -36.3490  144.4110 C.2   450  HIS450      0.2291
     11  O         63.7010  -36.0800  143.3290 O.2   450  HIS450     -0.2864
     12  CB        62.1730  -35.8350  145.5710 C.3   450  HIS450      0.0771
     13  CG        61.1760  -36.1500  146.6270 C.ar  450  HIS450      0.0820
     14  ND1       60.8090  -35.2390  147.5640 N.ar  450  HIS450     -0.2267
     15  CD2       60.4210  -37.2590  146.8580 C.ar  450  HIS450      0.1154
     16  CE1       59.8590  -35.7430  148.3330 C.ar  450  HIS450      0.1986
     17  NE2       59.6140  -36.9760  147.9290 N.ar  450  HIS450     -0.2212
     18  N         66.0950  -37.9100  142.4160 N.3   452  LYS452     -0.1231
     19  CA        65.8000  -38.7480  141.2760 C.3   452  LYS452      0.1693
     20  C         64.3760  -38.6110  140.6550 C.2   452  LYS452      0.2592
     21  O         64.0800  -39.2300  139.6540 O.2   452  LYS452     -0.2718
     22  CB        65.9950  -40.1980  141.6730 C.3   452  LYS452      0.0285
     23  CG        67.4540  -40.5160  142.0170 C.3   452  LYS452      0.0035
     24  CD        67.6140  -41.8450  142.7520 C.3   452  LYS452      0.0206
     25  CE        67.0640  -41.7650  144.1750 C.3   452  LYS452      0.1093
     26  NZ        67.1060  -43.0900  144.8490 N.3   452  LYS452     -0.1314
     27  N         63.4670  -37.8700  141.2600 N.am  453  ASN453     -0.1974
     28  CA        62.0690  -37.7560  140.7070 C.3   453  ASN453      0.1688
     29  C         62.1140  -36.8400  139.4720 C.2   453  ASN453      0.2292
     30  O         62.8620  -35.8900  139.4920 O.2   453  ASN453     -0.2864
     31  CB        61.1920  -36.9780  141.7000 C.3   453  ASN453      0.1181
     32  CG        60.5870  -37.8270  142.7960 C.2   453  ASN453      0.2629
     33  OD1       61.0870  -38.9020  143.1030 O.2   453  ASN453     -0.2716
     34  ND2       59.4330  -37.3230  143.3810 N.am  453  ASN453     -0.0877
     35  N         56.6700  -35.7020  138.0190 N.3   457  SER457     -0.1202
     36  CA        56.1480  -36.6610  138.9720 C.3   457  SER457      0.2020
     37  C         55.3060  -35.9750  140.0550 C.2   457  SER457      0.2619
     38  O         54.2430  -36.4820  140.3590 O.2   457  SER457     -0.2717
     39  CB        57.2720  -37.4570  139.6080 C.3   457  SER457      0.2103
     40  OG        58.0580  -36.6290  140.4410 O.3   457  SER457     -0.2182
     41  N         55.7310  -34.8150  140.6040 N.am  458  CYS458     -0.1969
     42  CA        54.8690  -34.1010  141.5160 C.3   458  CYS458      0.1712
     43  C         53.8650  -33.1830  140.8170 C.2   458  CYS458      0.2296
     44  O         52.7700  -33.0230  141.3070 O.2   458  CYS458     -0.2864
     45  CB        55.6590  -33.2820  142.5390 C.3   458  CYS458      0.0983
     46  SG        56.7570  -34.2120  143.6580 S.3   458  CYS458     -0.0798
     47  N         50.8200  -26.2720  142.0950 N.3   491  ILE491     -0.1245
     48  CA        50.5630  -27.0650  143.2890 C.3   491  ILE491      0.1561
     49  C         50.1950  -26.1040  144.4080 C.2   491  ILE491      0.2260
     50  O         50.9350  -25.1590  144.7010 O.2   491  ILE491     -0.2867
     51  CB        51.7450  -27.9320  143.7440 C.3   491  ILE491      0.0252
     52  CG1       52.0800  -28.9600  142.6940 C.3   491  ILE491      0.0019
     53  CG2       51.3900  -28.6330  145.0680 C.3   491  ILE491      0.0019
     54  CD1       53.3190  -29.7850  142.9740 C.3   491  ILE491      0.0001
     55  N         47.5510  -31.3520  147.3820 N.3   529  LEU529     -0.1245
     56  CA        48.7250  -32.1230  147.7820 C.3   529  LEU529      0.1561
     57  C         48.4750  -33.6110  147.8530 C.2   529  LEU529      0.2260
     58  O         49.4270  -34.4320  147.8360 O.2   529  LEU529     -0.2867
     59  CB        49.2120  -31.5980  149.1250 C.3   529  LEU529      0.0270
     60  CG        49.9970  -30.2640  149.1460 C.3   529  LEU529      0.0019
     61  CD1       50.1900  -29.8560  150.5840 C.3   529  LEU529      0.0001
     62  CD2       51.3590  -30.4920  148.5060 C.3   529  LEU529      0.0001
     63  N         49.2510  -34.4630  144.3600 N.3   532  ALA532     -0.1231
     64  CA        50.6690  -34.2300  144.0640 C.3   532  ALA532      0.1694
     65  C         51.5900  -35.2850  144.6810 C.2   532  ALA532      0.2592
     66  O         52.5900  -35.6820  144.0410 O.2   532  ALA532     -0.2718
     67  CB        51.0830  -32.8250  144.4910 C.3   532  ALA532      0.0304
     68  N         51.2380  -35.7910  145.8640 N.am  533  CYS533     -0.1970
     69  CA        52.1830  -36.6180  146.6470 C.3   533  CYS533      0.1712
     70  C         51.7190  -38.0780  146.9090 C.2   533  CYS533      0.2296
     71  O         52.5560  -38.9640  147.0700 O.2   533  CYS533     -0.2864
     72  CB        52.4780  -35.9700  147.9910 C.3   533  CYS533      0.0983
     73  SG        52.7770  -34.1800  147.9490 S.3   533  CYS533     -0.0798
     74  N         48.7560  -39.7230  145.3900 N.3   535  ARG535     -0.1245
     75  CA        47.8690  -40.3560  144.4000 C.3   535  ARG535      0.1563
     76  C         48.1400  -41.8180  144.1210 C.2   535  ARG535      0.2260
     77  O         49.2630  -42.2790  144.2010 O.2   535  ARG535     -0.2867
     78  CB        47.8580  -39.5980  143.0730 C.3   535  ARG535      0.0307
     79  CG        49.0510  -39.8280  142.1580 C.3   535  ARG535      0.0489
     80  CD        50.3780  -39.4430  142.8010 C.3   535  ARG535      0.2205
     81  NE        51.4490  -39.5850  141.7870 N.pl3 535  ARG535     -0.0865
     82  CZ        52.1810  -38.6030  141.3120 C.cat 535  ARG535      0.5346
     83  NH1       52.0440  -37.3580  141.7880 N.pl3 535  ARG535      0.1354
     84  NH2       53.0850  -38.8660  140.4010 N.pl3 535  ARG535      0.1354
     85  N         56.8650  -43.0460  136.1200 N.3   542  ASP542     -0.1225
     86  CA        57.7430  -42.3780  137.0800 C.3   542  ASP542      0.1805
     87  C         57.3640  -42.8990  138.4510 C.2   542  ASP542      0.2597
     88  O         58.2380  -43.2270  139.2520 O.2   542  ASP542     -0.2718
     89  CB        57.6120  -40.8460  137.0630 C.3   542  ASP542      0.1424
     90  CG        58.1010  -40.2210  135.7540 C.2   542  ASP542      0.3668
     91  OD1       58.7900  -40.9300  134.9920 O.co2 542  ASP542     -0.2456
     92  OD2       57.7990  -39.0240  135.4960 O.co2 542  ASP542     -0.2456
     93  N         56.0640  -43.0190  138.7100 N.am  543  GLN543     -0.1979
     94  CA        55.6540  -43.4510  140.0390 C.3   543  GLN543      0.1601
     95  C         56.0360  -44.9030  140.2870 C.2   543  GLN543      0.2287
     96  O         56.5040  -45.2600  141.3750 O.2   543  GLN543     -0.2864
     97  CB        54.1640  -43.2580  140.2110 C.3   543  GLN543      0.0394
     98  CG        53.5800  -43.7940  141.4900 C.3   543  GLN543      0.0908
     99  CD        52.2740  -43.0920  141.8180 C.2   543  GLN543      0.2608
    100  OE1       51.7850  -42.3020  141.0090 O.2   543  GLN543     -0.2717
    101  NE2       51.7440  -43.3120  143.0290 N.am  543  GLN543     -0.0878
    102  N         59.5540  -45.1050  141.3120 N.3   546  ALA546     -0.1231
    103  CA        59.9150  -44.3990  142.5450 C.3   546  ALA546      0.1694
    104  C         59.0910  -44.9340  143.6840 C.2   546  ALA546      0.2591
    105  O         58.5420  -44.1820  144.4900 O.2   546  ALA546     -0.2718
    106  CB        59.6200  -42.9220  142.3730 C.3   546  ALA546      0.0304
    107  N         58.9850  -46.2560  143.7350 N.am  547  LYS547     -0.1980
    108  CA        58.4460  -46.9750  144.8690 C.3   547  LYS547      0.1596
    109  C         57.0130  -46.6660  145.1390 C.2   547  LYS547      0.2287
    110  O         56.5520  -46.8040  146.2480 O.2   547  LYS547     -0.2864
    111  CB        59.3580  -46.7490  146.0890 C.3   547  LYS547      0.0298
    112  CG        60.5990  -47.6030  145.8790 C.3   547  LYS547      0.0038
    113  CD        61.8010  -47.2260  146.6700 C.3   547  LYS547      0.0206
    114  CE        62.8880  -48.2000  146.2460 C.3   547  LYS547      0.1093
    115  NZ        63.8340  -48.4410  147.3570 N.3   547  LYS547     -0.1314
    116  N         55.5790  -43.8520  145.1100 N.3   549  CYS549     -0.1221
    117  CA        55.3590  -42.6090  145.8350 C.3   549  CYS549      0.1808
    118  C         54.7450  -42.9130  147.2120 C.2   549  CYS549      0.2601
    119  O         55.1790  -43.8780  147.8620 O.2   549  CYS549     -0.2717
    120  CB        54.5410  -41.6050  144.9910 C.3   549  CYS549      0.0970
    121  SG        55.3300  -41.3040  143.3840 S.3   549  CYS549     -0.0800
    122  N         53.7730  -42.1240  147.6510 N.am  550  HIS550     -0.1975
    123  CA        53.2280  -42.2060  149.0120 C.3   550  HIS550      0.1656
    124  C         51.7960  -42.7480  149.1050 C.2   550  HIS550      0.2291
    125  O         51.1390  -42.6380  150.1400 O.2   550  HIS550     -0.2864
    126  CB        53.2820  -40.8100  149.6690 C.3   550  HIS550      0.0771
    127  CG        54.6710  -40.3020  149.7590 C.ar  550  HIS550      0.0820
    128  ND1       55.5530  -40.7310  150.7150 N.ar  550  HIS550     -0.2267
    129  CD2       55.3730  -39.5110  148.9270 C.ar  550  HIS550      0.1154
    130  CE1       56.7350  -40.1860  150.4900 C.ar  550  HIS550      0.1986
    131  NE2       56.6430  -39.4460  149.4090 N.ar  550  HIS550     -0.2212
    132  N         57.2880  -47.9810  149.9840 N.3   557  LEU557     -0.1245
    133  CA        58.0090  -47.3580  151.0620 C.3   557  LEU557      0.1561
    134  C         57.4840  -47.8900  152.3740 C.2   557  LEU557      0.2260
    135  O         56.3940  -48.4240  152.4270 O.2   557  LEU557     -0.2867
    136  CB        57.8570  -45.8510  151.0590 C.3   557  LEU557      0.0270
    137  CG        58.3270  -45.0450  149.8430 C.3   557  LEU557      0.0019
    138  CD1       58.0000  -43.5780  150.0040 C.3   557  LEU557      0.0001
    139  CD2       59.7970  -45.2000  149.5090 C.3   557  LEU557      0.0001
    140  N         55.6290  -43.5940  155.6290 N.3   561  LEU561     -0.1245
    141  CA        55.5800  -42.7310  154.4460 C.3   561  LEU561      0.1561
    142  C         54.3580  -42.9820  153.5410 C.2   561  LEU561      0.2260
    143  O         54.3440  -42.5660  152.3750 O.2   561  LEU561     -0.2867
    144  CB        56.8920  -42.8920  153.6420 C.3   561  LEU561      0.0270
    145  CG        58.1500  -42.4030  154.4130 C.3   561  LEU561      0.0019
    146  CD1       59.4720  -42.6910  153.7880 C.3   561  LEU561      0.0001
    147  CD2       58.0410  -40.9170  154.7180 C.3   561  LEU561      0.0001
    148  N         50.7660  -41.7830  152.8970 N.3   563  PHE563     -0.1241
    149  CA        50.0260  -40.6220  153.2750 C.3   563  PHE563      0.1605
    150  C         48.5050  -40.8140  153.0460 C.2   563  PHE563      0.2264
    151  O         48.0510  -41.0200  151.9220 O.2   563  PHE563     -0.2867
    152  CB        50.5460  -39.4160  152.4810 C.3   563  PHE563      0.0534
    153  CG        51.9860  -39.0350  152.7540 C.ar  563  PHE563     -0.0203
    154  CD1       52.6460  -39.3830  153.9330 C.ar  563  PHE563     -0.0042
    155  CD2       52.6400  -38.2220  151.8550 C.ar  563  PHE563     -0.0042
    156  CE1       53.9450  -38.9900  154.1650 C.ar  563  PHE563     -0.0003
    157  CE2       53.9220  -37.8080  152.1070 C.ar  563  PHE563     -0.0003
    158  CZ        54.5870  -38.2060  153.2400 C.ar  563  PHE563     -0.0000
    159  N         49.6290  -34.7290  154.5310 N.3   569  VAL569     -0.1245
    160  CA        50.6080  -34.3490  153.5320 C.3   569  VAL569      0.1561
    161  C         51.0390  -32.9010  153.8240 C.2   569  VAL569      0.2260
    162  O         52.2520  -32.6000  153.8370 O.2   569  VAL569     -0.2867
    163  CB        50.0950  -34.5060  152.1190 C.3   569  VAL569      0.0252
    164  CG1       51.1930  -34.1420  151.0920 C.3   569  VAL569      0.0019
    165  CG2       49.6400  -35.9490  151.9250 C.3   569  VAL569      0.0019
    166  N         53.5350  -32.6080  156.5370 N.3   572  GLU572     -0.1231
    167  CA        54.9050  -32.8900  156.0970 C.3   572  GLU572      0.1699
    168  C         55.5330  -31.7100  155.3310 C.2   572  GLU572      0.2592
    169  O         56.7120  -31.4480  155.4800 O.2   572  GLU572     -0.2718
    170  CB        55.0400  -34.1150  155.2050 C.3   572  GLU572      0.0402
    171  CG        54.6020  -35.3860  155.8640 C.3   572  GLU572      0.1161
    172  CD        55.6340  -35.9370  156.7970 C.2   572  GLU572      0.3649
    173  OE1       56.6890  -35.3370  156.9640 O.co2 572  GLU572     -0.2457
    174  OE2       55.3720  -37.0030  157.3390 O.co2 572  GLU572     -0.2457
    175  N         54.7540  -31.1160  154.4410 N.am  573  VAL573     -0.1980
    176  CA        55.1980  -29.9600  153.7000 C.3   573  VAL573      0.1595
    177  C         55.5710  -28.8120  154.6500 C.2   573  VAL573      0.2287
    178  O         56.6070  -28.1610  154.4690 O.2   573  VAL573     -0.2864
    179  CB        54.1790  -29.5260  152.6240 C.3   573  VAL573      0.0276
    180  CG1       54.5920  -28.2090  151.9510 C.3   573  VAL573      0.0022
    181  CG2       54.0600  -30.6290  151.5670 C.3   573  VAL573      0.0022
    182  N         58.9170  -28.8130  156.2640 N.3   576  TRP576     -0.1241
    183  CA        60.0210  -28.4240  155.4400 C.3   576  TRP576      0.1605
    184  C         59.9730  -26.9320  155.1770 C.2   576  TRP576      0.2264
    185  O         61.0080  -26.2440  155.2990 O.2   576  TRP576     -0.2867
    186  CB        59.9950  -29.2490  154.1470 C.3   576  TRP576      0.0550
    187  CG        60.7410  -30.5180  154.2350 C.ar  576  TRP576      0.0003
    188  CD1       61.7950  -30.7780  155.0510 C.ar  576  TRP576      0.0946
    189  CD2       60.5840  -31.6880  153.4140 C.ar  576  TRP576      0.0152
    190  NE1       62.2910  -32.0390  154.8150 N.ar  576  TRP576     -0.2442
    191  CE2       61.5570  -32.6170  153.8140 C.ar  576  TRP576      0.0810
    192  CE3       59.7120  -32.0450  152.4080 C.ar  576  TRP576      0.0012
    193  CZ2       61.6640  -33.8800  153.2430 C.ar  576  TRP576      0.0191
    194  CZ3       59.8330  -33.2960  151.8350 C.ar  576  TRP576      0.0001
    195  CH2       60.8020  -34.1840  152.2410 C.ar  576  TRP576      0.0015
    196  N         60.9140  -27.5310  149.0590 N.3   633  MET633     -0.1245
    197  CA        60.2870  -28.7380  148.4270 C.3   633  MET633      0.1570
    198  C         61.0500  -29.2690  147.2240 C.2   633  MET633      0.2261
    199  O         60.9670  -30.4770  146.8980 O.2   633  MET633     -0.2867
    200  CB        58.8190  -28.4840  148.0930 C.3   633  MET633      0.0387
    201  CG        57.9210  -28.2080  149.2960 C.3   633  MET633      0.0595
    202  SD        58.1120  -29.5040  150.5660 S.3   633  MET633     -0.1393
    203  CE        57.7990  -31.0180  149.6730 C.3   633  MET633      0.0692
@<TRIPOS>BOND
     1    91    90   ar
     2    92    90   ar
     3    90    89    1
     4    85    86    1
     5    89    86    1
     6    86    87    1
     7    35    36    1
     8    87    93   am
     9    87    88    2
    10    93    94    1
    11    36    39    1
    12    36    37    1
    13    29    30    2
    14    29    28    1
    15    39    40    1
    16    21    20    2
    17    94    97    1
    18    94    95    1
    19    37    38    2
    20    37    41   am
    21    97    98    1
    22    95    96    2
    23    84    82    1
    24    41    42    1
    25    20    27   am
    26    20    19    1
    27    28    27    1
    28    28    31    1
    29    43    44    2
    30    43    42    1
    31   100    99    2
    32    19    22    1
    33    19    18    1
    34    82    81    2
    35    82    83    1
    36   102   103    1
    37    98    99    1
    38    42    45    1
    39    22    23    1
    40    31    32    1
    41    81    80    1
    42    99   101   am
    43    23    24    1
    44    47    48    1
    45    79    80    1
    46    79    78    1
    47   106   103    1
    48    45    46    1
    49   103   104    1
    50    52    54    1
    51    52    51    1
    52    24    25    1
    53    32    33    2
    54    32    34   am
    55    78    75    1
    56    48    51    1
    57    48    49    1
    58    11    10    2
    59   121   120    1
    60   104   107   am
    61   104   105    2
    62   107   108    1
    63    51    53    1
    64    66    65    2
    65    64    63    1
    66    64    67    1
    67    64    65    1
    68    76    77    2
    69    76    75    1
    70    25    26    1
    71    75    74    1
    72    49    50    2
    73    10     9    1
    74    65    68   am
    75   108   109    1
    76   108   111    1
    77   120   117    1
    78   116   117    1
    79   109   110    2
    80    12     9    1
    81    12    13    1
    82     9     8    1
    83   117   118    1
    84    68    69    1
    85   112   111    1
    86   112   113    1
    87   114   113    1
    88   114   115    1
    89    13    15   ar
    90    13    14   ar
    91    69    70    1
    92    69    72    1
    93    15    17   ar
    94   199   198    2
    95    70    71    2
    96     8     3   am
    97     4     3    2
    98   118   122   am
    99   118   119    2
   100   198   197    1
   101    55    56    1
   102    14    16   ar
   103     3     2    1
   104   122   123    1
   105    56    57    1
   106    56    59    1
   107    58    57    2
   108    17    16   ar
   109    73    72    1
   110   200   197    1
   111   200   201    1
   112   197   196    1
   113    62    60    1
   114   129   131   ar
   115   129   127   ar
   116     2     1    1
   117     2     5    1
   118   123   124    1
   119   123   126    1
   120   124   125    2
   121    59    60    1
   122    60    61    1
   123   201   202    1
   124   131   130   ar
   125   139   137    1
   126   126   127    1
   127   203   202    1
   128   127   128   ar
   129   137   138    1
   130   137   136    1
   131     7     5    1
   132     5     6    1
   133   132   133    1
   134   130   128   ar
   135   136   133    1
   136   133   134    1
   137   164   163    1
   138   181   179    1
   139   194   195   ar
   140   194   192   ar
   141   155   157   ar
   142   155   153   ar
   143   151   150    2
   144   165   163    1
   145   180   179    1
   146   157   158   ar
   147   163   160    1
   148   195   193   ar
   149   134   135    2
   150   143   142    2
   151   192   189   ar
   152   152   153    1
   153   152   149    1
   154   179   176    1
   155   153   154   ar
   156   148   149    1
   157   150   149    1
   158   158   156   ar
   159   193   191   ar
   160   189   191   ar
   161   189   187   ar
   162   160   161    1
   163   160   159    1
   164   142   141    1
   165   144   145    1
   166   144   141    1
   167   176   175    1
   168   176   177    1
   169   146   145    1
   170   191   190   ar
   171   161   162    2
   172   154   156   ar
   173   186   187    1
   174   186   183    1
   175   187   188   ar
   176   145   147    1
   177   175   168   am
   178   141   140    1
   179   178   177    2
   180   190   188   ar
   181   184   185    2
   182   184   183    1
   183   170   171    1
   184   170   167    1
   185   168   169    2
   186   168   167    1
   187   183   182    1
   188   171   172    1
   189   167   166    1
   190   172   173   ar
   191   172   174   ar
