@<TRIPOS>MOLECULE
tmp/4rknB04.pdb
 235 224 0 0 0
SMALL
GASTEIGER

@<TRIPOS>ATOM
      1  N         47.1830  -49.8860  126.5590 N.3   177  ARG177     -0.1245
      2  CA        47.5010  -48.7470  127.4370 C.3   177  ARG177      0.1563
      3  C         46.4200  -48.4980  128.4720 C.2   177  ARG177      0.2260
      4  O         46.7160  -48.4700  129.6600 O.2   177  ARG177     -0.2867
      5  CB        47.7590  -47.5240  126.5560 C.3   177  ARG177      0.0307
      6  CG        47.8350  -46.1420  127.2020 C.3   177  ARG177      0.0489
      7  CD        49.0920  -45.9640  128.0710 C.3   177  ARG177      0.2205
      8  NE        49.0550  -44.6410  128.7040 N.pl3 177  ARG177     -0.0865
      9  CZ        48.4060  -44.3560  129.8160 C.cat 177  ARG177      0.5346
     10  NH1       47.7360  -45.3180  130.4960 N.pl3 177  ARG177      0.1354
     11  NH2       48.4060  -43.0890  130.2670 N.pl3 177  ARG177      0.1354
     12  N         45.0270  -28.8500  118.0370 N.3   331  CYS331     -0.1235
     13  CA        44.6840  -29.9550  118.9260 C.3   331  CYS331      0.1677
     14  C         43.3280  -29.8250  119.6220 C.2   331  CYS331      0.2270
     15  O         42.9080  -30.7780  120.3380 O.2   331  CYS331     -0.2867
     16  CB        45.7780  -30.1480  120.0060 C.3   331  CYS331      0.0956
     17  SG        47.4900  -29.9250  119.4220 S.3   331  CYS331     -0.0801
     18  N         41.3580  -32.5820  122.1540 N.3   335  HIS335     -0.1241
     19  CA        42.0450  -32.5160  123.4360 C.3   335  HIS335      0.1621
     20  C         41.6140  -31.3980  124.3300 C.2   335  HIS335      0.2264
     21  O         42.1530  -31.2740  125.4170 O.2   335  HIS335     -0.2867
     22  CB        43.5990  -32.4100  123.2210 C.3   335  HIS335      0.0745
     23  CG        44.2310  -33.6810  122.7590 C.ar  335  HIS335      0.0817
     24  ND1       44.5800  -34.6710  123.6420 N.ar  335  HIS335     -0.2268
     25  CD2       44.6630  -34.0960  121.5340 C.ar  335  HIS335      0.1154
     26  CE1       45.1280  -35.6750  122.9800 C.ar  335  HIS335      0.1986
     27  NE2       45.2050  -35.3390  121.7030 N.ar  335  HIS335     -0.2212
     28  N         43.2360  -31.8650  128.1580 N.3   373  GLU373     -0.1231
     29  CA        44.4520  -31.1840  128.4470 C.3   373  GLU373      0.1699
     30  C         44.3290  -29.7260  128.0440 C.2   373  GLU373      0.2592
     31  O         44.8710  -28.8700  128.7190 O.2   373  GLU373     -0.2718
     32  CB        45.6760  -31.8560  127.7770 C.3   373  GLU373      0.0402
     33  CG        45.9370  -33.3100  128.1550 C.3   373  GLU373      0.1161
     34  CD        45.2140  -34.3670  127.3070 C.2   373  GLU373      0.3649
     35  OE1       44.4680  -34.0060  126.3760 O.co2 373  GLU373     -0.2457
     36  OE2       45.4370  -35.5750  127.5490 O.co2 373  GLU373     -0.2457
     37  N         43.6080  -29.4270  126.9670 N.am  374  GLY374     -0.1957
     38  CA        43.4690  -28.0570  126.5060 C.3   374  GLY374      0.1869
     39  C         42.6060  -27.1440  127.4180 C.2   374  GLY374      0.2309
     40  O         43.0160  -26.0120  127.7280 O.2   374  GLY374     -0.2863
     41  N         44.7830  -26.5270  130.4850 N.3   377  THR377     -0.1218
     42  CA        45.8710  -25.5740  130.2620 C.3   377  THR377      0.1862
     43  C         45.3370  -24.1340  130.0430 C.2   377  THR377      0.2287
     44  O         46.0100  -23.1540  130.3680 O.2   377  THR377     -0.2866
     45  CB        46.8100  -25.9910  129.0670 C.3   377  THR377      0.1770
     46  OG1       46.0650  -26.0130  127.8470 O.3   377  THR377     -0.2211
     47  CG2       47.3680  -27.3690  129.3000 C.3   377  THR377      0.0375
     48  N         51.1560  -21.0400  132.1650 N.3   382  HIS382     -0.1241
     49  CA        51.7000  -21.4180  130.8570 C.3   382  HIS382      0.1621
     50  C         50.9080  -20.8940  129.6710 C.2   382  HIS382      0.2264
     51  O         51.4640  -20.2490  128.7400 O.2   382  HIS382     -0.2867
     52  CB        51.8230  -22.9380  130.7730 C.3   382  HIS382      0.0745
     53  CG        52.8890  -23.4760  131.6470 C.ar  382  HIS382      0.0817
     54  ND1       52.9560  -24.8070  132.0070 N.ar  382  HIS382     -0.2268
     55  CD2       53.9980  -22.8810  132.1510 C.ar  382  HIS382      0.1154
     56  CE1       54.0440  -24.9960  132.7240 C.ar  382  HIS382      0.1986
     57  NE2       54.6610  -23.8360  132.8640 N.ar  382  HIS382     -0.2212
     58  N         51.9730  -20.2650  125.7730 N.3   387  MET387     -0.1230
     59  CA        52.3870  -21.6410  125.5420 C.3   387  MET387      0.1702
     60  C         51.1720  -22.4340  125.1260 C.2   387  MET387      0.2592
     61  O         50.0430  -22.1620  125.6150 O.2   387  MET387     -0.2718
     62  CB        53.0210  -22.2190  126.8050 C.3   387  MET387      0.0401
     63  CG        54.3710  -21.5270  127.1200 C.3   387  MET387      0.0596
     64  SD        54.9210  -21.8770  128.8150 S.3   387  MET387     -0.1393
     65  CE        55.2100  -23.6640  128.7800 C.3   387  MET387      0.0692
     66  N         51.3850  -23.3280  124.1580 N.am  388  ARG388     -0.1966
     67  CA        50.3380  -24.1800  123.5680 C.3   388  ARG388      0.1729
     68  C         50.9350  -25.6090  123.4920 C.2   388  ARG388      0.2616
     69  O         52.1390  -25.8090  123.7840 O.2   388  ARG388     -0.2715
     70  CB        50.0010  -23.7200  122.1430 C.3   388  ARG388      0.0348
     71  CG        49.5190  -22.2710  121.9920 C.3   388  ARG388      0.0492
     72  CD        48.1400  -22.0790  122.7250 C.3   388  ARG388      0.2205
     73  NE        47.6670  -20.6880  122.6350 N.pl3 388  ARG388     -0.0865
     74  CZ        47.8620  -19.7640  123.5790 C.cat 388  ARG388      0.5346
     75  NH1       48.5280  -19.9900  124.7240 N.pl3 388  ARG388      0.1354
     76  NH2       47.3580  -18.5770  123.3910 N.pl3 388  ARG388      0.1354
     77  N         50.1550  -26.5730  123.0290 N.am  389  CYS389     -0.1968
     78  CA        50.6240  -27.9430  123.0310 C.3   389  CYS389      0.1712
     79  C         51.9520  -28.0890  122.2870 C.2   389  CYS389      0.2296
     80  O         52.8410  -28.8450  122.7090 O.2   389  CYS389     -0.2864
     81  CB        49.6040  -28.9270  122.3860 C.3   389  CYS389      0.0983
     82  SG        47.9000  -28.8280  122.9630 S.3   389  CYS389     -0.0798
     83  N         55.5600  -27.5090  123.8330 N.3   392  CYS392     -0.1221
     84  CA        56.2990  -28.5830  124.4620 C.3   392  CYS392      0.1808
     85  C         56.3910  -29.8990  123.7020 C.2   392  CYS392      0.2601
     86  O         57.3680  -30.6450  123.8480 O.2   392  CYS392     -0.2717
     87  CB        55.6510  -28.8780  125.7730 C.3   392  CYS392      0.0970
     88  SG        55.7550  -27.5150  126.9950 S.3   392  CYS392     -0.0800
     89  N         55.3450  -30.2280  122.9620 N.am  393  HIS393     -0.1975
     90  CA        55.1970  -31.5000  122.2540 C.3   393  HIS393      0.1656
     91  C         55.5740  -31.5150  120.7700 C.2   393  HIS393      0.2291
     92  O         55.1200  -30.6760  119.9860 O.2   393  HIS393     -0.2864
     93  CB        53.6950  -32.0040  122.3360 C.3   393  HIS393      0.0771
     94  CG        53.3070  -32.5340  123.6700 C.ar  393  HIS393      0.0820
     95  ND1       53.5090  -33.8480  124.0200 N.ar  393  HIS393     -0.2267
     96  CD2       52.7120  -31.9490  124.7430 C.ar  393  HIS393      0.1154
     97  CE1       53.0390  -34.0640  125.2320 C.ar  393  HIS393      0.1986
     98  NE2       52.5970  -32.9170  125.7130 N.ar  393  HIS393     -0.2212
     99  N         52.8900  -44.1540  128.3120 N.3   425  SER425     -0.1202
    100  CA        53.1490  -43.2670  127.2340 C.3   425  SER425      0.2020
    101  C         54.3490  -42.3740  127.5630 C.2   425  SER425      0.2619
    102  O         54.4970  -42.0110  128.7150 O.2   425  SER425     -0.2717
    103  CB        51.9350  -42.3610  127.0640 C.3   425  SER425      0.2103
    104  OG        50.7270  -43.1260  126.8480 O.3   425  SER425     -0.2182
    105  N         55.1460  -41.9930  126.5490 N.am  426  LYS426     -0.1966
    106  CA        56.3130  -41.1430  126.7290 C.3   426  LYS426      0.1713
    107  C         56.4600  -40.1700  125.5310 C.2   426  LYS426      0.2458
    108  O         57.3250  -40.3320  124.6140 O.2   426  LYS426     -0.2730
    109  CB        57.5380  -42.0160  126.8580 C.3   426  LYS426      0.0311
    110  CG        58.7970  -41.2890  127.2170 C.3   426  LYS426      0.0038
    111  CD        58.8900  -41.1990  128.7140 C.3   426  LYS426      0.0206
    112  CE        60.2250  -40.6320  129.2060 C.3   426  LYS426      0.1093
    113  NZ        59.8810  -39.8530  130.4500 N.3   426  LYS426     -0.1314
    114  N         55.5270  -39.2440  125.4500 N.am  427  PRO427     -0.2727
    115  CA        55.5080  -38.3920  124.2720 C.3   427  PRO427      0.1402
    116  C         56.8450  -37.6580  124.1000 C.2   427  PRO427      0.2269
    117  O         57.4080  -37.2160  125.0880 O.2   427  PRO427     -0.2865
    118  CB        54.4250  -37.3880  124.5830 C.3   427  PRO427      0.0296
    119  CG        53.5420  -38.0730  125.5590 C.3   427  PRO427      0.0237
    120  CD        54.4100  -38.9710  126.3630 C.3   427  PRO427      0.0939
    121  N         59.1610  -34.6340  123.5060 N.3   429  LEU429     -0.1245
    122  CA        59.0910  -33.2450  123.8530 C.3   429  LEU429      0.1561
    123  C         60.1900  -32.4070  123.2410 C.2   429  LEU429      0.2260
    124  O         61.3390  -32.8100  123.1920 O.2   429  LEU429     -0.2867
    125  CB        59.1520  -33.0520  125.3650 C.3   429  LEU429      0.0270
    126  CG        58.1090  -33.7710  126.2400 C.3   429  LEU429      0.0019
    127  CD1       58.3260  -33.5190  127.7160 C.3   429  LEU429      0.0001
    128  CD2       56.6590  -33.4430  125.8660 C.3   429  LEU429      0.0001
    129  N         60.5300  -29.2930  124.6050 N.3   431  LYS431     -0.1231
    130  CA        60.9420  -28.5830  125.8340 C.3   431  LYS431      0.1693
    131  C         60.6860  -29.4520  127.0700 C.2   431  LYS431      0.2592
    132  O         59.5920  -30.0680  127.2000 O.2   431  LYS431     -0.2718
    133  CB        60.2160  -27.2280  125.9500 C.3   431  LYS431      0.0285
    134  CG        60.6470  -26.2860  124.8270 C.3   431  LYS431      0.0035
    135  CD        60.2280  -24.8530  124.9380 C.3   431  LYS431      0.0206
    136  CE        60.7120  -24.0140  123.7260 C.3   431  LYS431      0.1093
    137  NZ        62.0750  -24.4740  123.2100 N.3   431  LYS431     -0.1314
    138  N         61.7010  -29.5350  127.9490 N.am  432  GLU432     -0.1966
    139  CA        61.5710  -30.1070  129.2960 C.3   432  GLU432      0.1733
    140  C         61.3670  -28.9590  130.3010 C.2   432  GLU432      0.2616
    141  O         61.7110  -27.8210  130.0100 O.2   432  GLU432     -0.2715
    142  CB        62.8250  -30.9110  129.6820 C.3   432  GLU432      0.0429
    143  CG        63.3300  -31.9210  128.6490 C.3   432  GLU432      0.1163
    144  CD        62.3570  -33.1000  128.3880 C.2   432  GLU432      0.3649
    145  OE1       61.6730  -33.5120  129.3290 O.co2 432  GLU432     -0.2457
    146  OE2       62.2680  -33.6070  127.2320 O.co2 432  GLU432     -0.2457
    147  N         60.8530  -29.2680  131.5010 N.am  433  CYS433     -0.1968
    148  CA        60.6000  -28.2530  132.5200 C.3   433  CYS433      0.1712
    149  C         61.8920  -27.5510  132.8620 C.2   433  CYS433      0.2296
    150  O         61.9260  -26.3490  133.0860 O.2   433  CYS433     -0.2864
    151  CB        60.0580  -28.8690  133.8160 C.3   433  CYS433      0.0983
    152  SG        58.7630  -30.0850  133.6100 S.3   433  CYS433     -0.0798
    153  N         57.8050  -33.6580  136.4550 N.3   456  ALA456     -0.1245
    154  CA        56.4480  -34.0690  136.1880 C.3   456  ALA456      0.1562
    155  C         55.8520  -34.9520  137.2990 C.2   456  ALA456      0.2260
    156  O         54.6540  -34.9320  137.5050 O.2   456  ALA456     -0.2867
    157  CB        56.3750  -34.7790  134.8540 C.3   456  ALA456      0.0290
    158  N         52.5560  -33.1550  137.5820 N.3   460  MET460     -0.1245
    159  CA        51.5760  -33.7190  136.6260 C.3   460  MET460      0.1570
    160  C         51.1070  -35.1230  137.0090 C.2   460  MET460      0.2261
    161  O         51.3850  -36.0710  136.3170 O.2   460  MET460     -0.2867
    162  CB        52.1270  -33.7490  135.2200 C.3   460  MET460      0.0387
    163  CG        52.7250  -32.4030  134.7770 C.3   460  MET460      0.0595
    164  SD        53.4750  -32.4220  133.1400 S.3   460  MET460     -0.1393
    165  CE        52.0550  -32.4870  132.0490 C.3   460  MET460      0.0692
    166  N         48.4300  -38.2180  137.5250 N.3   462  PHE462     -0.1241
    167  CA        47.4680  -38.8110  136.6230 C.3   462  PHE462      0.1605
    168  C         46.0410  -38.7130  137.1850 C.2   462  PHE462      0.2264
    169  O         45.4690  -39.7220  137.6520 O.2   462  PHE462     -0.2867
    170  CB        47.8920  -40.2650  136.3410 C.3   462  PHE462      0.0534
    171  CG        48.9770  -40.3770  135.3050 C.ar  462  PHE462     -0.0203
    172  CD1       50.2810  -39.9750  135.5870 C.ar  462  PHE462     -0.0042
    173  CD2       48.6950  -40.8260  134.0370 C.ar  462  PHE462     -0.0042
    174  CE1       51.2870  -40.0870  134.6100 C.ar  462  PHE462     -0.0003
    175  CE2       49.6790  -40.9060  133.0620 C.ar  462  PHE462     -0.0003
    176  CZ        50.9600  -40.5130  133.3360 C.ar  462  PHE462     -0.0000
    177  N         45.1090  -40.6680  132.8840 N.3   484  ARG484     -0.1231
    178  CA        45.7400  -39.6400  132.0790 C.3   484  ARG484      0.1694
    179  C         46.2980  -38.5160  132.9460 C.2   484  ARG484      0.2591
    180  O         45.9000  -38.3210  134.0760 O.2   484  ARG484     -0.2718
    181  CB        44.8520  -39.1150  130.9380 C.3   484  ARG484      0.0321
    182  CG        44.6630  -40.1010  129.7470 C.3   484  ARG484      0.0489
    183  CD        45.9770  -40.4350  129.0060 C.3   484  ARG484      0.2205
    184  NE        45.7700  -41.4600  127.9890 N.pl3 484  ARG484     -0.0865
    185  CZ        46.5850  -41.6600  126.9620 C.cat 484  ARG484      0.5346
    186  NH1       47.6610  -40.9080  126.8180 N.pl3 484  ARG484      0.1354
    187  NH2       46.3100  -42.5510  126.0240 N.pl3 484  ARG484      0.1354
    188  N         47.2840  -37.8340  132.3630 N.am  485  ARG485     -0.1980
    189  CA        48.1520  -36.8780  133.0530 C.3   485  ARG485      0.1597
    190  C         47.5920  -35.4430  133.0650 C.2   485  ARG485      0.2287
    191  O         47.3700  -34.8500  132.0310 O.2   485  ARG485     -0.2864
    192  CB        49.5020  -36.8790  132.3530 C.3   485  ARG485      0.0334
    193  CG        50.5440  -36.1760  133.1510 C.3   485  ARG485      0.0492
    194  CD        51.8530  -36.0880  132.3990 C.3   485  ARG485      0.2205
    195  NE        52.6880  -37.2760  132.4300 N.pl3 485  ARG485     -0.0865
    196  CZ        53.4530  -37.6920  133.4430 C.cat 485  ARG485      0.5346
    197  NH1       53.4780  -37.1380  134.6480 N.pl3 485  ARG485      0.1354
    198  NH2       54.2380  -38.6970  133.2140 N.pl3 485  ARG485      0.1354
    199  N         47.3580  -31.4870  133.1650 N.3   487  HIS487     -0.1241
    200  CA        48.1450  -30.3750  132.6180 C.3   487  HIS487      0.1621
    201  C         47.7280  -29.0550  133.2810 C.2   487  HIS487      0.2264
    202  O         47.0210  -28.1740  132.6880 O.2   487  HIS487     -0.2867
    203  CB        48.0020  -30.2740  131.1040 C.3   487  HIS487      0.0745
    204  CG        48.8090  -31.2840  130.3580 C.ar  487  HIS487      0.0817
    205  ND1       48.6600  -32.6420  130.5330 N.ar  487  HIS487     -0.2268
    206  CD2       49.7940  -31.1330  129.4640 C.ar  487  HIS487      0.1154
    207  CE1       49.5100  -33.2810  129.7520 C.ar  487  HIS487      0.1986
    208  NE2       50.1660  -32.3900  129.0500 N.ar  487  HIS487     -0.2212
    209  N         49.9830  -28.0680  136.5990 N.3   489  TRP489     -0.1241
    210  CA        51.3170  -27.7240  137.0370 C.3   489  TRP489      0.1605
    211  C         51.3720  -27.0480  138.4120 C.2   489  TRP489      0.2264
    212  O         52.1980  -27.4210  139.2300 O.2   489  TRP489     -0.2867
    213  CB        52.0430  -26.8840  135.9610 C.3   489  TRP489      0.0550
    214  CG        52.2280  -27.6440  134.6770 C.ar  489  TRP489      0.0003
    215  CD1       53.0760  -28.6850  134.4540 C.ar  489  TRP489      0.0946
    216  CD2       51.5130  -27.4370  133.4680 C.ar  489  TRP489      0.0152
    217  NE1       52.9860  -29.1050  133.1220 N.ar  489  TRP489     -0.2442
    218  CE2       52.0240  -28.3420  132.5130 C.ar  489  TRP489      0.0810
    219  CE3       50.5220  -26.5220  133.0720 C.ar  489  TRP489      0.0012
    220  CZ2       51.5000  -28.4260  131.2270 C.ar  489  TRP489      0.0191
    221  CZ3       50.0900  -26.5440  131.8040 C.ar  489  TRP489      0.0001
    222  CH2       50.5750  -27.5010  130.8770 C.ar  489  TRP489      0.0015
    223  N         49.1460  -46.0340  135.8400 N.3   539  ALA539     -0.1245
    224  CA        49.4250  -45.4470  134.5160 C.3   539  ALA539      0.1562
    225  C         50.7320  -44.6030  134.4360 C.2   539  ALA539      0.2260
    226  O         51.0940  -44.0470  133.3550 O.2   539  ALA539     -0.2867
    227  CB        48.2350  -44.5750  134.1280 C.3   539  ALA539      0.0290
    228  N         56.8650  -43.0460  136.1200 N.3   542  ASP542     -0.1239
    229  CA        57.7430  -42.3780  137.0800 C.3   542  ASP542      0.1674
    230  C         57.3640  -42.8990  138.4510 C.2   542  ASP542      0.2266
    231  O         58.2380  -43.2270  139.2520 O.2   542  ASP542     -0.2867
    232  CB        57.6120  -40.8460  137.0630 C.3   542  ASP542      0.1410
    233  CG        58.1010  -40.2210  135.7540 C.2   542  ASP542      0.3668
    234  OD1       58.7900  -40.9300  134.9920 O.co2 542  ASP542     -0.2456
    235  OD2       57.7990  -39.0240  135.4960 O.co2 542  ASP542     -0.2456
@<TRIPOS>BOND
     1    12    13    1
     2    13    14    1
     3    13    16    1
     4    17    16    1
     5    14    15    2
     6    92    91    2
     7    91    90    1
     8    25    27   ar
     9    25    23   ar
    10    27    26   ar
    11    71    70    1
    12    71    72    1
    13    70    67    1
    14    18    19    1
    15    90    93    1
    16    90    89    1
    17    79    80    2
    18    79    78    1
    19    93    94    1
    20    81    82    1
    21    81    78    1
    22    73    72    1
    23    73    74    2
    24    23    22    1
    25    23    24   ar
    26    89    85   am
    27    26    24   ar
    28    77    78    1
    29    77    68   am
    30   124   123    2
    31   137   136    1
    32    22    19    1
    33   123   122    1
    34    76    74    1
    35    19    20    1
    36    68    67    1
    37    68    69    2
    38   121   122    1
    39    67    66    1
    40    74    75    1
    41    94    95   ar
    42    94    96   ar
    43    85    86    2
    44    85    84    1
    45   136   135    1
    46    83    84    1
    47   122   125    1
    48    95    97   ar
    49   116   115    1
    50   116   117    2
    51    66    60   am
    52   115   118    1
    53   115   114    1
    54    20    21    2
    55    84    87    1
    56   118   119    1
    57   129   130    1
    58   108   107    2
    59    96    98   ar
    60   134   135    1
    61   134   133    1
    62    60    59    1
    63    60    61    2
    64    97    98   ar
    65   125   126    1
    66   114   107   am
    67   114   120    1
    68   107   106    1
    69    59    58    1
    70    59    62    1
    71   119   120    1
    72    87    88    1
    73   130   133    1
    74   130   131    1
    75   128   126    1
    76   187   185    1
    77   126   127    1
    78    35    34   ar
    79    38    37    1
    80    38    39    1
    81   105   106    1
    82   105   101   am
    83     5     6    1
    84     5     2    1
    85     1     2    1
    86   106   109    1
    87    62    63    1
    88   186   185    1
    89   104   103    1
    90   109   110    1
    91   185   184    2
    92    37    30   am
    93   103   100    1
    94   131   132    2
    95   131   138   am
    96    63    64    1
    97     6     7    1
    98   110   111    1
    99   146   144   ar
   100   100   101    1
   101   100    99    1
   102    34    36   ar
   103    34    33    1
   104    39    40    2
   105     2     3    1
   106   101   102    2
   107    32    33    1
   108    32    29    1
   109    46    45    1
   110   138   139    1
   111   184   183    1
   112    30    29    1
   113    30    31    2
   114     7     8    1
   115    28    29    1
   116   144   143    1
   117   144   145   ar
   118     3     4    2
   119   143   142    1
   120     8     9    2
   121   111   112    1
   122    51    50    2
   123    65    64    1
   124   183   182    1
   125   208   206   ar
   126   208   207   ar
   127    45    47    1
   128    45    42    1
   129   112   113    1
   130   139   142    1
   131   139   140    1
   132   206   204   ar
   133    50    49    1
   134   182   181    1
   135   207   205   ar
   136     9    11    1
   137     9    10    1
   138   141   140    2
   139    43    42    1
   140    43    44    2
   141    42    41    1
   142   140   147   am
   143   204   205   ar
   144   204   203    1
   145    52    49    1
   146    52    53    1
   147    49    48    1
   148   222   220   ar
   149   222   221   ar
   150   181   178    1
   151   203   200    1
   152   220   218   ar
   153   147   148    1
   154    53    54   ar
   155    53    55   ar
   156   221   219   ar
   157    54    56   ar
   158   191   190    2
   159   165   164    1
   160   178   177    1
   161   178   179    1
   162    55    57   ar
   163   192   189    1
   164   192   193    1
   165   188   179   am
   166   188   189    1
   167   194   195    1
   168   194   193    1
   169   195   196    2
   170   218   217   ar
   171   218   216   ar
   172   148   149    1
   173   148   151    1
   174   200   199    1
   175   200   201    1
   176   202   201    2
   177    56    57   ar
   178   149   150    2
   179   179   180    2
   180   189   190    1
   181   175   176   ar
   182   175   173   ar
   183   219   216   ar
   184   217   215   ar
   185   164   163    1
   186   198   196    1
   187   176   174   ar
   188   226   225    2
   189   196   197    1
   190   216   214   ar
   191   152   151    1
   192   173   171   ar
   193   227   224    1
   194   225   224    1
   195   215   214   ar
   196   224   223    1
   197   174   172   ar
   198   214   213    1
   199   163   162    1
   200   157   154    1
   201   234   233   ar
   202   162   159    1
   203   171   172   ar
   204   171   170    1
   205   235   233   ar
   206   233   232    1
   207   213   210    1
   208   228   229    1
   209   154   153    1
   210   154   155    1
   211   161   160    2
   212   170   167    1
   213   209   210    1
   214   167   168    1
   215   167   166    1
   216   159   160    1
   217   159   158    1
   218   210   211    1
   219   232   229    1
   220   229   230    1
   221   168   169    2
   222   155   156    2
   223   211   212    2
   224   230   231    2
