@<TRIPOS>MOLECULE
tmp/4rknB08.pdb
 148 144 0 0 0
SMALL
GASTEIGER

@<TRIPOS>ATOM
      1  N         29.4270  -24.6480  105.1310 N.3    25  ILE25      -0.1231
      2  CA        28.9460  -25.5730  106.1470 C.3    25  ILE25       0.1692
      3  C         29.2900  -25.0950  107.5780 C.2    25  ILE25       0.2593
      4  O         30.4580  -24.8200  107.8830 O.2    25  ILE25      -0.2718
      5  CB        29.5320  -26.9620  105.8600 C.3    25  ILE25       0.0266
      6  CG1       28.5430  -28.0420  106.1520 C.3    25  ILE25       0.0019
      7  CG2       30.8880  -27.1400  106.5850 C.3    25  ILE25       0.0020
      8  CD1       28.7830  -28.7430  107.4080 C.3    25  ILE25       0.0001
      9  N         28.2890  -24.9840  108.4480 N.am   26  SER26      -0.1938
     10  CA        28.5310  -24.6230  109.8160 C.3    26  SER26       0.2055
     11  C         27.8010  -25.5260  110.7620 C.2    26  SER26       0.2642
     12  O         27.2920  -26.5820  110.3560 O.2    26  SER26      -0.2714
     13  CB        28.2390  -23.1360  110.0460 C.3    26  SER26       0.2130
     14  OG        26.8670  -22.8110  110.0120 O.3    26  SER26      -0.2179
     15  N         27.8070  -25.1740  112.0450 N.am   27  LEU27      -0.1977
     16  CA        27.4810  -26.1690  113.1050 C.3    27  LEU27       0.1596
     17  C         26.1220  -26.8220  112.8780 C.2    27  LEU27       0.2287
     18  O         25.9620  -28.0350  113.0150 O.2    27  LEU27      -0.2864
     19  CB        27.4700  -25.5270  114.4820 C.3    27  LEU27       0.0297
     20  CG        26.9930  -26.3690  115.6780 C.3    27  LEU27       0.0022
     21  CD1       27.8410  -27.5990  115.8470 C.3    27  LEU27       0.0001
     22  CD2       27.0030  -25.5940  116.9560 C.3    27  LEU27       0.0001
     23  N         25.5120  -29.5380  110.4250 N.3    30  TYR30      -0.1241
     24  CA        25.9830  -30.8750  110.8280 C.3    30  TYR30       0.1605
     25  C         24.9110  -31.5680  111.6480 C.2    30  TYR30       0.2264
     26  O         24.7920  -32.7960  111.6290 O.2    30  TYR30      -0.2867
     27  CB        27.2610  -30.7710  111.6650 C.3    30  TYR30       0.0534
     28  CG        28.5210  -30.3560  110.9360 C.ar   30  TYR30      -0.0201
     29  CD1       29.1650  -31.2230  110.0700 C.ar   30  TYR30      -0.0009
     30  CD2       29.0970  -29.1270  111.1490 C.ar   30  TYR30      -0.0009
     31  CE1       30.3340  -30.8830  109.4260 C.ar   30  TYR30       0.0417
     32  CE2       30.2360  -28.7550  110.4610 C.ar   30  TYR30       0.0417
     33  CZ        30.8690  -29.6450  109.6340 C.ar   30  TYR30       0.1957
     34  OH        32.0420  -29.2720  109.0270 O.3    30  TYR30      -0.2866
     35  N         27.0310  -32.5750  120.4620 N.3    68  TRP68      -0.1241
     36  CA        27.5950  -31.3440  119.9460 C.3    68  TRP68       0.1605
     37  C         26.9180  -30.0250  120.4150 C.2    68  TRP68       0.2264
     38  O         27.4820  -28.9490  120.1970 O.2    68  TRP68      -0.2867
     39  CB        27.5830  -31.3640  118.4170 C.3    68  TRP68       0.0550
     40  CG        28.3360  -32.4720  117.7530 C.ar   68  TRP68       0.0003
     41  CD1       28.6800  -33.6910  118.2900 C.ar   68  TRP68       0.0946
     42  CD2       28.8950  -32.4540  116.4280 C.ar   68  TRP68       0.0152
     43  NE1       29.3870  -34.4250  117.3740 N.ar   68  TRP68      -0.2442
     44  CE2       29.5040  -33.7020  116.2130 C.ar   68  TRP68       0.0810
     45  CE3       28.9040  -31.5270  115.3980 C.ar   68  TRP68       0.0012
     46  CZ2       30.0910  -34.0520  114.9920 C.ar   68  TRP68       0.0191
     47  CZ3       29.5270  -31.8710  114.1770 C.ar   68  TRP68       0.0001
     48  CH2       30.1070  -33.1130  114.0000 C.ar   68  TRP68       0.0015
     49  N         28.6490  -25.2020  121.0950 N.3    91  SER91      -0.1217
     50  CA        29.3070  -26.5080  121.0200 C.3    91  SER91       0.1889
     51  C         30.5650  -26.4180  121.8450 C.2    91  SER91       0.2288
     52  O         31.6070  -25.9000  121.3850 O.2    91  SER91      -0.2866
     53  CB        29.6480  -26.9020  119.5580 C.3    91  SER91       0.2089
     54  OG        30.2150  -28.2170  119.4590 O.3    91  SER91      -0.2183
     55  N         32.8420  -31.2350  118.1510 N.3    95  ARG95      -0.1231
     56  CA        32.5960  -30.6790  116.8650 C.3    95  ARG95       0.1694
     57  C         33.7650  -30.9270  115.9650 C.2    95  ARG95       0.2592
     58  O         34.8640  -31.0710  116.4370 O.2    95  ARG95      -0.2718
     59  CB        32.3110  -29.1730  116.9240 C.3    95  ARG95       0.0321
     60  CG        33.4100  -28.3040  117.4700 C.3    95  ARG95       0.0489
     61  CD        33.4150  -28.1910  118.9910 C.3    95  ARG95       0.2205
     62  NE        34.2310  -27.0460  119.3730 N.pl3  95  ARG95      -0.0865
     63  CZ        35.5500  -27.0140  119.6420 C.cat  95  ARG95       0.5346
     64  NH1       36.3060  -28.0970  119.6030 N.pl3  95  ARG95       0.1354
     65  NH2       36.1190  -25.8360  119.9800 N.pl3  95  ARG95       0.1354
     66  N         33.5030  -30.9580  114.6510 N.am   96  VAL96      -0.1966
     67  CA        34.5000  -31.1400  113.6450 C.3    96  VAL96       0.1727
     68  C         34.7420  -29.7530  113.0140 C.2    96  VAL96       0.2616
     69  O         33.9650  -28.8100  113.1940 O.2    96  VAL96      -0.2715
     70  CB        34.0930  -32.1590  112.5390 C.3    96  VAL96       0.0290
     71  CG1       33.8850  -33.5240  113.1040 C.3    96  VAL96       0.0023
     72  CG2       32.8730  -31.7260  111.7710 C.3    96  VAL96       0.0023
     73  N         35.8670  -29.6500  112.3170 N.am   97  ALA97      -0.1977
     74  CA        36.3250  -28.4470  111.5980 C.3    97  ALA97       0.1597
     75  C         36.0080  -28.4590  110.0840 C.2    97  ALA97       0.2287
     76  O         35.9470  -27.4000  109.3770 O.2    97  ALA97      -0.2864
     77  CB        37.8330  -28.3520  111.7710 C.3    97  ALA97       0.0319
     78  N         43.7390  -35.8400  109.0560 N.3   312  GLU312     -0.1231
     79  CA        42.8190  -35.4340  110.1240 C.3   312  GLU312      0.1699
     80  C         43.3590  -34.1660  110.7850 C.2   312  GLU312      0.2592
     81  O         42.5820  -33.3210  111.2120 O.2   312  GLU312     -0.2718
     82  CB        42.6150  -36.5220  111.1800 C.3   312  GLU312      0.0402
     83  CG        41.8900  -37.7860  110.6370 C.3   312  GLU312      0.1161
     84  CD        40.4050  -37.5390  110.3150 C.2   312  GLU312      0.3649
     85  OE1       39.9040  -36.4830  110.7570 O.co2 312  GLU312     -0.2457
     86  OE2       39.7390  -38.4040  109.6520 O.co2 312  GLU312     -0.2457
     87  N         44.6790  -34.0380  110.8540 N.am  313  CYS313     -0.1970
     88  CA        45.2630  -32.7930  111.4210 C.3   313  CYS313      0.1712
     89  C         45.5430  -31.7420  110.3720 C.2   313  CYS313      0.2296
     90  O         45.4340  -30.5340  110.6660 O.2   313  CYS313     -0.2864
     91  CB        46.5780  -33.0630  112.1540 C.3   313  CYS313      0.0983
     92  SG        46.3480  -33.9410  113.7410 S.3   313  CYS313     -0.0798
     93  N         45.9860  -27.4580  106.8340 N.3   327  LEU327     -0.1231
     94  CA        45.7770  -26.9620  108.1770 C.3   327  LEU327      0.1693
     95  C         46.9250  -27.4560  109.0640 C.2   327  LEU327      0.2592
     96  O         47.6640  -28.4030  108.7040 O.2   327  LEU327     -0.2718
     97  CB        44.4820  -27.5760  108.7580 C.3   327  LEU327      0.0284
     98  CG        43.1790  -27.2160  108.0190 C.3   327  LEU327      0.0019
     99  CD1       42.0660  -28.1210  108.5700 C.3   327  LEU327      0.0001
    100  CD2       42.8720  -25.7560  108.2300 C.3   327  LEU327      0.0001
    101  N         47.0820  -26.7580  110.1630 N.am  328  ILE328     -0.1966
    102  CA        48.0440  -27.0790  111.2040 C.3   328  ILE328      0.1727
    103  C         47.1980  -27.1320  112.4950 C.2   328  ILE328      0.2617
    104  O         46.7290  -26.1370  112.9870 O.2   328  ILE328     -0.2715
    105  CB        49.1420  -26.0060  111.3770 C.3   328  ILE328      0.0290
    106  CG1       49.8790  -25.6930  110.0530 C.3   328  ILE328      0.0022
    107  CG2       50.1490  -26.4070  112.4780 C.3   328  ILE328      0.0023
    108  CD1       50.7170  -26.8240  109.5210 C.3   328  ILE328      0.0001
    109  N         46.9670  -28.3290  112.9720 N.am  329  SER329     -0.1936
    110  CA        46.1070  -28.5550  114.1160 C.3   329  SER329      0.2055
    111  C         46.6560  -27.8640  115.3440 C.2   329  SER329      0.2643
    112  O         47.8540  -27.9910  115.6660 O.2   329  SER329     -0.2714
    113  CB        45.9330  -30.0560  114.3480 C.3   329  SER329      0.2130
    114  OG        45.1280  -30.3250  115.4830 O.3   329  SER329     -0.2179
    115  N         45.7650  -27.1650  116.0520 N.am  330  ASN330     -0.1957
    116  CA        46.0450  -26.7100  117.4080 C.3   330  ASN330      0.1819
    117  C         45.4930  -27.6780  118.4570 C.2   330  ASN330      0.2621
    118  O         45.5130  -27.3740  119.6340 O.2   330  ASN330     -0.2715
    119  CB        45.4840  -25.3060  117.6600 C.3   330  ASN330      0.1195
    120  CG        43.9740  -25.3170  117.9040 C.2   330  ASN330      0.2630
    121  OD1       43.2990  -26.2420  117.5330 O.2   330  ASN330     -0.2716
    122  ND2       43.4560  -24.2850  118.5220 N.am  330  ASN330     -0.0877
    123  N         45.0270  -28.8500  118.0370 N.am  331  CYS331     -0.1954
    124  CA        44.6840  -29.9550  118.9260 C.3   331  CYS331      0.1843
    125  C         43.3280  -29.8250  119.6220 C.2   331  CYS331      0.2625
    126  O         42.9080  -30.7780  120.3380 O.2   331  CYS331     -0.2714
    127  CB        45.7780  -30.1480  120.0060 C.3   331  CYS331      0.0997
    128  SG        47.4900  -29.9250  119.4220 S.3   331  CYS331     -0.0797
    129  N         42.6390  -28.6940  119.4620 N.am  332  GLU332     -0.1963
    130  CA        41.4680  -28.4550  120.2950 C.3   332  GLU332      0.1733
    131  C         40.2070  -29.2760  119.8700 C.2   332  GLU332      0.2616
    132  O         39.2910  -29.4890  120.6620 O.2   332  GLU332     -0.2715
    133  CB        41.1340  -26.9780  120.4420 C.3   332  GLU332      0.0429
    134  CG        40.3920  -26.3290  119.2430 C.3   332  GLU332      0.1163
    135  CD        39.9190  -24.9030  119.5740 C.2   332  GLU332      0.3649
    136  OE1       40.7430  -23.9530  119.4190 O.co2 332  GLU332     -0.2457
    137  OE2       38.7270  -24.7380  119.9890 O.co2 332  GLU332     -0.2457
    138  N         40.2330  -29.8150  118.6790 N.am  333  ARG333     -0.1977
    139  CA        39.1870  -30.7420  118.2460 C.3   333  ARG333      0.1597
    140  C         39.0320  -31.9100  119.1930 C.2   333  ARG333      0.2287
    141  O         37.9060  -32.3630  119.5380 O.2   333  ARG333     -0.2864
    142  CB        39.5020  -31.2300  116.8310 C.3   333  ARG333      0.0334
    143  CG        38.4770  -32.1930  116.2180 C.3   333  ARG333      0.0492
    144  CD        38.9230  -32.5580  114.8360 C.3   333  ARG333      0.2205
    145  NE        38.3220  -33.8130  114.4010 N.pl3 333  ARG333     -0.0865
    146  CZ        38.6960  -34.4880  113.2950 C.cat 333  ARG333      0.5346
    147  NH1       39.7100  -34.0550  112.5100 N.pl3 333  ARG333      0.1354
    148  NH2       38.0700  -35.6070  112.9850 N.pl3 333  ARG333      0.1354
@<TRIPOS>BOND
     1     1     2    1
     2     5     2    1
     3     5     6    1
     4     5     7    1
     5     2     3    1
     6     6     8    1
     7    93    94    1
     8     3     4    2
     9     3     9   am
    10    98   100    1
    11    98    99    1
    12    98    97    1
    13    94    97    1
    14    94    95    1
    15     9    10    1
    16    96    95    2
    17    34    33    1
    18    78    79    1
    19    95   101   am
    20    76    75    2
    21    31    33   ar
    22    31    29   ar
    23   108   106    1
    24    33    32   ar
    25    86    84   ar
    26    10    13    1
    27    10    11    1
    28    14    13    1
    29   106   105    1
    30    29    28   ar
    31    75    74    1
    32    79    80    1
    33    79    82    1
    34   101   102    1
    35    84    83    1
    36    84    85   ar
    37    12    11    2
    38    89    90    2
    39    89    88    1
    40    23    24    1
    41    32    30   ar
    42    83    82    1
    43    11    15   am
    44    80    87   am
    45    80    81    2
    46    24    25    1
    47    24    27    1
    48    87    88    1
    49    28    30   ar
    50    28    27    1
    51   102   105    1
    52   102   103    1
    53   105   107    1
    54    88    91    1
    55    74    77    1
    56    74    73    1
    57    26    25    2
    58    72    70    1
    59    15    16    1
    60    91    92    1
    61    73    68   am
    62   103   109   am
    63   103   104    2
    64   147   146    1
    65    70    71    1
    66    70    67    1
    67    17    18    2
    68    17    16    1
    69   109   110    1
    70   148   146    1
    71    68    69    2
    72    68    67    1
    73    16    19    1
    74   146   145    2
    75    67    66    1
    76    48    47   ar
    77    48    46   ar
    78   110   113    1
    79   110   111    1
    80    47    45   ar
    81   113   114    1
    82   145   144    1
    83    19    20    1
    84    66    57   am
    85   144   143    1
    86    46    44   ar
    87   111   112    2
    88   111   115   am
    89    45    42   ar
    90    20    21    1
    91    20    22    1
    92    57    58    2
    93    57    56    1
    94   115   116    1
    95    44    42   ar
    96    44    43   ar
    97   143   142    1
    98    42    40   ar
    99   142   139    1
   100    56    59    1
   101    56    55    1
   102    59    60    1
   103    43    41   ar
   104   116   119    1
   105   116   117    1
   106    60    61    1
   107   121   120    2
   108   119   120    1
   109    40    41   ar
   110    40    39    1
   111   120   122   am
   112   123   117   am
   113   123   124    1
   114   139   138    1
   115   139   140    1
   116    39    36    1
   117   117   118    2
   118   138   131   am
   119   124   125    1
   120   124   127    1
   121    61    62    1
   122   140   141    2
   123   134   135    1
   124   134   133    1
   125    62    63    2
   126   136   135   ar
   127   128   127    1
   128    54    53    1
   129   129   125   am
   130   129   130    1
   131    53    50    1
   132   135   137   ar
   133    64    63    1
   134   125   126    2
   135    63    65    1
   136   131   130    1
   137   131   132    2
   138    36    37    1
   139    36    35    1
   140    38    37    2
   141   130   133    1
   142    50    49    1
   143    50    51    1
   144    52    51    2
