@<TRIPOS>MOLECULE
tmp/4rknB00.pdb
 115 110 0 0 0
SMALL
GASTEIGER

@<TRIPOS>ATOM
      1  N         43.3540  -38.7440  100.5630 N.3   109  ILE109     -0.1245
      2  CA        44.1570  -39.7300   99.8290 C.3   109  ILE109      0.1561
      3  C         44.7880  -40.7860  100.7200 C.2   109  ILE109      0.2260
      4  O         45.3210  -41.7450  100.2110 O.2   109  ILE109     -0.2867
      5  CB        45.2200  -39.0590   98.9630 C.3   109  ILE109      0.0252
      6  CG1       46.2110  -38.3020   99.8560 C.3   109  ILE109      0.0019
      7  CG2       44.5530  -38.1370   97.9180 C.3   109  ILE109      0.0019
      8  CD1       47.3200  -37.6470   99.0760 C.3   109  ILE109      0.0001
      9  N         49.9110  -42.0810  101.1500 N.3   113  LYS113     -0.1231
     10  CA        50.2080  -41.1390  100.0660 C.3   113  LYS113      0.1693
     11  C         50.9920  -39.8950  100.5470 C.2   113  LYS113      0.2592
     12  O         51.9480  -39.4470   99.8700 O.2   113  LYS113     -0.2718
     13  CB        48.9590  -40.7500   99.3030 C.3   113  LYS113      0.0285
     14  CG        48.3750  -41.9330   98.5370 C.3   113  LYS113      0.0035
     15  CD        49.2640  -42.3590   97.3980 C.3   113  LYS113      0.0206
     16  CE        48.7930  -43.6890   96.8020 C.3   113  LYS113      0.1093
     17  NZ        49.7590  -44.0580   95.7390 N.3   113  LYS113     -0.1314
     18  N         50.6340  -39.3770  101.7070 N.am  114  CYS114     -0.1970
     19  CA        51.4800  -38.3040  102.3300 C.3   114  CYS114      0.1712
     20  C         52.8650  -38.7990  102.6150 C.2   114  CYS114      0.2296
     21  O         53.8770  -38.1140  102.3470 O.2   114  CYS114     -0.2864
     22  CB        50.8770  -37.7390  103.6180 C.3   114  CYS114      0.0983
     23  SG        49.1630  -37.1740  103.4460 S.3   114  CYS114     -0.0798
     24  N         54.6060  -41.1030  101.0200 N.3   116  GLU116     -0.1231
     25  CA        55.4450  -41.1880   99.8250 C.3   116  GLU116      0.1699
     26  C         56.4110  -40.0140   99.7350 C.2   116  GLU116      0.2592
     27  O         57.5870  -40.1860   99.3550 O.2   116  GLU116     -0.2718
     28  CB        54.6010  -41.2560   98.5240 C.3   116  GLU116      0.0402
     29  CG        53.9460  -42.5890   98.2770 C.3   116  GLU116      0.1161
     30  CD        53.1890  -42.7090   96.9330 C.2   116  GLU116      0.3649
     31  OE1       52.6410  -41.7170   96.3820 O.co2 116  GLU116     -0.2457
     32  OE2       53.0860  -43.8790   96.4780 O.co2 116  GLU116     -0.2457
     33  N         55.9370  -38.8070  100.0400 N.am  117  CYS117     -0.1956
     34  CA        56.8200  -37.6630  100.0190 C.3   117  CYS117      0.1843
     35  C         57.4110  -37.2580  101.3540 C.2   117  CYS117      0.2625
     36  O         58.4130  -36.5260  101.3980 O.2   117  CYS117     -0.2714
     37  CB        56.0990  -36.4720   99.4040 C.3   117  CYS117      0.0997
     38  SG        55.8660  -36.6040   97.5690 S.3   117  CYS117     -0.0797
     39  N         56.7660  -37.6610  102.4370 N.am  118  HIS118     -0.1973
     40  CA        57.2400  -37.3210  103.7780 C.3   118  HIS118      0.1656
     41  C         57.4840  -38.5820  104.5060 C.2   118  HIS118      0.2291
     42  O         56.7950  -38.8650  105.5010 O.2   118  HIS118     -0.2864
     43  CB        56.1800  -36.5320  104.5330 C.3   118  HIS118      0.0771
     44  CG        55.8590  -35.2570  103.8770 C.ar  118  HIS118      0.0820
     45  ND1       56.7710  -34.2400  103.7750 N.ar  118  HIS118     -0.2267
     46  CD2       54.7450  -34.8350  103.2550 C.ar  118  HIS118      0.1154
     47  CE1       56.2170  -33.2190  103.1520 C.ar  118  HIS118      0.1986
     48  NE2       54.9950  -33.5570  102.8140 N.ar  118  HIS118     -0.2212
     49  N         47.4510  -38.1980  109.0970 N.3   310  CYS310     -0.1221
     50  CA        48.0070  -36.9390  108.5980 C.3   310  CYS310      0.1808
     51  C         46.8970  -35.8820  108.2720 C.2   310  CYS310      0.2601
     52  O         46.9510  -34.7310  108.7210 O.2   310  CYS310     -0.2717
     53  CB        48.8090  -37.1740  107.3350 C.3   310  CYS310      0.0970
     54  SG        49.9100  -38.6140  107.3390 S.3   310  CYS310     -0.0800
     55  N         45.9310  -36.3040  107.4710 N.am  311  GLU311     -0.1979
     56  CA        44.9150  -35.4500  106.9360 C.3   311  GLU311      0.1602
     57  C         43.8700  -35.0760  107.9690 C.2   311  GLU311      0.2287
     58  O         43.1250  -34.1100  107.7500 O.2   311  GLU311     -0.2864
     59  CB        44.2140  -36.1700  105.7540 C.3   311  GLU311      0.0415
     60  CG        45.1160  -36.2520  104.5370 C.3   311  GLU311      0.1163
     61  CD        44.6370  -37.2910  103.5040 C.2   311  GLU311      0.3649
     62  OE1       44.3310  -36.8660  102.3680 O.co2 311  GLU311     -0.2457
     63  OE2       44.5570  -38.4930  103.8510 O.co2 311  GLU311     -0.2457
     64  N         45.9870  -32.1850  109.1850 N.3   314  HIS314     -0.1241
     65  CA        46.4710  -31.2600  108.1690 C.3   314  HIS314      0.1621
     66  C         45.4860  -31.0050  107.0300 C.2   314  HIS314      0.2264
     67  O         45.7860  -30.2090  106.1410 O.2   314  HIS314     -0.2867
     68  CB        47.7410  -31.8170  107.5340 C.3   314  HIS314      0.0745
     69  CG        48.9340  -31.7550  108.4210 C.ar  314  HIS314      0.0817
     70  ND1       49.4980  -30.5670  108.8140 N.ar  314  HIS314     -0.2268
     71  CD2       49.6900  -32.7350  108.9640 C.ar  314  HIS314      0.1154
     72  CE1       50.5520  -30.8150  109.5710 C.ar  314  HIS314      0.1986
     73  NE2       50.6930  -32.1200  109.6620 N.ar  314  HIS314     -0.2212
     74  N         43.8510  -34.1030  101.5270 N.3   317  GLY317     -0.1210
     75  CA        44.8280  -33.7870  100.5550 C.3   317  GLY317      0.1956
     76  C         45.8880  -32.7630  100.9290 C.2   317  GLY317      0.2612
     77  O         46.6500  -32.3330  100.0560 O.2   317  GLY317     -0.2717
     78  N         45.9540  -32.3300  102.1790 N.am  318  GLY318     -0.1942
     79  CA        46.9380  -31.2790  102.5420 C.3   318  GLY318      0.2014
     80  C         46.9720  -30.0740  101.6270 C.2   318  GLY318      0.2639
     81  O         45.9470  -29.4640  101.3340 O.2   318  GLY318     -0.2714
     82  N         48.1610  -29.7900  101.1100 N.am  319  HIS319     -0.1959
     83  CA        48.4490  -28.6390  100.2450 C.3   319  HIS319      0.1787
     84  C         48.4510  -29.0820   98.7800 C.2   319  HIS319      0.2620
     85  O         48.8460  -28.3190   97.9190 O.2   319  HIS319     -0.2715
     86  CB        49.8760  -28.1200  100.5560 C.3   319  HIS319      0.0785
     87  CG        50.9130  -29.1910  100.5120 C.ar  319  HIS319      0.0821
     88  ND1       51.3970  -29.7110   99.3280 N.ar  319  HIS319     -0.2267
     89  CD2       51.4940  -29.9120  101.5000 C.ar  319  HIS319      0.1154
     90  CE1       52.2570  -30.6810   99.5970 C.ar  319  HIS319      0.1986
     91  NE2       52.3670  -30.7880  100.9040 N.ar  319  HIS319     -0.2212
     92  N         48.1140  -30.3510   98.5050 N.am  320  LEU320     -0.1977
     93  CA        48.2330  -30.8780   97.1270 C.3   320  LEU320      0.1596
     94  C         47.1900  -30.2570   96.2220 C.2   320  LEU320      0.2287
     95  O         46.1000  -29.8380   96.6930 O.2   320  LEU320     -0.2864
     96  CB        48.1050  -32.4070   97.0890 C.3   320  LEU320      0.0297
     97  CG        49.2160  -33.1120   97.8540 C.3   320  LEU320      0.0022
     98  CD1       48.9080  -34.5680   98.1500 C.3   320  LEU320      0.0001
     99  CD2       50.5100  -32.9770   97.0660 C.3   320  LEU320      0.0001
    100  N         45.6930  -26.8820  103.3780 N.3   326  LEU326     -0.1245
    101  CA        46.5100  -27.3100  104.4760 C.3   326  LEU326      0.1561
    102  C         46.0810  -26.6650  105.7800 C.2   326  LEU326      0.2260
    103  O         45.7780  -25.5050  105.8110 O.2   326  LEU326     -0.2867
    104  CB        47.9790  -26.9590  104.1860 C.3   326  LEU326      0.0270
    105  CG        49.0340  -27.6410  104.9980 C.3   326  LEU326      0.0019
    106  CD1       48.9550  -29.1580  104.9290 C.3   326  LEU326      0.0001
    107  CD2       50.4220  -27.1440  104.5870 C.3   326  LEU326      0.0001
    108  N         47.0820  -26.7580  110.1630 N.3   328  ILE328     -0.1245
    109  CA        48.0440  -27.0790  111.2040 C.3   328  ILE328      0.1561
    110  C         47.1980  -27.1320  112.4950 C.2   328  ILE328      0.2260
    111  O         46.7290  -26.1370  112.9870 O.2   328  ILE328     -0.2867
    112  CB        49.1420  -26.0060  111.3770 C.3   328  ILE328      0.0252
    113  CG1       49.8790  -25.6930  110.0530 C.3   328  ILE328      0.0019
    114  CG2       50.1490  -26.4070  112.4780 C.3   328  ILE328      0.0019
    115  CD1       50.7170  -26.8240  109.5210 C.3   328  ILE328      0.0001
@<TRIPOS>BOND
     1    17    16    1
     2    94    95    2
     3    94    93    1
     4    31    30   ar
     5    32    30   ar
     6    16    15    1
     7    30    29    1
     8    99    97    1
     9    96    93    1
    10    96    97    1
    11    93    92    1
    12    15    14    1
    13    38    37    1
    14    97    98    1
    15     7     5    1
    16    85    84    2
    17    29    28    1
    18    92    84   am
    19    28    25    1
    20    14    13    1
    21    84    83    1
    22     5     2    1
    23     5     6    1
    24     8     6    1
    25    13    10    1
    26    88    90   ar
    27    88    87   ar
    28    27    26    2
    29    37    34    1
    30    90    91   ar
    31    26    25    1
    32    26    33   am
    33    25    24    1
    34     2     1    1
    35     2     3    1
    36    12    11    2
    37    34    33    1
    38    34    35    1
    39    77    76    2
    40    10    11    1
    41    10     9    1
    42     4     3    2
    43    83    86    1
    44    83    82    1
    45    87    86    1
    46    87    89   ar
    47    11    18   am
    48    75    76    1
    49    75    74    1
    50    91    89   ar
    51    76    78   am
    52    82    80   am
    53    81    80    2
    54    35    36    2
    55    35    39   am
    56    80    79    1
    57    18    19    1
    58    78    79    1
    59    19    20    1
    60    19    22    1
    61    21    20    2
    62    62    61   ar
    63    39    40    1
    64    48    47   ar
    65    48    46   ar
    66    47    45   ar
    67    46    44   ar
    68   100   101    1
    69    23    22    1
    70    61    63   ar
    71    61    60    1
    72    45    44   ar
    73    40    41    1
    74    40    43    1
    75    44    43    1
    76   104   101    1
    77   104   105    1
    78   101   102    1
    79    41    42    2
    80    60    59    1
    81   107   105    1
    82   106   105    1
    83    59    56    1
    84   102   103    2
    85    67    66    2
    86    56    55    1
    87    56    57    1
    88    66    65    1
    89    53    54    1
    90    53    50    1
    91    55    51   am
    92    68    65    1
    93    68    69    1
    94    58    57    2
    95    65    64    1
    96    51    50    1
    97    51    52    2
    98    69    70   ar
    99    69    71   ar
   100    50    49    1
   101    70    72   ar
   102    71    73   ar
   103   115   113    1
   104    72    73   ar
   105   113   112    1
   106   108   109    1
   107   109   112    1
   108   109   110    1
   109   112   114    1
   110   110   111    2
