@<TRIPOS>MOLECULE
tmp/4rknB02.pdb
 151 147 0 0 0
SMALL
GASTEIGER

@<TRIPOS>ATOM
      1  N         50.6340  -39.3770  101.7070 N.3   114  CYS114     -0.1221
      2  CA        51.4800  -38.3040  102.3300 C.3   114  CYS114      0.1808
      3  C         52.8650  -38.7990  102.6150 C.2   114  CYS114      0.2601
      4  O         53.8770  -38.1140  102.3470 O.2   114  CYS114     -0.2717
      5  CB        50.8770  -37.7390  103.6180 C.3   114  CYS114      0.0970
      6  SG        49.1630  -37.1740  103.4460 S.3   114  CYS114     -0.0800
      7  N         52.9160  -40.0150  103.1130 N.am  115  GLY115     -0.1957
      8  CA        54.1790  -40.6870  103.4020 C.3   115  GLY115      0.1869
      9  C         55.1350  -41.0010  102.2400 C.2   115  GLY115      0.2309
     10  O         56.3480  -41.2280  102.4720 O.2   115  GLY115     -0.2863
     11  N         56.7660  -37.6610  102.4370 N.3   118  HIS118     -0.1241
     12  CA        57.2400  -37.3210  103.7780 C.3   118  HIS118      0.1621
     13  C         57.4840  -38.5820  104.5060 C.2   118  HIS118      0.2264
     14  O         56.7950  -38.8650  105.5010 O.2   118  HIS118     -0.2867
     15  CB        56.1800  -36.5320  104.5330 C.3   118  HIS118      0.0745
     16  CG        55.8590  -35.2570  103.8770 C.ar  118  HIS118      0.0817
     17  ND1       56.7710  -34.2400  103.7750 N.ar  118  HIS118     -0.2268
     18  CD2       54.7450  -34.8350  103.2550 C.ar  118  HIS118      0.1154
     19  CE1       56.2170  -33.2190  103.1520 C.ar  118  HIS118      0.1986
     20  NE2       54.9950  -33.5570  102.8140 N.ar  118  HIS118     -0.2212
     21  N         58.2110  -38.1640  108.6120 N.3   121  GLN121     -0.1231
     22  CA        57.0220  -37.9970  109.4450 C.3   121  GLN121      0.1698
     23  C         56.1340  -39.2010  109.4400 C.2   121  GLN121      0.2592
     24  O         55.5640  -39.5300  110.4740 O.2   121  GLN121     -0.2718
     25  CB        56.2150  -36.7680  109.0470 C.3   121  GLN121      0.0381
     26  CG        56.8430  -35.4260  109.3600 C.3   121  GLN121      0.0905
     27  CD        57.9920  -35.0300  108.4380 C.2   121  GLN121      0.2608
     28  OE1       58.1940  -35.5690  107.3330 O.2   121  GLN121     -0.2717
     29  NE2       58.7340  -34.0500  108.8860 N.am  121  GLN121     -0.0878
     30  N         56.0360  -39.8910  108.3140 N.am  122  TYR122     -0.1976
     31  CA        55.2480  -41.1460  108.3030 C.3   122  TYR122      0.1639
     32  C         55.7540  -42.1600  109.3160 C.2   122  TYR122      0.2290
     33  O         55.0210  -42.7390  110.0910 O.2   122  TYR122     -0.2864
     34  CB        55.1630  -41.7220  106.9210 C.3   122  TYR122      0.0560
     35  CG        54.2320  -42.9090  106.9040 C.ar  122  TYR122     -0.0198
     36  CD1       54.6710  -44.1660  107.3040 C.ar  122  TYR122     -0.0009
     37  CD2       52.9050  -42.7780  106.4880 C.ar  122  TYR122     -0.0009
     38  CE1       53.7850  -45.2630  107.3690 C.ar  122  TYR122      0.0417
     39  CE2       52.0310  -43.8670  106.5040 C.ar  122  TYR122      0.0417
     40  CZ        52.4890  -45.1060  106.9450 C.ar  122  TYR122      0.1957
     41  OH        51.6550  -46.2100  106.9550 O.3   122  TYR122     -0.2866
     42  N         55.0880  -40.7840  113.1250 N.3   125  TRP125     -0.1241
     43  CA        53.5910  -40.8820  113.2530 C.3   125  TRP125      0.1605
     44  C         53.0830  -42.3180  113.3290 C.2   125  TRP125      0.2264
     45  O         52.2250  -42.6280  114.1520 O.2   125  TRP125     -0.2867
     46  CB        52.8860  -40.1650  112.1030 C.3   125  TRP125      0.0550
     47  CG        51.4240  -40.4680  112.0330 C.ar  125  TRP125      0.0003
     48  CD1       50.4530  -39.8910  112.7710 C.ar  125  TRP125      0.0946
     49  CD2       50.7890  -41.4560  111.2220 C.ar  125  TRP125      0.0152
     50  NE1       49.2340  -40.4580  112.4870 N.ar  125  TRP125     -0.2442
     51  CE2       49.4060  -41.4050  111.5100 C.ar  125  TRP125      0.0810
     52  CE3       51.2460  -42.3640  110.2620 C.ar  125  TRP125      0.0012
     53  CZ2       48.4490  -42.2670  110.8770 C.ar  125  TRP125      0.0191
     54  CZ3       50.2910  -43.2360  109.6080 C.ar  125  TRP125      0.0001
     55  CH2       48.9100  -43.1630  109.9270 C.ar  125  TRP125      0.0015
     56  N         48.1780  -42.2670  117.9070 N.3   130  HIS130     -0.1241
     57  CA        47.3150  -41.5690  116.9910 C.3   130  HIS130      0.1621
     58  C         47.0210  -42.4810  115.7860 C.2   130  HIS130      0.2264
     59  O         45.8890  -42.5230  115.3230 O.2   130  HIS130     -0.2867
     60  CB        47.9110  -40.2650  116.4630 C.3   130  HIS130      0.0745
     61  CG        47.7690  -39.0570  117.3450 C.ar  130  HIS130      0.0817
     62  ND1       48.6050  -37.9780  117.2030 N.ar  130  HIS130     -0.2268
     63  CD2       46.8520  -38.6930  118.2720 C.ar  130  HIS130      0.1154
     64  CE1       48.2390  -37.0240  118.0370 C.ar  130  HIS130      0.1986
     65  NE2       47.1780  -37.4310  118.6900 N.ar  130  HIS130     -0.2212
     66  N         43.7670  -40.9620  113.8040 N.3   308  VAL308     -0.1231
     67  CA        44.2540  -39.5820  113.7650 C.3   308  VAL308      0.1692
     68  C         45.4150  -39.5300  112.8070 C.2   308  VAL308      0.2593
     69  O         46.5510  -39.5090  113.2110 O.2   308  VAL308     -0.2718
     70  CB        44.5940  -39.0750  115.1800 C.3   308  VAL308      0.0266
     71  CG1       44.8850  -37.5620  115.1460 C.3   308  VAL308      0.0020
     72  CG2       43.4370  -39.3740  116.1380 C.3   308  VAL308      0.0020
     73  N         45.0890  -39.5590  111.4920 N.am  309  SER309     -0.1938
     74  CA        46.0410  -39.6800  110.4590 C.3   309  SER309      0.2055
     75  C         46.4660  -38.2800  110.0120 C.2   309  SER309      0.2643
     76  O         45.8740  -37.3410  110.4650 O.2   309  SER309     -0.2714
     77  CB        45.4440  -40.4620  109.2980 C.3   309  SER309      0.2130
     78  OG        44.4940  -39.6330  108.6040 O.3   309  SER309     -0.2179
     79  N         47.4510  -38.1980  109.0970 N.am  310  CYS310     -0.1967
     80  CA        48.0070  -36.9390  108.5980 C.3   310  CYS310      0.1712
     81  C         46.8970  -35.8820  108.2720 C.2   310  CYS310      0.2296
     82  O         46.9510  -34.7310  108.7210 O.2   310  CYS310     -0.2864
     83  CB        48.8090  -37.1740  107.3350 C.3   310  CYS310      0.0983
     84  SG        49.9100  -38.6140  107.3390 S.3   310  CYS310     -0.0798
     85  N         44.6790  -34.0380  110.8540 N.3   313  CYS313     -0.1221
     86  CA        45.2630  -32.7930  111.4210 C.3   313  CYS313      0.1808
     87  C         45.5430  -31.7420  110.3720 C.2   313  CYS313      0.2601
     88  O         45.4340  -30.5340  110.6660 O.2   313  CYS313     -0.2717
     89  CB        46.5780  -33.0630  112.1540 C.3   313  CYS313      0.0970
     90  SG        46.3480  -33.9410  113.7410 S.3   313  CYS313     -0.0800
     91  N         45.9870  -32.1850  109.1850 N.am  314  HIS314     -0.1975
     92  CA        46.4710  -31.2600  108.1690 C.3   314  HIS314      0.1656
     93  C         45.4860  -31.0050  107.0300 C.2   314  HIS314      0.2291
     94  O         45.7860  -30.2090  106.1410 O.2   314  HIS314     -0.2864
     95  CB        47.7410  -31.8170  107.5340 C.3   314  HIS314      0.0771
     96  CG        48.9340  -31.7550  108.4210 C.ar  314  HIS314      0.0820
     97  ND1       49.4980  -30.5670  108.8140 N.ar  314  HIS314     -0.2267
     98  CD2       49.6900  -32.7350  108.9640 C.ar  314  HIS314      0.1154
     99  CE1       50.5520  -30.8150  109.5710 C.ar  314  HIS314      0.1986
    100  NE2       50.6930  -32.1200  109.6620 N.ar  314  HIS314     -0.2212
    101  N         47.0820  -26.7580  110.1630 N.3   328  ILE328     -0.1231
    102  CA        48.0440  -27.0790  111.2040 C.3   328  ILE328      0.1692
    103  C         47.1980  -27.1320  112.4950 C.2   328  ILE328      0.2592
    104  O         46.7290  -26.1370  112.9870 O.2   328  ILE328     -0.2718
    105  CB        49.1420  -26.0060  111.3770 C.3   328  ILE328      0.0266
    106  CG1       49.8790  -25.6930  110.0530 C.3   328  ILE328      0.0019
    107  CG2       50.1490  -26.4070  112.4780 C.3   328  ILE328      0.0020
    108  CD1       50.7170  -26.8240  109.5210 C.3   328  ILE328      0.0001
    109  N         46.9670  -28.3290  112.9720 N.am  329  SER329     -0.1952
    110  CA        46.1070  -28.5550  114.1160 C.3   329  SER329      0.1924
    111  C         46.6560  -27.8640  115.3440 C.2   329  SER329      0.2314
    112  O         47.8540  -27.9910  115.6660 O.2   329  SER329     -0.2863
    113  CB        45.9330  -30.0560  114.3480 C.3   329  SER329      0.2116
    114  OG        45.1280  -30.3250  115.4830 O.3   329  SER329     -0.2180
    115  N         45.0270  -28.8500  118.0370 N.3   331  CYS331     -0.1235
    116  CA        44.6840  -29.9550  118.9260 C.3   331  CYS331      0.1677
    117  C         43.3280  -29.8250  119.6220 C.2   331  CYS331      0.2270
    118  O         42.9080  -30.7780  120.3380 O.2   331  CYS331     -0.2867
    119  CB        45.7780  -30.1480  120.0060 C.3   331  CYS331      0.0956
    120  SG        47.4900  -29.9250  119.4220 S.3   331  CYS331     -0.0801
    121  N         52.0540  -27.4100  121.1620 N.3   390  ALA390     -0.1245
    122  CA        53.2000  -27.5730  120.2750 C.3   390  ALA390      0.1562
    123  C         54.4280  -26.8830  120.8130 C.2   390  ALA390      0.2260
    124  O         55.4880  -27.0910  120.2860 O.2   390  ALA390     -0.2867
    125  CB        52.8590  -27.0130  118.9040 C.3   390  ALA390      0.0290
    126  N         54.3520  -33.1170  117.4780 N.3   395  PRO395     -0.2102
    127  CA        52.9930  -33.5380  117.0900 C.3   395  PRO395      0.1504
    128  C         52.9240  -34.8830  116.3750 C.2   395  PRO395      0.2575
    129  O         51.8080  -35.4320  116.1870 O.2   395  PRO395     -0.2718
    130  CB        52.5460  -32.4060  116.1820 C.3   395  PRO395      0.0282
    131  CG        53.7540  -32.0470  115.4530 C.3   395  PRO395      0.0208
    132  CD        54.9050  -32.2130  116.4530 C.3   395  PRO395      0.0893
    133  N         54.0960  -35.4500  116.0030 N.am  396  HIS396     -0.1976
    134  CA        54.1600  -36.7170  115.2780 C.3   396  HIS396      0.1656
    135  C         54.4500  -37.8420  116.1930 C.2   396  HIS396      0.2291
    136  O         53.6260  -38.7570  116.3220 O.2   396  HIS396     -0.2864
    137  CB        55.1290  -36.6300  114.1230 C.3   396  HIS396      0.0771
    138  CG        54.7610  -35.5410  113.1770 C.ar  396  HIS396      0.0820
    139  ND1       55.5100  -34.3970  113.0170 N.ar  396  HIS396     -0.2267
    140  CD2       53.6270  -35.3520  112.4630 C.ar  396  HIS396      0.1154
    141  CE1       54.8780  -33.5690  112.2050 C.ar  396  HIS396      0.1986
    142  NE2       53.7550  -34.1540  111.8180 N.ar  396  HIS396     -0.2212
    143  N         59.8000  -31.2090  122.8010 N.3   430  LYS430     -0.1245
    144  CA        60.7130  -30.1780  122.3350 C.3   430  LYS430      0.1561
    145  C         61.3180  -29.4230  123.5420 C.2   430  LYS430      0.2260
    146  O         62.4590  -28.9540  123.4860 O.2   430  LYS430     -0.2867
    147  CB        59.9600  -29.1800  121.4790 C.3   430  LYS430      0.0271
    148  CG        59.3220  -29.7250  120.2090 C.3   430  LYS430      0.0035
    149  CD        58.3690  -28.7410  119.6360 C.3   430  LYS430      0.0206
    150  CE        57.7620  -29.1970  118.3040 C.3   430  LYS430      0.1093
    151  NZ        56.6060  -28.2990  117.9570 N.3   430  LYS430     -0.1314
@<TRIPOS>BOND
     1     1     2    1
     2     9    10    2
     3     9     8    1
     4     2     3    1
     5     2     5    1
     6     4     3    2
     7    11    12    1
     8     3     7   am
     9    20    19   ar
    10    20    18   ar
    11     7     8    1
    12    19    17   ar
    13    18    16   ar
    14     6     5    1
    15    17    16   ar
    16    12    13    1
    17    12    15    1
    18    16    15    1
    19    13    14    2
    20    94    93    2
    21    37    39   ar
    22    37    35   ar
    23    39    40   ar
    24    35    34    1
    25    35    36   ar
    26    34    31    1
    27    40    41    1
    28    40    38   ar
    29    93    92    1
    30    36    38   ar
    31    28    27    2
    32    83    84    1
    33    83    80    1
    34    95    92    1
    35    95    96    1
    36    92    91    1
    37    81    80    1
    38    81    82    2
    39    31    30    1
    40    31    32    1
    41    30    23   am
    42    96    97   ar
    43    96    98   ar
    44    27    29   am
    45    27    26    1
    46    80    79    1
    47    78    77    1
    48    21    22    1
    49    97    99   ar
    50    98   100   ar
    51    25    26    1
    52    25    22    1
    53    79    75   am
    54    91    87   am
    55    77    74    1
    56    32    33    2
    57    23    22    1
    58    23    24    2
    59   108   106    1
    60    99   100   ar
    61    54    55   ar
    62    54    52   ar
    63    55    53   ar
    64    75    74    1
    65    75    76    2
    66   106   105    1
    67   101   102    1
    68    52    49   ar
    69    87    88    2
    70    87    86    1
    71    74    73    1
    72    85    86    1
    73    53    51   ar
    74   102   105    1
    75   102   103    1
    76    49    51   ar
    77    49    47   ar
    78   105   107    1
    79    86    89    1
    80    73    68   am
    81    51    50   ar
    82   142   141   ar
    83   142   140   ar
    84    47    46    1
    85    47    48   ar
    86    46    43    1
    87    89    90    1
    88   141   139   ar
    89   140   138   ar
    90    50    48   ar
    91   103   109   am
    92   103   104    2
    93    68    69    2
    94    68    67    1
    95   109   110    1
    96   139   138   ar
    97    42    43    1
    98   138   137    1
    99    43    44    1
   100    44    45    2
   101    67    66    1
   102    67    70    1
   103   110   113    1
   104   110   111    1
   105   137   134    1
   106   113   114    1
   107    71    70    1
   108    70    72    1
   109   134   133    1
   110   134   135    1
   111    59    58    2
   112   111   112    2
   113   131   130    1
   114   131   132    1
   115    58    57    1
   116   133   128   am
   117   130   127    1
   118   129   128    2
   119   135   136    2
   120   128   127    1
   121   132   126    1
   122    60    57    1
   123    60    61    1
   124    57    56    1
   125   127   126    1
   126    62    61   ar
   127    62    64   ar
   128    61    63   ar
   129   151   150    1
   130    64    65   ar
   131   115   116    1
   132    63    65   ar
   133   150   149    1
   134   125   122    1
   135   116   117    1
   136   116   119    1
   137   120   119    1
   138   117   118    2
   139   149   148    1
   140   148   147    1
   141   122   123    1
   142   122   121    1
   143   124   123    2
   144   147   144    1
   145   144   143    1
   146   144   145    1
   147   146   145    2
