@<TRIPOS>MOLECULE
tmp/4rknB06.pdb
 223 213 0 0 0
SMALL
GASTEIGER

@<TRIPOS>ATOM
      1  N         60.8530  -29.2680  131.5010 N.3   433  CYS433     -0.1221
      2  CA        60.6000  -28.2530  132.5200 C.3   433  CYS433      0.1808
      3  C         61.8920  -27.5510  132.8620 C.2   433  CYS433      0.2601
      4  O         61.9260  -26.3490  133.0860 O.2   433  CYS433     -0.2717
      5  CB        60.0580  -28.8690  133.8160 C.3   433  CYS433      0.0970
      6  SG        58.7630  -30.0850  133.6100 S.3   433  CYS433     -0.0800
      7  N         62.9560  -28.3110  132.8750 N.am  434  THR434     -0.1953
      8  CA        64.3020  -27.7750  133.2400 C.3   434  THR434      0.1897
      9  C         64.8520  -26.7990  132.2430 C.2   434  THR434      0.2313
     10  O         65.7250  -25.9980  132.6150 O.2   434  THR434     -0.2863
     11  CB        65.3100  -28.8930  133.4930 C.3   434  THR434      0.1794
     12  OG1       65.3970  -29.7580  132.3620 O.3   434  THR434     -0.2208
     13  CG2       64.8790  -29.7140  134.6790 C.3   434  THR434      0.0378
     14  N         62.9440  -23.6040  133.7230 N.3   437  HIS437     -0.1241
     15  CA        62.9400  -23.3530  135.1500 C.3   437  HIS437      0.1621
     16  C         64.3180  -23.7800  135.7380 C.2   437  HIS437      0.2264
     17  O         64.4630  -24.8240  136.3970 O.2   437  HIS437     -0.2867
     18  CB        61.8030  -24.1600  135.7810 C.3   437  HIS437      0.0745
     19  CG        60.4590  -23.6720  135.4130 C.ar  437  HIS437      0.0817
     20  ND1       60.0050  -22.4310  135.7960 N.ar  437  HIS437     -0.2268
     21  CD2       59.4520  -24.2540  134.6970 C.ar  437  HIS437      0.1154
     22  CE1       58.7840  -22.2510  135.3120 C.ar  437  HIS437      0.1986
     23  NE2       58.4240  -23.3480  134.6570 N.ar  437  HIS437     -0.2212
     24  N         64.8740  -23.9470  139.8090 N.3   440  GLN440     -0.1231
     25  CA        64.2390  -25.1610  140.3180 C.3   440  GLN440      0.1698
     26  C         65.0740  -26.3950  139.9580 C.2   440  GLN440      0.2592
     27  O         65.3010  -27.2850  140.7850 O.2   440  GLN440     -0.2718
     28  CB        62.8190  -25.2990  139.7660 C.3   440  GLN440      0.0381
     29  CG        61.8270  -24.2010  140.1740 C.3   440  GLN440      0.0905
     30  CD        62.0340  -22.8340  139.5360 C.2   440  GLN440      0.2608
     31  OE1       62.6750  -22.6820  138.5110 O.2   440  GLN440     -0.2717
     32  NE2       61.4240  -21.8320  140.1350 N.am  440  GLN440     -0.0878
     33  N         65.4870  -26.4860  138.7010 N.am  441  ALA441     -0.1980
     34  CA        66.3280  -27.5840  138.2840 C.3   441  ALA441      0.1597
     35  C         67.6510  -27.6390  139.1180 C.2   441  ALA441      0.2287
     36  O         68.1850  -28.7240  139.4310 O.2   441  ALA441     -0.2864
     37  CB        66.6370  -27.4840  136.7840 C.3   441  ALA441      0.0319
     38  N         66.9470  -28.9220  142.5980 N.3   444  GLN444     -0.1245
     39  CA        66.5500  -30.3240  142.4880 C.3   444  GLN444      0.1566
     40  C         67.7490  -31.2560  142.1820 C.2   444  GLN444      0.2260
     41  O         67.7590  -32.4340  142.5650 O.2   444  GLN444     -0.2867
     42  CB        65.4470  -30.4730  141.4380 C.3   444  GLN444      0.0367
     43  CG        65.1230  -31.8990  141.0650 C.3   444  GLN444      0.0905
     44  CD        64.1590  -32.5690  142.0370 C.2   444  GLN444      0.2608
     45  OE1       63.8680  -32.0860  143.1470 O.2   444  GLN444     -0.2717
     46  NE2       63.6400  -33.7000  141.6050 N.am  444  GLN444     -0.0878
     47  N         64.0940  -36.4800  146.9250 N.3   450  HIS450     -0.1241
     48  CA        63.3840  -36.7230  145.6220 C.3   450  HIS450      0.1621
     49  C         64.2420  -36.3490  144.4110 C.2   450  HIS450      0.2264
     50  O         63.7010  -36.0800  143.3290 O.2   450  HIS450     -0.2867
     51  CB        62.1730  -35.8350  145.5710 C.3   450  HIS450      0.0745
     52  CG        61.1760  -36.1500  146.6270 C.ar  450  HIS450      0.0817
     53  ND1       60.8090  -35.2390  147.5640 N.ar  450  HIS450     -0.2268
     54  CD2       60.4210  -37.2590  146.8580 C.ar  450  HIS450      0.1154
     55  CE1       59.8590  -35.7430  148.3330 C.ar  450  HIS450      0.1986
     56  NE2       59.6140  -36.9760  147.9290 N.ar  450  HIS450     -0.2212
     57  N         63.4670  -37.8700  141.2600 N.3   453  ASN453     -0.1225
     58  CA        62.0690  -37.7560  140.7070 C.3   453  ASN453      0.1785
     59  C         62.1140  -36.8400  139.4720 C.2   453  ASN453      0.2598
     60  O         62.8620  -35.8900  139.4920 O.2   453  ASN453     -0.2718
     61  CB        61.1920  -36.9780  141.7000 C.3   453  ASN453      0.1169
     62  CG        60.5870  -37.8270  142.7960 C.2   453  ASN453      0.2627
     63  OD1       61.0870  -38.9020  143.1030 O.2   453  ASN453     -0.2716
     64  ND2       59.4330  -37.3230  143.3810 N.am  453  ASN453     -0.0877
     65  N         61.3080  -37.0650  138.4370 N.am  454  SER454     -0.1938
     66  CA        61.1690  -36.0920  137.3480 C.3   454  SER454      0.2055
     67  C         60.3950  -34.8940  137.9000 C.2   454  SER454      0.2643
     68  O         59.6750  -35.0300  138.8810 O.2   454  SER454     -0.2714
     69  CB        60.3600  -36.7150  136.1890 C.3   454  SER454      0.2130
     70  OG        59.0240  -36.9600  136.6750 O.3   454  SER454     -0.2179
     71  N         60.5170  -33.7190  137.2810 N.am  455  CYS455     -0.1967
     72  CA        59.6110  -32.5550  137.6220 C.3   455  CYS455      0.1712
     73  C         58.1100  -32.8930  137.4940 C.2   455  CYS455      0.2296
     74  O         57.2840  -32.5840  138.3700 O.2   455  CYS455     -0.2864
     75  CB        59.9360  -31.3180  136.7650 C.3   455  CYS455      0.0983
     76  SG        61.6830  -30.9690  136.7310 S.3   455  CYS455     -0.0798
     77  N         55.7310  -34.8150  140.6040 N.3   458  CYS458     -0.1221
     78  CA        54.8690  -34.1010  141.5160 C.3   458  CYS458      0.1808
     79  C         53.8650  -33.1830  140.8170 C.2   458  CYS458      0.2601
     80  O         52.7700  -33.0230  141.3070 O.2   458  CYS458     -0.2717
     81  CB        55.6590  -33.2820  142.5390 C.3   458  CYS458      0.0970
     82  SG        56.7570  -34.2120  143.6580 S.3   458  CYS458     -0.0800
     83  N         54.2620  -32.5560  139.7210 N.am  459  HIS459     -0.1975
     84  CA        53.4890  -31.5010  139.1050 C.3   459  HIS459      0.1656
     85  C         52.4160  -31.9400  138.1330 C.2   459  HIS459      0.2291
     86  O         51.4690  -31.1690  137.8930 O.2   459  HIS459     -0.2864
     87  CB        54.4610  -30.5440  138.3750 C.3   459  HIS459      0.0771
     88  CG        55.1650  -29.6160  139.3040 C.ar  459  HIS459      0.0820
     89  ND1       54.5310  -28.5250  139.8510 N.ar  459  HIS459     -0.2267
     90  CD2       56.4100  -29.6570  139.8520 C.ar  459  HIS459      0.1154
     91  CE1       55.3640  -27.8970  140.6730 C.ar  459  HIS459      0.1986
     92  NE2       56.4910  -28.5920  140.7240 N.ar  459  HIS459     -0.2212
     93  N         50.5310  -26.0330  138.6280 N.3   490  LYS490     -0.1231
     94  CA        50.4690  -25.2930  139.8950 C.3   490  LYS490      0.1693
     95  C         50.0080  -26.2310  141.0370 C.2   490  LYS490      0.2591
     96  O         48.9880  -26.9170  140.9270 O.2   490  LYS490     -0.2718
     97  CB        49.5150  -24.1110  139.7920 C.3   490  LYS490      0.0285
     98  CG        49.1800  -23.4060  141.1270 C.3   490  LYS490      0.0035
     99  CD        50.3750  -22.6250  141.6670 C.3   490  LYS490      0.0206
    100  CE        50.0670  -21.9490  143.0000 C.3   490  LYS490      0.1093
    101  NZ        51.2000  -21.0900  143.3880 N.3   490  LYS490     -0.1314
    102  N         50.8200  -26.2720  142.0950 N.am  491  ILE491     -0.1980
    103  CA        50.5630  -27.0650  143.2890 C.3   491  ILE491      0.1595
    104  C         50.1950  -26.1040  144.4080 C.2   491  ILE491      0.2287
    105  O         50.9350  -25.1590  144.7010 O.2   491  ILE491     -0.2864
    106  CB        51.7450  -27.9320  143.7440 C.3   491  ILE491      0.0276
    107  CG1       52.0800  -28.9600  142.6940 C.3   491  ILE491      0.0022
    108  CG2       51.3900  -28.6330  145.0680 C.3   491  ILE491      0.0022
    109  CD1       53.3190  -29.7850  142.9740 C.3   491  ILE491      0.0001
    110  N         49.2420  -25.5110  148.3140 N.3   493  VAL493     -0.1245
    111  CA        49.6760  -26.0950  149.5670 C.3   493  VAL493      0.1561
    112  C         48.6760  -25.7400  150.6410 C.2   493  VAL493      0.2260
    113  O         48.6910  -24.6350  151.0980 O.2   493  VAL493     -0.2867
    114  CB        51.0570  -25.4970  149.9080 C.3   493  VAL493      0.0252
    115  CG1       51.5380  -25.8790  151.3180 C.3   493  VAL493      0.0019
    116  CG2       52.0270  -25.9180  148.8200 C.3   493  VAL493      0.0019
    117  N         47.5510  -31.3520  147.3820 N.3   529  LEU529     -0.1245
    118  CA        48.7250  -32.1230  147.7820 C.3   529  LEU529      0.1561
    119  C         48.4750  -33.6110  147.8530 C.2   529  LEU529      0.2260
    120  O         49.4270  -34.4320  147.8360 O.2   529  LEU529     -0.2867
    121  CB        49.2120  -31.5980  149.1250 C.3   529  LEU529      0.0270
    122  CG        49.9970  -30.2640  149.1460 C.3   529  LEU529      0.0019
    123  CD1       50.1900  -29.8560  150.5840 C.3   529  LEU529      0.0001
    124  CD2       51.3590  -30.4920  148.5060 C.3   529  LEU529      0.0001
    125  N         51.2380  -35.7910  145.8640 N.3   533  CYS533     -0.1235
    126  CA        52.1830  -36.6180  146.6470 C.3   533  CYS533      0.1677
    127  C         51.7190  -38.0780  146.9090 C.2   533  CYS533      0.2270
    128  O         52.5560  -38.9640  147.0700 O.2   533  CYS533     -0.2867
    129  CB        52.4780  -35.9700  147.9910 C.3   533  CYS533      0.0956
    130  SG        52.7770  -34.1800  147.9490 S.3   533  CYS533     -0.0801
    131  N         54.7540  -31.1160  154.4410 N.3   573  VAL573     -0.1245
    132  CA        55.1980  -29.9600  153.7000 C.3   573  VAL573      0.1561
    133  C         55.5710  -28.8120  154.6500 C.2   573  VAL573      0.2260
    134  O         56.6070  -28.1610  154.4690 O.2   573  VAL573     -0.2867
    135  CB        54.1790  -29.5260  152.6240 C.3   573  VAL573      0.0252
    136  CG1       54.5920  -28.2090  151.9510 C.3   573  VAL573      0.0019
    137  CG2       54.0600  -30.6290  151.5670 C.3   573  VAL573      0.0019
    138  N         58.7910  -26.4070  154.8510 N.3   577  GLN577     -0.1245
    139  CA        58.6840  -25.0340  154.4080 C.3   577  GLN577      0.1566
    140  C         58.8090  -23.9960  155.5430 C.2   577  GLN577      0.2260
    141  O         59.3020  -22.8870  155.3010 O.2   577  GLN577     -0.2867
    142  CB        57.3630  -24.7840  153.6680 C.3   577  GLN577      0.0367
    143  CG        57.2520  -25.5480  152.3330 C.3   577  GLN577      0.0905
    144  CD        56.1650  -24.9980  151.4690 C.2   577  GLN577      0.2608
    145  OE1       55.1080  -24.6810  151.9870 O.2   577  GLN577     -0.2717
    146  NE2       56.3840  -24.9260  150.1100 N.am  577  GLN577     -0.0878
    147  N         61.1280  -20.7630  155.3090 N.3   581  LYS581     -0.1245
    148  CA        60.5680  -19.4260  155.3000 C.3   581  LYS581      0.1561
    149  C         61.0040  -18.5360  156.5040 C.2   581  LYS581      0.2260
    150  O         61.1560  -17.3240  156.3590 O.2   581  LYS581     -0.2867
    151  CB        59.0620  -19.4720  155.2620 C.3   581  LYS581      0.0271
    152  CG        58.4710  -19.8850  153.9080 C.3   581  LYS581      0.0035
    153  CD        56.9620  -19.9880  153.9820 C.3   581  LYS581      0.0206
    154  CE        56.3600  -20.3810  152.6390 C.3   581  LYS581      0.1093
    155  NZ        54.9010  -20.5500  152.7500 N.3   581  LYS581     -0.1314
    156  N         64.1220  -17.3540  146.6650 N.3   626  GLU626     -0.1231
    157  CA        62.9160  -16.6810  146.2310 C.3   626  GLU626      0.1699
    158  C         62.4890  -17.0560  144.7770 C.2   626  GLU626      0.2592
    159  O         61.3070  -17.2370  144.5030 O.2   626  GLU626     -0.2718
    160  CB        63.0790  -15.1630  146.3130 C.3   626  GLU626      0.0402
    161  CG        61.7880  -14.4370  145.9220 C.3   626  GLU626      0.1161
    162  CD        61.8390  -12.9330  146.2120 C.2   626  GLU626      0.3649
    163  OE1       62.8020  -12.4360  146.8520 O.co2 626  GLU626     -0.2457
    164  OE2       60.8800  -12.2480  145.8050 O.co2 626  GLU626     -0.2457
    165  N         63.4300  -17.0490  143.8650 N.am  627  LYS627     -0.1966
    166  CA        63.1310  -17.4670  142.4860 C.3   627  LYS627      0.1728
    167  C         62.7340  -18.9260  142.3950 C.2   627  LYS627      0.2616
    168  O         61.8370  -19.2590  141.6490 O.2   627  LYS627     -0.2715
    169  CB        64.3180  -17.3070  141.5580 C.3   627  LYS627      0.0311
    170  CG        64.7030  -15.8670  141.3970 C.3   627  LYS627      0.0038
    171  CD        65.8650  -15.7560  140.4330 C.3   627  LYS627      0.0206
    172  CE        66.6940  -14.4980  140.6360 C.3   627  LYS627      0.1093
    173  NZ        68.0860  -14.9230  140.4300 N.3   627  LYS627     -0.1314
    174  N         63.3940  -19.8040  143.1370 N.am  628  ASP628     -0.1957
    175  CA        62.9810  -21.1860  143.1550 C.3   628  ASP628      0.1840
    176  C         61.4970  -21.3260  143.5510 C.2   628  ASP628      0.2623
    177  O         60.6840  -21.9950  142.8690 O.2   628  ASP628     -0.2715
    178  CB        63.8920  -22.0120  144.0900 C.3   628  ASP628      0.1450
    179  CG        63.3810  -23.4560  144.2880 C.2   628  ASP628      0.3671
    180  OD1       63.4520  -24.2790  143.3420 O.co2 628  ASP628     -0.2456
    181  OD2       62.8560  -23.7500  145.3560 O.co2 628  ASP628     -0.2456
    182  N         61.1450  -20.6700  144.6500 N.am  629  GLY629     -0.1940
    183  CA        59.7470  -20.5930  145.0360 C.3   629  GLY629      0.2014
    184  C         59.0900  -21.8110  145.6480 C.2   629  GLY629      0.2640
    185  O         57.8950  -21.7830  145.9240 O.2   629  GLY629     -0.2714
    186  N         59.8720  -22.8260  145.9760 N.am  630  SER630     -0.1935
    187  CA        59.3460  -24.0460  146.5840 C.3   630  SER630      0.2055
    188  C         59.5840  -24.1310  148.1000 C.2   630  SER630      0.2643
    189  O         59.1280  -25.1010  148.7530 O.2   630  SER630     -0.2714
    190  CB        59.9770  -25.2730  145.9350 C.3   630  SER630      0.2130
    191  OG        61.2550  -25.5610  146.4530 O.3   630  SER630     -0.2179
    192  N         60.3790  -23.1900  148.6360 N.am  631  TRP631     -0.1973
    193  CA        60.6200  -23.0960  150.0770 C.3   631  TRP631      0.1640
    194  C         61.1270  -24.4420  150.6850 C.2   631  TRP631      0.2290
    195  O         60.7000  -24.8640  151.7500 O.2   631  TRP631     -0.2864
    196  CB        59.3560  -22.5440  150.7770 C.3   631  TRP631      0.0576
    197  CG        58.8240  -21.2970  150.1360 C.ar  631  TRP631      0.0006
    198  CD1       57.7320  -21.1940  149.3450 C.ar  631  TRP631      0.0946
    199  CD2       59.4690  -19.9980  150.0860 C.ar  631  TRP631      0.0152
    200  NE1       57.6370  -19.9210  148.7900 N.ar  631  TRP631     -0.2442
    201  CE2       58.6860  -19.1710  149.2460 C.ar  631  TRP631      0.0810
    202  CE3       60.6520  -19.4890  150.6170 C.ar  631  TRP631      0.0012
    203  CZ2       59.0160  -17.8450  148.9670 C.ar  631  TRP631      0.0191
    204  CZ3       60.9910  -18.1300  150.3420 C.ar  631  TRP631      0.0001
    205  CH2       60.1640  -17.3400  149.5260 C.ar  631  TRP631      0.0015
    206  N         60.9140  -27.5310  149.0590 N.3   633  MET633     -0.1230
    207  CA        60.2870  -28.7380  148.4270 C.3   633  MET633      0.1702
    208  C         61.0500  -29.2690  147.2240 C.2   633  MET633      0.2592
    209  O         60.9670  -30.4770  146.8980 O.2   633  MET633     -0.2718
    210  CB        58.8190  -28.4840  148.0930 C.3   633  MET633      0.0401
    211  CG        57.9210  -28.2080  149.2960 C.3   633  MET633      0.0596
    212  SD        58.1120  -29.5040  150.5660 S.3   633  MET633     -0.1393
    213  CE        57.7990  -31.0180  149.6730 C.3   633  MET633      0.0692
    214  N         61.8850  -28.4420  146.6130 N.am  634  HIS634     -0.1976
    215  CA        62.8300  -28.9740  145.6050 C.3   634  HIS634      0.1656
    216  C         64.1740  -29.4500  146.1140 C.2   634  HIS634      0.2291
    217  O         65.0250  -29.8750  145.3030 O.2   634  HIS634     -0.2864
    218  CB        63.1000  -27.9130  144.5400 C.3   634  HIS634      0.0771
    219  CG        61.8900  -27.4950  143.8040 C.ar  634  HIS634      0.0820
    220  ND1       61.7560  -26.2560  143.2270 N.ar  634  HIS634     -0.2267
    221  CD2       60.7310  -28.1320  143.6040 C.ar  634  HIS634      0.1154
    222  CE1       60.5690  -26.1660  142.6720 C.ar  634  HIS634      0.1986
    223  NE2       59.9510  -27.3150  142.8490 N.ar  634  HIS634     -0.2212
@<TRIPOS>BOND
     1     1     2    1
     2     9    10    2
     3     9     8    1
     4    12    11    1
     5     2     3    1
     6     2     5    1
     7     3     7   am
     8     3     4    2
     9     7     8    1
    10     8    11    1
    11    11    13    1
    12     6     5    1
    13    14    15    1
    14    23    21   ar
    15    23    22   ar
    16    21    19   ar
    17    15    16    1
    18    15    18    1
    19    22    20   ar
    20    19    18    1
    21    19    20   ar
    22    16    17    2
    23    69    70    1
    24    69    66    1
    25    76    75    1
    26    75    72    1
    27    37    34    1
    28    71    72    1
    29    71    67   am
    30    66    67    1
    31    66    65    1
    32    73    72    1
    33    73    74    2
    34    86    85    2
    35    67    68    2
    36    85    84    1
    37    34    33    1
    38    34    35    1
    39    87    84    1
    40    87    88    1
    41    65    59   am
    42    31    30    2
    43    93    94    1
    44    33    26   am
    45    84    83    1
    46    35    36    2
    47    88    89   ar
    48    88    90   ar
    49    59    60    2
    50    59    58    1
    51    30    32   am
    52    30    29    1
    53    83    79   am
    54    28    29    1
    55    28    25    1
    56    97    94    1
    57    97    98    1
    58    24    25    1
    59    89    91   ar
    60    90    92   ar
    61    94    95    1
    62    26    25    1
    63    26    27    2
    64   173   172    1
    65   171   172    1
    66   171   170    1
    67    77    78    1
    68    91    92   ar
    69    58    57    1
    70    58    61    1
    71    79    80    2
    72    79    78    1
    73    96    95    2
    74    95   102   am
    75    43    42    1
    76    43    44    1
    77    98    99    1
    78   170   169    1
    79    42    39    1
    80    78    81    1
    81   169   166    1
    82    46    44   am
    83   168   167    2
    84    99   100    1
    85    61    62    1
    86    44    45    2
    87   102   103    1
    88    40    39    1
    89    40    41    2
    90   167   166    1
    91   167   174   am
    92   166   165    1
    93    39    38    1
    94    81    82    1
    95   222   223   ar
    96   222   220   ar
    97   107   109    1
    98   107   106    1
    99    62    63    2
   100    62    64   am
   101   223   221   ar
   102   177   176    2
   103   100   101    1
   104   174   175    1
   105   175   176    1
   106   175   178    1
   107   220   219   ar
   108   103   106    1
   109   103   104    1
   110    50    49    2
   111   180   179   ar
   112   176   182   am
   113   221   219   ar
   114   106   108    1
   115   219   218    1
   116   165   158   am
   117   178   179    1
   118   179   181   ar
   119   104   105    2
   120    49    48    1
   121   159   158    2
   122   218   215    1
   123   182   183    1
   124   158   157    1
   125   183   184    1
   126   217   216    2
   127    51    48    1
   128    51    52    1
   129   215   216    1
   130   215   214    1
   131    48    47    1
   132   184   185    2
   133   184   186   am
   134   164   162   ar
   135   125   126    1
   136   161   162    1
   137   161   160    1
   138   190   191    1
   139   190   187    1
   140   186   187    1
   141   162   163   ar
   142   157   160    1
   143   157   156    1
   144   187   188    1
   145   214   208   am
   146    52    54   ar
   147    52    53   ar
   148   126   127    1
   149   126   129    1
   150    54    56   ar
   151   209   208    2
   152   127   128    2
   153   208   207    1
   154   117   118    1
   155    53    55   ar
   156   118   119    1
   157   118   121    1
   158   120   119    2
   159    56    55   ar
   160   130   129    1
   161   210   207    1
   162   210   211    1
   163   188   192   am
   164   188   189    2
   165   110   111    1
   166   207   206    1
   167   124   122    1
   168   192   193    1
   169   200   201   ar
   170   200   198   ar
   171   116   114    1
   172   203   201   ar
   173   203   205   ar
   174   121   122    1
   175   122   123    1
   176   201   199   ar
   177   211   212    1
   178   198   197   ar
   179   205   204   ar
   180   111   114    1
   181   111   112    1
   182   213   212    1
   183   114   115    1
   184   193   194    1
   185   193   196    1
   186   199   197   ar
   187   199   202   ar
   188   146   144   am
   189   197   196    1
   190   204   202   ar
   191   112   113    2
   192   194   195    2
   193   144   145    2
   194   144   143    1
   195   137   135    1
   196   136   135    1
   197   143   142    1
   198   135   132    1
   199   154   155    1
   200   154   153    1
   201   142   139    1
   202   132   131    1
   203   132   133    1
   204   152   153    1
   205   152   151    1
   206   139   138    1
   207   139   140    1
   208   134   133    2
   209   151   148    1
   210   148   147    1
   211   148   149    1
   212   141   140    2
   213   150   149    2
