@<TRIPOS>MOLECULE
tmp/4rkrA00.pdb
 181 175 0 0 0
SMALL
GASTEIGER

@<TRIPOS>ATOM
      1  N         31.7850   29.6690   10.3720 N.3    17  PRO17      -0.2116
      2  CA        30.3170   29.6460   10.3220 C.3    17  PRO17       0.1372
      3  C         29.6830   28.3960    9.6950 C.2    17  PRO17       0.2244
      4  O         28.5080   28.1460    9.9210 O.2    17  PRO17      -0.2868
      5  CB        29.9810   30.8820    9.4890 C.3    17  PRO17       0.0268
      6  CG        31.1770   31.1050    8.6340 C.3    17  PRO17       0.0207
      7  CD        32.3490   30.6950    9.4820 C.3    17  PRO17       0.0892
      8  N         30.5080   25.3800    2.8220 N.3    21  ASN21      -0.1240
      9  CA        31.1290   26.2270    1.7800 C.3    21  ASN21       0.1653
     10  C         32.6180   25.8870    1.7530 C.2    21  ASN21       0.2266
     11  O         33.3110   26.2100    2.7040 O.2    21  ASN21      -0.2867
     12  CB        30.9040   27.7110    2.0850 C.3    21  ASN21       0.1155
     13  CG        31.7060   28.6470    1.1770 C.2    21  ASN21       0.2627
     14  OD1       32.4180   28.2220    0.2720 O.2    21  ASN21      -0.2716
     15  ND2       31.5720   29.9380    1.4210 N.am   21  ASN21      -0.0877
     16  N         35.2810   27.0020    0.9290 N.3    23  TYR23      -0.1227
     17  CA        36.2250   28.0070    1.3940 C.3    23  TYR23       0.1736
     18  C         36.6750   27.7610    2.8320 C.2    23  TYR23       0.2595
     19  O         37.8610   27.8410    3.1360 O.2    23  TYR23      -0.2718
     20  CB        35.6480   29.4240    1.2780 C.3    23  TYR23       0.0548
     21  CG        36.5660   30.4520    1.8870 C.ar   23  TYR23      -0.0200
     22  CD1       37.6950   30.8980    1.1980 C.ar   23  TYR23      -0.0009
     23  CD2       36.3450   30.9380    3.1820 C.ar   23  TYR23      -0.0009
     24  CE1       38.5690   31.8230    1.7690 C.ar   23  TYR23       0.0417
     25  CE2       37.2120   31.8550    3.7620 C.ar   23  TYR23       0.0417
     26  CZ        38.3200   32.2960    3.0530 C.ar   23  TYR23       0.1957
     27  OH        39.1770   33.2100    3.6200 O.3    23  TYR23      -0.2866
     28  N         35.7400   27.4700    3.7220 N.am   24  PHE24      -0.1976
     29  CA        36.0990   27.4210    5.1410 C.3    24  PHE24       0.1639
     30  C         36.9580   26.2330    5.5280 C.2    24  PHE24       0.2290
     31  O         37.9050   26.3920    6.2820 O.2    24  PHE24      -0.2864
     32  CB        34.8670   27.5410    6.0190 C.3    24  PHE24       0.0560
     33  CG        34.1880   28.8730    5.8860 C.ar   24  PHE24      -0.0200
     34  CD1       34.8140   30.0280    6.3370 C.ar   24  PHE24      -0.0042
     35  CD2       32.9490   28.9770    5.2770 C.ar   24  PHE24      -0.0042
     36  CE1       34.2030   31.2540    6.2020 C.ar   24  PHE24      -0.0003
     37  CE2       32.3270   30.2000    5.1480 C.ar   24  PHE24      -0.0003
     38  CZ        32.9580   31.3430    5.6090 C.ar   24  PHE24      -0.0000
     39  N         35.8900   33.7990   11.6010 N.3    71  TYR71      -0.1241
     40  CA        34.8180   34.5160   10.9410 C.3    71  TYR71       0.1605
     41  C         33.6460   34.5250   11.9200 C.2    71  TYR71       0.2264
     42  O         33.1230   33.4670   12.2670 O.2    71  TYR71      -0.2867
     43  CB        34.4460   33.8130    9.6450 C.3    71  TYR71       0.0534
     44  CG        35.4030   34.0660    8.4960 C.ar   71  TYR71      -0.0201
     45  CD1       36.6080   33.3580    8.3830 C.ar   71  TYR71      -0.0009
     46  CD2       35.0910   34.9920    7.5080 C.ar   71  TYR71      -0.0009
     47  CE1       37.4730   33.5870    7.3210 C.ar   71  TYR71       0.0417
     48  CE2       35.9490   35.2310    6.4460 C.ar   71  TYR71       0.0417
     49  CZ        37.1240   34.5240    6.3550 C.ar   71  TYR71       0.1957
     50  OH        37.9600   34.7870    5.3270 O.3    71  TYR71      -0.2866
     51  N         30.6350   36.4820   11.8950 N.3    73  GLY73      -0.1225
     52  CA        29.2980   36.8670   11.4530 C.3    73  GLY73       0.1811
     53  C         28.7920   38.1700   12.0550 C.2    73  GLY73       0.2280
     54  O         27.6090   38.3200   12.2970 O.2    73  GLY73      -0.2866
     55  N         38.2830   37.9910   10.6320 N.3    91  LEU91      -0.1231
     56  CA        38.4620   38.1610    9.1810 C.3    91  LEU91       0.1693
     57  C         37.2300   38.7400    8.5260 C.2    91  LEU91       0.2592
     58  O         36.0900   38.4650    8.9290 O.2    91  LEU91      -0.2718
     59  CB        38.8110   36.8360    8.4980 C.3    91  LEU91       0.0284
     60  CG        40.2570   36.4110    8.7580 C.3    91  LEU91       0.0019
     61  CD1       40.3380   35.4640    9.9370 C.3    91  LEU91       0.0001
     62  CD2       40.8770   35.7760    7.5360 C.3    91  LEU91       0.0001
     63  N         37.4880   39.5900    7.5390 N.am   92  ASP92      -0.1960
     64  CA        36.4820   40.0100    6.5870 C.3    92  ASP92       0.1840
     65  C         35.2570   40.6540    7.2270 C.2    92  ASP92       0.2621
     66  O         34.1500   40.4440    6.7580 O.2    92  ASP92      -0.2715
     67  CB        36.0670   38.7890    5.7580 C.3    92  ASP92       0.1450
     68  CG        35.5310   39.1480    4.3830 C.2    92  ASP92       0.3671
     69  OD1       35.6050   40.3220    3.9350 O.co2  92  ASP92      -0.2456
     70  OD2       35.0180   38.2150    3.7500 O.co2  92  ASP92      -0.2456
     71  N         35.4510   41.4140    8.3070 N.am   93  GLU93      -0.1977
     72  CA        34.3650   42.2090    8.8860 C.3    93  GLU93       0.1602
     73  C         34.9020   43.3530    9.7160 C.2    93  GLU93       0.2287
     74  O         36.0770   43.3830   10.0580 O.2    93  GLU93      -0.2864
     75  CB        33.4240   41.3540    9.7490 C.3    93  GLU93       0.0415
     76  CG        34.0290   40.7760   11.0250 C.3    93  GLU93       0.1163
     77  CD        32.9930   40.0560   11.8850 C.2    93  GLU93       0.3649
     78  OE1       32.3830   40.7190   12.7320 O.co2  93  GLU93      -0.2457
     79  OE2       32.7840   38.8230   11.7340 O.co2  93  GLU93      -0.2457
     80  N         40.1270   42.3100    3.1780 N.3   104  PHE104     -0.1241
     81  CA        40.5240   42.1490    1.8010 C.3   104  PHE104      0.1605
     82  C         40.1260   43.3720    0.9880 C.2   104  PHE104      0.2264
     83  O         39.1360   44.0490    1.2830 O.2   104  PHE104     -0.2867
     84  CB        39.8820   40.8900    1.2520 C.3   104  PHE104      0.0534
     85  CG        40.1490   39.6700    2.0880 C.ar  104  PHE104     -0.0203
     86  CD1       41.3910   39.0600    2.0640 C.ar  104  PHE104     -0.0042
     87  CD2       39.1690   39.1470    2.9120 C.ar  104  PHE104     -0.0042
     88  CE1       41.6480   37.9410    2.8380 C.ar  104  PHE104     -0.0003
     89  CE2       39.4160   38.0250    3.6910 C.ar  104  PHE104     -0.0003
     90  CZ        40.6550   37.4160    3.6500 C.ar  104  PHE104     -0.0000
     91  N         38.4070   44.6230   -1.7400 N.3   106  TYR106     -0.1241
     92  CA        37.3870   44.1740   -2.7110 C.3   106  TYR106      0.1605
     93  C         37.2390   45.0900   -3.9300 C.2   106  TYR106      0.2264
     94  O         36.6850   44.6820   -4.9550 O.2   106  TYR106     -0.2867
     95  CB        36.0290   43.9660   -2.0290 C.3   106  TYR106      0.0534
     96  CG        35.9720   42.6930   -1.2030 C.ar  106  TYR106     -0.0201
     97  CD1       36.1170   41.4450   -1.8070 C.ar  106  TYR106     -0.0009
     98  CD2       35.7870   42.7350    0.1760 C.ar  106  TYR106     -0.0009
     99  CE1       36.0900   40.2820   -1.0650 C.ar  106  TYR106      0.0417
    100  CE2       35.7540   41.5700    0.9250 C.ar  106  TYR106      0.0417
    101  CZ        35.9070   40.3510    0.2950 C.ar  106  TYR106      0.1957
    102  OH        35.8690   39.1870    1.0070 O.3   106  TYR106     -0.2866
    103  N         26.1490   43.1660   -0.2930 N.3   136  THR136     -0.1203
    104  CA        27.4750   42.8500    0.2880 C.3   136  THR136      0.1994
    105  C         28.5570   43.8570   -0.0770 C.2   136  THR136      0.2618
    106  O         28.3810   44.7070   -0.9460 O.2   136  THR136     -0.2717
    107  CB        27.9920   41.4540   -0.1100 C.3   136  THR136      0.1784
    108  OG1       28.3460   41.4310   -1.5050 O.3   136  THR136     -0.2211
    109  CG2       26.9520   40.3960    0.2040 C.3   136  THR136      0.0376
    110  N         29.6920   43.7350    0.5920 N.am  137  VAL137     -0.1965
    111  CA        30.7850   44.6620    0.4040 C.3   137  VAL137      0.1727
    112  C         31.3800   44.5070   -0.9790 C.2   137  VAL137      0.2616
    113  O         31.5160   45.4880   -1.7090 O.2   137  VAL137     -0.2715
    114  CB        31.8860   44.4630    1.4630 C.3   137  VAL137      0.0290
    115  CG1       33.1280   45.2880    1.1120 C.3   137  VAL137      0.0023
    116  CG2       31.3500   44.8330    2.8470 C.3   137  VAL137      0.0023
    117  N         31.7560   43.2820   -1.3320 N.am  138  ARG138     -0.1977
    118  CA        32.2990   43.0240   -2.6700 C.3   138  ARG138      0.1597
    119  C         31.2230   43.2850   -3.7270 C.2   138  ARG138      0.2287
    120  O         31.5230   43.7730   -4.8170 O.2   138  ARG138     -0.2864
    121  CB        32.8570   41.6010   -2.7820 C.3   138  ARG138      0.0334
    122  CG        31.8040   40.5080   -2.7760 C.3   138  ARG138      0.0492
    123  CD        32.4240   39.1290   -2.6720 C.3   138  ARG138      0.2205
    124  NE        32.7250   38.7570   -1.2930 N.pl3 138  ARG138     -0.0865
    125  CZ        33.0850   37.5340   -0.9060 C.cat 138  ARG138      0.5346
    126  NH1       33.1910   36.5430   -1.7930 N.pl3 138  ARG138      0.1354
    127  NH2       33.3360   37.2920    0.3790 N.pl3 138  ARG138      0.1354
    128  N         23.5790   31.6640   -0.7970 N.3   160  GLU160     -0.1245
    129  CA        24.9520   31.2840   -1.0690 C.3   160  GLU160      0.1567
    130  C         25.1240   29.7560   -1.0890 C.2   160  GLU160      0.2260
    131  O         25.7660   29.1750   -0.2250 O.2   160  GLU160     -0.2867
    132  CB        25.8610   31.9510   -0.0390 C.3   160  GLU160      0.0388
    133  CG        27.3550   31.7480   -0.2420 C.3   160  GLU160      0.1160
    134  CD        28.1910   32.4800    0.8040 C.2   160  GLU160      0.3649
    135  OE1       27.6450   33.3010    1.5830 O.co2 160  GLU160     -0.2457
    136  OE2       29.4090   32.2370    0.8420 O.co2 160  GLU160     -0.2457
    137  N         29.6260   35.9100   -6.7940 N.3   185  PHE185     -0.1227
    138  CA        30.0270   36.2710   -5.4300 C.3   185  PHE185      0.1736
    139  C         31.2260   35.4410   -4.9560 C.2   185  PHE185      0.2595
    140  O         32.2070   35.9780   -4.4430 O.2   185  PHE185     -0.2718
    141  CB        28.8430   36.0880   -4.4860 C.3   185  PHE185      0.0547
    142  CG        29.1780   36.3140   -3.0520 C.ar  185  PHE185     -0.0202
    143  CD1       29.2390   37.6000   -2.5380 C.ar  185  PHE185     -0.0042
    144  CD2       29.4230   35.2430   -2.2070 C.ar  185  PHE185     -0.0042
    145  CE1       29.5580   37.8230   -1.2030 C.ar  185  PHE185     -0.0003
    146  CE2       29.7410   35.4530   -0.8750 C.ar  185  PHE185     -0.0003
    147  CZ        29.8110   36.7460   -0.3680 C.ar  185  PHE185     -0.0000
    148  N         31.1650   34.1340   -5.1640 N.am  186  ASN186     -0.1974
    149  CA        32.3040   33.2880   -4.8450 C.3   186  ASN186      0.1688
    150  C         32.3320   32.0080   -5.6900 C.2   186  ASN186      0.2292
    151  O         31.4340   31.7730   -6.4960 O.2   186  ASN186     -0.2864
    152  CB        32.3080   32.9700   -3.3400 C.3   186  ASN186      0.1181
    153  CG        31.0970   32.1720   -2.8990 C.2   186  ASN186      0.2629
    154  OD1       30.3230   31.6600   -3.7210 O.2   186  ASN186     -0.2716
    155  ND2       30.9280   32.0510   -1.5840 N.am  186  ASN186     -0.0877
    156  N         37.6060   33.5010   -4.4490 N.3   214  ASP214     -0.1239
    157  CA        38.1840   32.6680   -3.3760 C.3   214  ASP214      0.1674
    158  C         39.3370   31.7430   -3.7480 C.2   214  ASP214      0.2266
    159  O         40.2370   31.5550   -2.9520 O.2   214  ASP214     -0.2867
    160  CB        37.1400   31.7770   -2.6800 C.3   214  ASP214      0.1410
    161  CG        36.0760   32.5570   -1.9510 C.2   214  ASP214      0.3668
    162  OD1       36.1900   33.7800   -1.8480 O.co2 214  ASP214     -0.2456
    163  OD2       35.1180   31.9330   -1.4780 O.co2 214  ASP214     -0.2456
    164  N         42.4680   33.9500   -3.4330 N.3   231  LEU231     -0.1245
    165  CA        43.2310   34.2440   -2.2290 C.3   231  LEU231      0.1561
    166  C         44.2280   33.1180   -2.0040 C.2   231  LEU231      0.2260
    167  O         43.8590   31.9280   -2.0500 O.2   231  LEU231     -0.2867
    168  CB        42.3060   34.2890   -1.0110 C.3   231  LEU231      0.0270
    169  CG        41.2530   35.3870   -0.9130 C.3   231  LEU231      0.0019
    170  CD1       40.3750   35.1560    0.3110 C.3   231  LEU231      0.0001
    171  CD2       41.9270   36.7480   -0.8470 C.3   231  LEU231      0.0001
    172  N         43.4250   39.8160   -3.4520 N.3   265  HIS265     -0.1241
    173  CA        43.2000   38.6480   -4.2950 C.3   265  HIS265      0.1621
    174  C         44.1020   38.7670   -5.5080 C.2   265  HIS265      0.2264
    175  O         44.4510   39.8730   -5.9040 O.2   265  HIS265     -0.2867
    176  CB        41.7610   38.5920   -4.8040 C.3   265  HIS265      0.0745
    177  CG        40.7260   38.4730   -3.7280 C.ar  265  HIS265      0.0817
    178  ND1       40.3090   39.5450   -2.9690 N.ar  265  HIS265     -0.2268
    179  CD2       39.9840   37.4160   -3.3230 C.ar  265  HIS265      0.1154
    180  CE1       39.3780   39.1470   -2.1230 C.ar  265  HIS265      0.1986
    181  NE2       39.1610   37.8600   -2.3170 N.ar  265  HIS265     -0.2212
@<TRIPOS>BOND
     1   137   138    1
     2   151   150    2
     3   175   174    2
     4   150   149    1
     5   174   173    1
     6   138   139    1
     7   138   141    1
     8   148   139   am
     9   148   149    1
    10   139   140    2
    11    94    93    2
    12   149   152    1
    13   120   119    2
    14   176   173    1
    15   176   177    1
    16   141   142    1
    17   156   157    1
    18   173   172    1
    19    93    92    1
    20   158   157    1
    21   158   159    2
    22   177   179   ar
    23   177   178   ar
    24   119   118    1
    25   154   153    2
    26   164   165    1
    27   157   160    1
    28   152   153    1
    29   179   181   ar
    30   142   143   ar
    31   142   144   ar
    32   178   180   ar
    33   153   155   am
    34   121   122    1
    35   121   118    1
    36   122   123    1
    37    92    95    1
    38    92    91    1
    39   160   161    1
    40   123   124    1
    41   118   117    1
    42   143   145   ar
    43   181   180   ar
    44   165   166    1
    45   165   168    1
    46   144   146   ar
    47   167   166    2
    48    95    96    1
    49   161   162   ar
    50   161   163   ar
    51    97    96   ar
    52    97    99   ar
    53   126   125    1
    54   113   112    2
    55   108   107    1
    56   117   112   am
    57   124   125    2
    58    96    98   ar
    59   145   147   ar
    60   130   129    1
    61   130   131    2
    62   129   128    1
    63   129   132    1
    64    99   101   ar
    65   168   169    1
    66   112   111    1
    67   106   105    2
    68   169   171    1
    69   169   170    1
    70   125   127    1
    71   146   147   ar
    72   103   104    1
    73   133   132    1
    74   133   134    1
    75   107   109    1
    76   107   104    1
    77   105   104    1
    78   105   110   am
    79    98   100   ar
    80    14    13    2
    81   101   100   ar
    82   101   102    1
    83   111   110    1
    84   111   114    1
    85   134   136   ar
    86   134   135   ar
    87    16    17    1
    88    82    83    2
    89    82    81    1
    90   115   114    1
    91    13    15   am
    92    13    12    1
    93    22    24   ar
    94    22    21   ar
    95    84    81    1
    96    84    85    1
    97    20    17    1
    98    20    21    1
    99    17    18    1
   100   114   116    1
   101    10     9    1
   102    10    11    2
   103    24    26   ar
   104     9    12    1
   105     9     8    1
   106    81    80    1
   107    21    23   ar
   108    86    85   ar
   109    86    88   ar
   110    85    87   ar
   111    18    19    2
   112    18    28   am
   113    88    90   ar
   114    87    89   ar
   115    26    27    1
   116    26    25   ar
   117    23    25   ar
   118    90    89   ar
   119    28    29    1
   120    70    68   ar
   121    69    68   ar
   122    68    67    1
   123    29    30    1
   124    29    32    1
   125    37    35   ar
   126    37    38   ar
   127    35    33   ar
   128    50    49    1
   129    30    31    2
   130    38    36   ar
   131    67    64    1
   132    33    32    1
   133    33    34   ar
   134    36    34   ar
   135    49    48   ar
   136    49    47   ar
   137    48    46   ar
   138    64    65    1
   139    64    63    1
   140    66    65    2
   141    65    71   am
   142    47    45   ar
   143    46    44   ar
   144    62    60    1
   145    63    57   am
   146    71    72    1
   147    45    44   ar
   148    44    43    1
   149    59    60    1
   150    59    56    1
   151    57    58    2
   152    57    56    1
   153     6     7    1
   154     6     5    1
   155    60    61    1
   156    72    73    1
   157    72    75    1
   158    56    55    1
   159     7     1    1
   160     5     2    1
   161    43    40    1
   162     3     4    2
   163     3     2    1
   164    73    74    2
   165    75    76    1
   166     2     1    1
   167    40    39    1
   168    40    41    1
   169    76    77    1
   170    52    51    1
   171    52    53    1
   172    79    77   ar
   173    77    78   ar
   174    41    42    2
   175    53    54    2
