@<TRIPOS>MOLECULE
tmp/4rksB00.pdb
 112 104 0 0 0
SMALL
GASTEIGER

@<TRIPOS>ATOM
      1  N         19.1870    6.5840   37.1950 N.3    17  GLY17      -0.1225
      2  CA        18.3640    7.1060   38.2800 C.3    17  GLY17       0.1811
      3  C         19.1570    7.1770   39.5840 C.2    17  GLY17       0.2280
      4  O         19.9650    6.2900   39.8800 O.2    17  GLY17      -0.2866
      5  N         14.8490    6.8990   42.3910 N.3    20  LEU20      -0.1231
      6  CA        14.2930    6.0930   41.3060 C.3    20  LEU20       0.1693
      7  C         12.7880    6.2760   41.0670 C.2    20  LEU20       0.2591
      8  O         11.9940    6.2410   41.9970 O.2    20  LEU20      -0.2718
      9  CB        14.6000    4.6220   41.5700 C.3    20  LEU20       0.0284
     10  CG        16.1060    4.3350   41.6560 C.3    20  LEU20       0.0019
     11  CD1       16.3600    2.9880   42.2590 C.3    20  LEU20       0.0001
     12  CD2       16.7650    4.4150   40.2820 C.3    20  LEU20       0.0001
     13  N         12.4170    6.4620   39.8010 N.am   21  LEU21      -0.1980
     14  CA        11.0340    6.7360   39.4140 C.3    21  LEU21       0.1596
     15  C         10.2330    5.4430   39.1940 C.2    21  LEU21       0.2287
     16  O         10.6770    4.5460   38.4870 O.2    21  LEU21      -0.2864
     17  CB        11.0000    7.5710   38.1370 C.3    21  LEU21       0.0297
     18  CG         9.6090    7.6930   37.5000 C.3    21  LEU21       0.0022
     19  CD1        8.6680    8.4960   38.4280 C.3    21  LEU21       0.0001
     20  CD2        9.6870    8.3090   36.0920 C.3    21  LEU21       0.0001
     21  N         15.9340    7.8260   26.9570 N.3   111  ASP111     -0.1239
     22  CA        16.0790    9.1600   27.5310 C.3   111  ASP111      0.1674
     23  C         17.0420   10.0090   26.6980 C.2   111  ASP111      0.2266
     24  O         16.7300   11.1600   26.3770 O.2   111  ASP111     -0.2867
     25  CB        16.5540    9.0850   28.9870 C.3   111  ASP111      0.1410
     26  CG        15.5040    8.4770   29.9190 C.2   111  ASP111      0.3668
     27  OD1       14.3010    8.7680   29.7450 O.co2 111  ASP111     -0.2456
     28  OD2       15.8790    7.7020   30.8260 O.co2 111  ASP111     -0.2456
     29  N         10.0400    9.0370   29.5670 N.3   142  GLU142     -0.1231
     30  CA         9.5780    9.7940   30.7460 C.3   142  GLU142      0.1699
     31  C         10.6830   10.5700   31.4690 C.2   142  GLU142      0.2592
     32  O         10.4110   11.6070   32.0770 O.2   142  GLU142     -0.2718
     33  CB         8.8870    8.8660   31.7600 C.3   142  GLU142      0.0402
     34  CG         9.6800    7.6210   32.0880 C.3   142  GLU142      0.1161
     35  CD         9.3430    6.4640   31.1670 C.2   142  GLU142      0.3649
     36  OE1        8.8880    6.7120   30.0250 O.co2 142  GLU142     -0.2457
     37  OE2        9.5150    5.3080   31.5960 O.co2 142  GLU142     -0.2457
     38  N         11.9200   10.0760   31.4200 N.am  143  SER143     -0.1952
     39  CA        13.0160   10.7710   32.0940 C.3   143  SER143      0.1924
     40  C         13.9180   11.5850   31.1510 C.2   143  SER143      0.2314
     41  O         15.1040   11.7540   31.4190 O.2   143  SER143     -0.2863
     42  CB        13.8580    9.7600   32.8740 C.3   143  SER143      0.2116
     43  OG        13.1120    9.2730   33.9750 O.3   143  SER143     -0.2180
     44  N         16.4730   14.2680   32.5190 N.3   146  ARG146     -0.1245
     45  CA        17.8010   13.9090   33.0300 C.3   146  ARG146      0.1563
     46  C         18.8790   14.1290   31.9690 C.2   146  ARG146      0.2260
     47  O         19.9260   14.6910   32.2500 O.2   146  ARG146     -0.2867
     48  CB        17.8590   12.4530   33.4810 C.3   146  ARG146      0.0307
     49  CG        17.0760   12.1030   34.7200 C.3   146  ARG146      0.0489
     50  CD        16.9340   10.5740   34.8200 C.3   146  ARG146      0.2205
     51  NE        16.2220   10.2190   36.0380 N.pl3 146  ARG146     -0.0865
     52  CZ        15.9390    8.9790   36.4220 C.cat 146  ARG146      0.5346
     53  NH1       16.2940    7.9350   35.6670 N.pl3 146  ARG146      0.1354
     54  NH2       15.2950    8.7910   37.5760 N.pl3 146  ARG146      0.1354
     55  N         15.5260   -8.2190   30.9680 N.3   187  ARG187     -0.1245
     56  CA        15.0320   -7.1400   31.8280 C.3   187  ARG187      0.1563
     57  C         13.5200   -6.9150   31.7040 C.2   187  ARG187      0.2260
     58  O         12.9250   -7.2230   30.6800 O.2   187  ARG187     -0.2867
     59  CB        15.7740   -5.8370   31.5230 C.3   187  ARG187      0.0307
     60  CG        15.3910   -5.1780   30.2050 C.3   187  ARG187      0.0489
     61  CD        15.6540   -3.6650   30.2300 C.3   187  ARG187      0.2205
     62  NE        14.7100   -2.9700   31.1060 N.pl3 187  ARG187     -0.0865
     63  CZ        14.7910   -1.6840   31.4420 C.cat 187  ARG187      0.5346
     64  NH1       15.7840   -0.9280   30.9790 N.pl3 187  ARG187      0.1354
     65  NH2       13.8760   -1.1550   32.2450 N.pl3 187  ARG187      0.1354
     66  N         10.0450   -0.8410   31.1320 N.3   190  SER190     -0.1217
     67  CA         9.6910    0.1980   32.0940 C.3   190  SER190      0.1889
     68  C          8.1840    0.2840   32.3450 C.2   190  SER190      0.2288
     69  O          7.7490    0.5900   33.4600 O.2   190  SER190     -0.2866
     70  CB        10.2290    1.5510   31.6250 C.3   190  SER190      0.2089
     71  OG        11.6430    1.5700   31.7340 O.3   190  SER190     -0.2183
     72  N          7.2380   -1.9550   35.1750 N.3   193  ILE193     -0.1231
     73  CA         7.5330   -1.3200   36.4580 C.3   193  ILE193      0.1692
     74  C          6.4660   -0.2810   36.8190 C.2   193  ILE193      0.2592
     75  O          5.8610   -0.3410   37.8970 O.2   193  ILE193     -0.2718
     76  CB         8.9290   -0.6640   36.4440 C.3   193  ILE193      0.0266
     77  CG1       10.0070   -1.7490   36.3600 C.3   193  ILE193      0.0019
     78  CG2        9.1340    0.1710   37.6770 C.3   193  ILE193      0.0020
     79  CD1       11.4320   -1.2330   36.3490 C.3   193  ILE193      0.0001
     80  N          6.2140    0.6500   35.9020 N.am  194  HIS194     -0.1976
     81  CA         5.2000    1.6910   36.1090 C.3   194  HIS194      0.1656
     82  C          3.7820    1.1600   36.4080 C.2   194  HIS194      0.2291
     83  O          3.1030    1.6830   37.2880 O.2   194  HIS194     -0.2864
     84  CB         5.1480    2.6150   34.8830 C.3   194  HIS194      0.0771
     85  CG         6.4200    3.3660   34.6460 C.ar  194  HIS194      0.0820
     86  ND1        7.1870    3.8730   35.6750 N.ar  194  HIS194     -0.2267
     87  CD2        7.0770    3.6690   33.5000 C.ar  194  HIS194      0.1154
     88  CE1        8.2540    4.4690   35.1710 C.ar  194  HIS194      0.1986
     89  NE2        8.2120    4.3590   33.8530 N.ar  194  HIS194     -0.2212
     90  N         13.4960    1.1290   46.7200 N.3   240  TYR240     -0.1241
     91  CA        12.7850    0.9980   45.4480 C.3   240  TYR240      0.1605
     92  C         12.5270   -0.4520   45.0420 C.2   240  TYR240      0.2264
     93  O         11.4110   -0.8280   44.6590 O.2   240  TYR240     -0.2867
     94  CB        13.5980    1.6940   44.3550 C.3   240  TYR240      0.0534
     95  CG        13.0010    1.7480   42.9580 C.ar  240  TYR240     -0.0201
     96  CD1       11.9250    2.5850   42.6640 C.ar  240  TYR240     -0.0009
     97  CD2       13.5670    1.0170   41.9130 C.ar  240  TYR240     -0.0009
     98  CE1       11.4150    2.6800   41.3490 C.ar  240  TYR240      0.0417
     99  CE2       13.0690    1.0980   40.6130 C.ar  240  TYR240      0.0417
    100  CZ        11.9990    1.9300   40.3330 C.ar  240  TYR240      0.1957
    101  OH        11.5180    2.0010   39.0380 O.3   240  TYR240     -0.2866
    102  N         18.8250    0.3990   38.4480 N.3   277  THR277     -0.1203
    103  CA        17.6430    1.0870   37.9420 C.3   277  THR277      0.1994
    104  C         16.6210    0.0270   37.5320 C.2   277  THR277      0.2618
    105  O         16.2890   -0.8310   38.3380 O.2   277  THR277     -0.2717
    106  CB        17.9840    2.0420   36.7770 C.3   277  THR277      0.1784
    107  OG1       18.6000    1.3070   35.7110 O.3   277  THR277     -0.2211
    108  CG2       18.9370    3.1230   37.2630 C.3   277  THR277      0.0376
    109  N         16.1340    0.0630   36.2970 N.am  278  GLY278     -0.1956
    110  CA        15.1890   -0.9440   35.8460 C.3   278  GLY278      0.1869
    111  C         15.7940   -2.0880   35.0480 C.2   278  GLY278      0.2309
    112  O         15.1670   -3.1340   34.8880 O.2   278  GLY278     -0.2863
@<TRIPOS>BOND
     1    24    23    2
     2    23    22    1
     3    21    22    1
     4    22    25    1
     5    25    26    1
     6    29    30    1
     7    27    26   ar
     8    26    28   ar
     9    36    35   ar
    10    60    61    1
    11    60    59    1
    12    61    62    1
    13    58    57    2
    14    30    31    1
    15    30    33    1
    16    55    56    1
    17    64    63    1
    18    62    63    2
    19    66    67    1
    20    40    41    2
    21    40    39    1
    22    35    37   ar
    23    35    34    1
    24    38    31   am
    25    38    39    1
    26    63    65    1
    27    31    32    2
    28    59    56    1
    29    70    71    1
    30    70    67    1
    31    57    56    1
    32    33    34    1
    33    46    47    2
    34    46    45    1
    35    39    42    1
    36    67    68    1
    37    68    69    2
    38    44    45    1
    39    42    43    1
    40    45    48    1
    41    48    49    1
    42    87    89   ar
    43    87    85   ar
    44    89    88   ar
    45    85    84    1
    46    85    86   ar
    47    49    50    1
    48    50    51    1
    49    84    81    1
    50   112   111    2
    51   111   110    1
    52    88    86   ar
    53    72    73    1
    54    53    52    1
    55   107   106    1
    56   110   109    1
    57    80    81    1
    58    80    74   am
    59    51    52    2
    60    20    18    1
    61    81    82    1
    62   109   104   am
    63    79    77    1
    64    77    76    1
    65    82    83    2
    66    52    54    1
    67    76    73    1
    68    76    78    1
    69    73    74    1
    70   106   108    1
    71   106   103    1
    72    74    75    2
    73     1     2    1
    74    18    17    1
    75    18    19    1
    76   104   103    1
    77   104   105    2
    78   103   102    1
    79    17    14    1
    80     2     3    1
    81    16    15    2
    82   101   100    1
    83    15    14    1
    84    14    13    1
    85     3     4    2
    86    13     7   am
    87    12    10    1
    88   100    99   ar
    89   100    98   ar
    90    99    97   ar
    91     7     6    1
    92     7     8    2
    93     6     9    1
    94     6     5    1
    95    98    96   ar
    96     9    10    1
    97    10    11    1
    98    97    95   ar
    99    96    95   ar
   100    95    94    1
   101    94    91    1
   102    93    92    2
   103    92    91    1
   104    91    90    1
