@<TRIPOS>MOLECULE
tmp/4rkuP04.pdb
 124 122 0 0 0
SMALL
GASTEIGER

@<TRIPOS>ATOM
      1  N         21.3730   11.9870  124.7800 N.3    16  TRP16      -0.1227
      2  CA        21.3350   13.3920  124.3650 C.3    16  TRP16       0.1737
      3  C         19.9670   13.7720  123.7330 C.2    16  TRP16       0.2595
      4  O         19.1020   12.9120  123.5270 O.2    16  TRP16      -0.2718
      5  CB        22.5470   13.6470  123.4380 C.3    16  TRP16       0.0564
      6  CG        22.3790   14.5050  122.2450 C.ar   16  TRP16       0.0003
      7  CD1       21.5130   14.3120  121.2200 C.ar   16  TRP16       0.0946
      8  CD2       23.1550   15.6540  121.9010 C.ar   16  TRP16       0.0152
      9  NE1       21.6610   15.2870  120.2790 N.ar   16  TRP16      -0.2442
     10  CE2       22.6680   16.1240  120.6700 C.ar   16  TRP16       0.0810
     11  CE3       24.2010   16.3420  122.5210 C.ar   16  TRP16       0.0012
     12  CZ2       23.1830   17.2440  120.0460 C.ar   16  TRP16       0.0191
     13  CZ3       24.7130   17.4550  121.8980 C.ar   16  TRP16       0.0001
     14  CH2       24.2040   17.8950  120.6710 C.ar   16  TRP16       0.0015
     15  N         19.7830   15.0750  123.4950 N.am   17  LEU17      -0.1980
     16  CA        18.5210   15.7030  123.0740 C.3    17  LEU17       0.1596
     17  C         17.6350   15.8370  124.3030 C.2    17  LEU17       0.2287
     18  O         16.6100   16.5160  124.2770 O.2    17  LEU17      -0.2864
     19  CB        17.8040   14.9330  121.9480 C.3    17  LEU17       0.0297
     20  CG        17.5710   15.7180  120.6500 C.3    17  LEU17       0.0022
     21  CD1       16.4580   15.1070  119.7730 C.3    17  LEU17       0.0001
     22  CD2       17.3090   17.1930  120.9530 C.3    17  LEU17       0.0001
     23  N         20.0040   15.9060  126.7390 N.3    19  TYR19      -0.1227
     24  CA        21.2480   16.5620  127.1180 C.3    19  TYR19       0.1736
     25  C         21.1250   18.0490  126.8420 C.2    19  TYR19       0.2596
     26  O         21.3710   18.8750  127.7190 O.2    19  TYR19      -0.2718
     27  CB        22.4270   15.9580  126.3490 C.3    19  TYR19       0.0548
     28  CG        23.7360   16.6910  126.5020 C.ar   19  TYR19      -0.0200
     29  CD1       24.5950   16.4010  127.5490 C.ar   19  TYR19      -0.0009
     30  CD2       24.1210   17.6600  125.5860 C.ar   19  TYR19      -0.0009
     31  CE1       25.7930   17.0630  127.6830 C.ar   19  TYR19       0.0417
     32  CE2       25.3180   18.3250  125.7120 C.ar   19  TYR19       0.0417
     33  CZ        26.1470   18.0270  126.7650 C.ar   19  TYR19       0.1957
     34  OH        27.3410   18.6960  126.8890 O.3    19  TYR19      -0.2866
     35  N         20.7400   18.3760  125.6110 N.am   20  GLY20      -0.1957
     36  CA        20.4620   19.7500  125.2380 C.3    20  GLY20       0.1869
     37  C         19.4170   20.3330  126.1660 C.2    20  GLY20       0.2309
     38  O         19.5620   21.4640  126.6320 O.2    20  GLY20      -0.2863
     39  N         20.7900   21.9290  129.0360 N.3    23  ILE23      -0.1231
     40  CA        21.5760   23.1580  128.8460 C.3    23  ILE23       0.1692
     41  C         20.7660   24.3570  128.3300 C.2    23  ILE23       0.2592
     42  O         21.1290   25.5160  128.5750 O.2    23  ILE23      -0.2718
     43  CB        22.7620   22.8940  127.9000 C.3    23  ILE23       0.0266
     44  CG1       23.7230   21.9030  128.5510 C.3    23  ILE23       0.0019
     45  CG2       23.5010   24.1860  127.5420 C.3    23  ILE23       0.0020
     46  CD1       23.9490   20.6570  127.7430 C.3    23  ILE23       0.0001
     47  N         19.6520   24.1020  127.6490 N.am   24  ASN24      -0.1974
     48  CA        18.7360   25.2070  127.3990 C.3    24  ASN24       0.1688
     49  C         17.9650   25.4810  128.6810 C.2    24  ASN24       0.2292
     50  O         17.1500   26.3970  128.7450 O.2    24  ASN24      -0.2864
     51  CB        17.7890   24.9470  126.2150 C.3    24  ASN24       0.1181
     52  CG        16.6930   23.9500  126.5190 C.2    24  ASN24       0.2629
     53  OD1       15.6890   24.2860  127.1430 O.2    24  ASN24      -0.2716
     54  ND2       16.8460   22.7380  126.0130 N.am   24  ASN24      -0.0877
     55  N         20.1400   29.0570  129.2280 N.3    27  PHE27      -0.1241
     56  CA        20.0830   30.2960  128.4580 C.3    27  PHE27       0.1605
     57  C         18.6610   30.7190  128.1260 C.2    27  PHE27       0.2264
     58  O         18.4480   31.7810  127.5440 O.2    27  PHE27      -0.2867
     59  CB        20.9230   30.2030  127.1730 C.3    27  PHE27       0.0534
     60  CG        20.5540   29.0590  126.2470 C.ar   27  PHE27      -0.0203
     61  CD1       19.3340   29.0270  125.5800 C.ar   27  PHE27      -0.0042
     62  CD2       21.4690   28.0500  125.9900 C.ar   27  PHE27      -0.0042
     63  CE1       19.0160   27.9880  124.7120 C.ar   27  PHE27      -0.0003
     64  CE2       21.1540   27.0090  125.1150 C.ar   27  PHE27      -0.0003
     65  CZ        19.9270   26.9840  124.4800 C.ar   27  PHE27      -0.0000
     66  N         28.1730   37.3950  116.6360 N.3    61  GLU61      -0.1231
     67  CA        27.3660   36.7620  117.6630 C.3    61  GLU61       0.1699
     68  C         27.5190   35.2740  117.3990 C.2    61  GLU61       0.2592
     69  O         27.5400   34.4780  118.3210 O.2    61  GLU61      -0.2718
     70  CB        25.9000   37.1620  117.5530 C.3    61  GLU61       0.0402
     71  CG        24.9410   36.2210  118.2700 C.3    61  GLU61       0.1161
     72  CD        23.6450   36.8940  118.6770 C.2    61  GLU61       0.3649
     73  OE1       22.9250   37.3770  117.7890 O.co2  61  GLU61      -0.2457
     74  OE2       23.3420   36.9430  119.8890 O.co2  61  GLU61      -0.2457
     75  N         27.6340   34.9070  116.1250 N.am   62  MET62      -0.1979
     76  CA        27.8330   33.5290  115.7260 C.3    62  MET62       0.1605
     77  C         29.3000   33.3190  115.4010 C.2    62  MET62       0.2287
     78  O         29.6770   32.3020  114.8660 O.2    62  MET62      -0.2864
     79  CB        26.9870   33.1920  114.5160 C.3    62  MET62       0.0413
     80  CG        25.5000   33.3690  114.7390 C.3    62  MET62       0.0598
     81  SD        24.6340   31.8390  115.1060 S.3    62  MET62      -0.1393
     82  CE        22.9370   32.3560  114.9200 C.3    62  MET62       0.0692
     83  N         30.7670   33.0670  119.5380 N.3    65  MET65      -0.1230
     84  CA        29.9080   31.9710  119.9450 C.3    65  MET65       0.1702
     85  C         30.3730   30.7120  119.2420 C.2    65  MET65       0.2592
     86  O         30.3400   29.6160  119.8000 O.2    65  MET65      -0.2718
     87  CB        28.4680   32.2560  119.5450 C.3    65  MET65       0.0401
     88  CG        27.6800   33.0080  120.5830 C.3    65  MET65       0.0596
     89  SD        27.8540   32.1300  122.1230 S.3    65  MET65      -0.1393
     90  CE        29.4540   32.7280  122.6540 C.3    65  MET65       0.0692
     91  N         30.8190   30.8880  118.0070 N.am   66  GLY66      -0.1957
     92  CA        31.3170   29.7730  117.2430 C.3    66  GLY66       0.1869
     93  C         32.5230   29.2940  118.0110 C.2    66  GLY66       0.2309
     94  O         32.4820   28.2750  118.6880 O.2    66  GLY66      -0.2863
     95  N         31.0060   27.9510  121.6220 N.3    69  GLU69      -0.1231
     96  CA        30.1440   26.7830  121.5560 C.3    69  GLU69       0.1699
     97  C         30.6970   25.6410  120.7290 C.2    69  GLU69       0.2592
     98  O         30.2170   24.5300  120.8250 O.2    69  GLU69      -0.2718
     99  CB        28.7490   27.1410  121.0770 C.3    69  GLU69       0.0402
    100  CG        27.7420   26.0720  121.4310 C.3    69  GLU69       0.1161
    101  CD        26.3260   26.5460  121.3210 C.2    69  GLU69       0.3649
    102  OE1       26.1100   27.6880  120.9010 O.co2  69  GLU69      -0.2457
    103  OE2       25.4250   25.7770  121.6690 O.co2  69  GLU69      -0.2457
    104  N         31.7120   25.9120  119.9260 N.am   70  HIS70      -0.1976
    105  CA        32.3000   24.8520  119.1360 C.3    70  HIS70       0.1656
    106  C         32.9040   23.9170  120.1410 C.2    70  HIS70       0.2291
    107  O         32.2350   22.9920  120.5790 O.2    70  HIS70      -0.2864
    108  CB        33.3580   25.3650  118.1620 C.3    70  HIS70       0.0771
    109  CG        32.8570   25.5050  116.7570 C.ar   70  HIS70       0.0820
    110  ND1       33.5190   26.2330  115.7950 N.ar   70  HIS70      -0.2267
    111  CD2       31.7400   25.0270  116.1640 C.ar   70  HIS70       0.1154
    112  CE1       32.8370   26.1870  114.6660 C.ar   70  HIS70       0.1986
    113  NE2       31.7530   25.4650  114.8660 N.ar   70  HIS70      -0.2212
    114  N         31.6580   21.1130  122.3040 N.3    73  PHE73      -0.1241
    115  CA        31.2460   19.8360  121.7600 C.3    73  PHE73       0.1605
    116  C         32.4370   18.9370  121.8030 C.2    73  PHE73       0.2264
    117  O         32.3470   17.7790  122.1910 O.2    73  PHE73      -0.2867
    118  CB        30.8300   20.0020  120.3220 C.3    73  PHE73       0.0534
    119  CG        30.1260   18.8210  119.7650 C.ar   73  PHE73      -0.0203
    120  CD1       28.8420   18.5470  120.1320 C.ar   73  PHE73      -0.0042
    121  CD2       30.7520   17.9970  118.8680 C.ar   73  PHE73      -0.0042
    122  CE1       28.1860   17.4630  119.6120 C.ar   73  PHE73      -0.0003
    123  CE2       30.1070   16.9070  118.3460 C.ar   73  PHE73      -0.0003
    124  CZ        28.8180   16.6390  118.7200 C.ar   73  PHE73      -0.0000
@<TRIPOS>BOND
     1    79    80    1
     2    79    76    1
     3   112   113   ar
     4   112   110   ar
     5    80    81    1
     6   113   111   ar
     7    78    77    2
     8    82    81    1
     9    77    76    1
    10    76    75    1
    11   110   109   ar
    12    75    68   am
    13   111   109   ar
    14    66    67    1
    15   109   108    1
    16    92    91    1
    17    92    93    1
    18    68    67    1
    19    68    69    2
    20    70    67    1
    21    70    71    1
    22    73    72   ar
    23    91    85   am
    24    93    94    2
    25   108   105    1
    26    71    72    1
    27   123   124   ar
    28   123   121   ar
    29    72    74   ar
    30   124   122   ar
    31   121   119   ar
    32   105   104    1
    33   105   106    1
    34    85    86    2
    35    85    84    1
    36    83    84    1
    37    87    84    1
    38    87    88    1
    39   122   120   ar
    40   119   120   ar
    41   119   118    1
    42    21    20    1
    43   104    97   am
    44    12    10   ar
    45    12    14   ar
    46   106   107    2
    47     9    10   ar
    48     9     7   ar
    49   118   115    1
    50    88    89    1
    51    20    22    1
    52    20    19    1
    53    10     8   ar
    54    14    13   ar
    55    97    98    2
    56    97    96    1
    57   102   101   ar
    58    99   100    1
    59    99    96    1
    60     7     6   ar
    61   101   100    1
    62   101   103   ar
    63    96    95    1
    64   115   116    1
    65   115   114    1
    66   116   117    2
    67    13    11   ar
    68     8     6   ar
    69     8    11   ar
    70    19    16    1
    71    89    90    1
    72     6     5    1
    73    16    15    1
    74    16    17    1
    75     5     2    1
    76    15     3   am
    77     4     3    2
    78     3     2    1
    79    18    17    2
    80     2     1    1
    81    65    63   ar
    82    65    64   ar
    83    63    61   ar
    84    64    62   ar
    85    36    35    1
    86    36    37    1
    87    61    60   ar
    88    30    32   ar
    89    30    28   ar
    90    35    25   am
    91    32    33   ar
    92    62    60   ar
    93    54    52   am
    94    37    38    2
    95    51    52    1
    96    51    48    1
    97    60    59    1
    98    27    28    1
    99    27    24    1
   100    28    29   ar
   101    52    53    2
   102    23    24    1
   103    33    34    1
   104    33    31   ar
   105    25    24    1
   106    25    26    2
   107    59    56    1
   108    48    47    1
   109    48    49    1
   110    45    43    1
   111    58    57    2
   112    29    31   ar
   113    47    41   am
   114    46    44    1
   115    43    44    1
   116    43    40    1
   117    57    56    1
   118    41    42    2
   119    41    40    1
   120    56    55    1
   121    49    50    2
   122    40    39    1
