@<TRIPOS>MOLECULE
tmp/4rkuO09.pdb
 89 87 0 0 0
SMALL
GASTEIGER

@<TRIPOS>ATOM
      1  N         40.8180   37.4240   98.7070 N.3   123  GLY123     -0.1210
      2  CA        40.0080   38.4390   99.3630 C.3   123  GLY123      0.1956
      3  C         39.8790   39.8440   98.7870 C.2   123  GLY123      0.2611
      4  O         38.8030   40.4420   98.8200 O.2   123  GLY123     -0.2717
      5  N         40.9850   40.3750   98.2770 N.am  124  ALA124     -0.1979
      6  CA        41.0650   41.7350   97.7570 C.3   124  ALA124      0.1597
      7  C         40.2290   41.9350   96.4940 C.2   124  ALA124      0.2287
      8  O         39.8860   43.0660   96.1510 O.2   124  ALA124     -0.2864
      9  CB        42.5210   42.1100   97.4920 C.3   124  ALA124      0.0319
     10  N         37.3290   39.5690   95.4110 N.3   126  PHE126     -0.1227
     11  CA        35.9130   39.2650   95.6310 C.3   126  PHE126      0.1736
     12  C         35.3010   40.2990   96.5800 C.2   126  PHE126      0.2595
     13  O         34.1270   40.2180   96.9440 O.2   126  PHE126     -0.2718
     14  CB        35.7260   37.8440   96.1710 C.3   126  PHE126      0.0547
     15  CG        35.1710   36.8770   95.1530 C.ar  126  PHE126     -0.0202
     16  CD1       35.7140   36.8080   93.8810 C.ar  126  PHE126     -0.0042
     17  CD2       34.1140   36.0350   95.4700 C.ar  126  PHE126     -0.0042
     18  CE1       35.2130   35.9250   92.9390 C.ar  126  PHE126     -0.0003
     19  CE2       33.6080   35.1460   94.5310 C.ar  126  PHE126     -0.0003
     20  CZ        34.1600   35.0930   93.2650 C.ar  126  PHE126     -0.0000
     21  N         36.1090   41.3070   96.8700 N.am  127  GLN127     -0.1979
     22  CA        35.6750   42.4220   97.6650 C.3   127  GLN127      0.1601
     23  C         35.6900   43.5680   96.6670 C.2   127  GLN127      0.2287
     24  O         34.9600   44.5380   96.8020 O.2   127  GLN127     -0.2864
     25  CB        36.5940   42.6530   98.8610 C.3   127  GLN127      0.0394
     26  CG        37.7540   43.5980   98.6400 C.3   127  GLN127      0.0908
     27  CD        38.3490   44.0580   99.9550 C.2   127  GLN127      0.2608
     28  OE1       38.6270   43.2470  100.8320 O.2   127  GLN127     -0.2717
     29  NE2       38.5330   45.3650  100.1030 N.am  127  GLN127     -0.0878
     30  N         31.8080   43.3780   92.1230 N.3   130  TYR130     -0.1227
     31  CA        30.4630   43.7750   92.5670 C.3   130  TYR130      0.1736
     32  C         30.4450   45.0540   93.4180 C.2   130  TYR130      0.2596
     33  O         29.3810   45.6100   93.6880 O.2   130  TYR130     -0.2718
     34  CB        29.7880   42.6500   93.3710 C.3   130  TYR130      0.0548
     35  CG        29.6280   41.3090   92.6730 C.ar  130  TYR130     -0.0200
     36  CD1       30.1760   41.0690   91.4170 C.ar  130  TYR130     -0.0009
     37  CD2       28.9160   40.2820   93.2780 C.ar  130  TYR130     -0.0009
     38  CE1       30.0310   39.8450   90.7940 C.ar  130  TYR130      0.0417
     39  CE2       28.7610   39.0550   92.6590 C.ar  130  TYR130      0.0417
     40  CZ        29.3200   38.8430   91.4170 C.ar  130  TYR130      0.1957
     41  OH        29.1720   37.6270   90.7900 O.3   130  TYR130     -0.2866
     42  N         31.6210   45.5050   93.8470 N.am  131  THR131     -0.1953
     43  CA        31.7430   46.5040   94.9030 C.3   131  THR131      0.1897
     44  C         32.8340   47.5270   94.6200 C.2   131  THR131      0.2313
     45  O         33.6950   47.7570   95.4690 O.2   131  THR131     -0.2863
     46  CB        32.0730   45.8440   96.2520 C.3   131  THR131      0.1794
     47  OG1       33.3640   45.2330   96.1690 O.3   131  THR131     -0.2208
     48  CG2       31.0540   44.7840   96.5970 C.3   131  THR131      0.0378
     49  N         41.2050   50.7310  103.2480 N.3   138  ASN138     -0.1225
     50  CA        40.1070   50.1220  103.9870 C.3   138  ASN138      0.1785
     51  C         40.4410   49.6910  105.4080 C.2   138  ASN138      0.2597
     52  O         39.5670   49.6600  106.2770 O.2   138  ASN138     -0.2718
     53  CB        39.6050   48.9190  103.1830 C.3   138  ASN138      0.1169
     54  CG        38.3410   48.3150  103.7470 C.2   138  ASN138      0.2627
     55  OD1       38.3840   47.5090  104.6750 O.2   138  ASN138     -0.2716
     56  ND2       37.2040   48.6800  103.1660 N.am  138  ASN138     -0.0877
     57  N         41.7100   49.3630  105.6240 N.am  139  LEU139     -0.1980
     58  CA        42.2100   48.8980  106.9140 C.3   139  LEU139      0.1596
     59  C         41.7750   49.7890  108.0710 C.2   139  LEU139      0.2287
     60  O         41.2460   49.3040  109.0720 O.2   139  LEU139     -0.2864
     61  CB        43.7350   48.8090  106.8800 C.3   139  LEU139      0.0297
     62  CG        44.3320   47.6910  106.0250 C.3   139  LEU139      0.0022
     63  CD1       45.8340   47.8530  106.0000 C.3   139  LEU139      0.0001
     64  CD2       43.9900   46.3250  106.5620 C.3   139  LEU139      0.0001
     65  N         37.6330   51.7800  106.7700 N.3   142  HIS142     -0.1226
     66  CA        36.3830   51.0730  107.0270 C.3   142  HIS142      0.1752
     67  C         36.2730   50.8260  108.5270 C.2   142  HIS142      0.2595
     68  O         35.2140   50.4670  109.0410 O.2   142  HIS142     -0.2718
     69  CB        36.3160   49.7520  106.2420 C.3   142  HIS142      0.0759
     70  CG        34.9230   49.3210  105.9010 C.ar  142  HIS142      0.0818
     71  ND1       34.5330   48.9920  104.6200 N.ar  142  HIS142     -0.2268
     72  CD2       33.8180   49.1840  106.6740 C.ar  142  HIS142      0.1154
     73  CE1       33.2520   48.6690  104.6190 C.ar  142  HIS142      0.1986
     74  NE2       32.7950   48.7770  105.8530 N.ar  142  HIS142     -0.2212
     75  N         37.3810   51.0460  109.2270 N.am  143  LEU143     -0.1980
     76  CA        37.4280   50.8650  110.6720 C.3   143  LEU143      0.1596
     77  C         36.7760   52.0480  111.3810 C.2   143  LEU143      0.2287
     78  O         36.6100   52.0420  112.6010 O.2   143  LEU143     -0.2864
     79  CB        38.8710   50.6840  111.1450 C.3   143  LEU143      0.0297
     80  CG        39.1080   50.3880  112.6180 C.3   143  LEU143      0.0022
     81  CD1       38.6650   48.9740  112.9710 C.3   143  LEU143      0.0001
     82  CD2       40.5810   50.5830  112.9740 C.3   143  LEU143      0.0001
     83  N         31.5020   50.1110  111.0400 N.3   146  PRO146     -0.2116
     84  CA        30.8800   49.0030  110.3190 C.3   146  PRO146      0.1372
     85  C         29.6550   49.4320  109.5170 C.2   146  PRO146      0.2244
     86  O         29.7830   49.6340  108.3080 O.2   146  PRO146     -0.2868
     87  CB        30.4930   48.0380  111.4400 C.3   146  PRO146      0.0268
     88  CG        31.5310   48.2730  112.4740 C.3   146  PRO146      0.0207
     89  CD        31.7750   49.7610  112.4440 C.3   146  PRO146      0.0892
@<TRIPOS>BOND
     1    41    40    1
     2    38    40   ar
     3    38    36   ar
     4    40    39   ar
     5    36    35   ar
     6    30    31    1
     7    31    34    1
     8    31    32    1
     9    39    37   ar
    10    35    37   ar
    11    35    34    1
    12    18    20   ar
    13    18    16   ar
    14    20    19   ar
    15    32    33    2
    16    32    42   am
    17    42    43    1
    18    16    15   ar
    19    19    17   ar
    20    44    43    1
    21    44    45    2
    22    43    46    1
    23    15    17   ar
    24    15    14    1
    25    10    11    1
    26    11    14    1
    27    11    12    1
    28     8     7    2
    29    47    46    1
    30    46    48    1
    31     7     6    1
    32    12    21   am
    33    12    13    2
    34    23    24    2
    35    23    22    1
    36    21    22    1
    37     9     6    1
    38    22    25    1
    39     6     5    1
    40     5     3   am
    41    26    25    1
    42    26    27    1
    43     1     2    1
    44     3     4    2
    45     3     2    1
    46    27    29   am
    47    27    28    2
    48    56    54   am
    49    53    54    1
    50    53    50    1
    51    49    50    1
    52    54    55    2
    53    50    51    1
    54    73    71   ar
    55    73    74   ar
    56    71    70   ar
    57    51    57   am
    58    51    52    2
    59    57    58    1
    60    74    72   ar
    61    70    69    1
    62    70    72   ar
    63    63    62    1
    64    62    64    1
    65    62    61    1
    66    69    66    1
    67    65    66    1
    68    61    58    1
    69    58    59    1
    70    66    67    1
    71    59    60    2
    72    86    85    2
    73    67    68    2
    74    67    75   am
    75    75    76    1
    76    85    84    1
    77    84    83    1
    78    84    87    1
    79    76    79    1
    80    76    77    1
    81    83    89    1
    82    79    80    1
    83    77    78    2
    84    87    88    1
    85    89    88    1
    86    80    81    1
    87    80    82    1
