@<TRIPOS>MOLECULE
tmp/4rkuP17.pdb
 71 67 0 0 0
SMALL
GASTEIGER

@<TRIPOS>ATOM
      1  N         19.2430   32.6730  131.3980 N.3    30  LEU30      -0.1231
      2  CA        20.0040   33.9100  131.2190 C.3    30  LEU30       0.1693
      3  C         19.2960   34.8040  130.2130 C.2    30  LEU30       0.2592
      4  O         19.3740   36.0310  130.2870 O.2    30  LEU30      -0.2718
      5  CB        21.4460   33.6260  130.7650 C.3    30  LEU30       0.0284
      6  CG        21.7800   33.1640  129.3390 C.3    30  LEU30       0.0019
      7  CD1       21.9250   34.3150  128.3450 C.3    30  LEU30       0.0001
      8  CD2       23.0420   32.3160  129.3460 C.3    30  LEU30       0.0001
      9  N         18.6090   34.1720  129.2680 N.am   31  GLY31      -0.1957
     10  CA        17.8760   34.8930  128.2480 C.3    31  GLY31       0.1869
     11  C         16.6880   35.6330  128.8250 C.2    31  GLY31       0.2309
     12  O         16.4210   36.7660  128.4420 O.2    31  GLY31      -0.2863
     13  N         15.7460   36.6600  132.2760 N.3    33  VAL33      -0.1231
     14  CA        16.0590   37.7700  133.1750 C.3    33  VAL33       0.1692
     15  C         16.9310   38.8090  132.4760 C.2    33  VAL33       0.2593
     16  O         16.8250   40.0080  132.7410 O.2    33  VAL33      -0.2718
     17  CB        16.7540   37.2670  134.4680 C.3    33  VAL33       0.0266
     18  CG1       18.0450   38.0360  134.7570 C.3    33  VAL33       0.0020
     19  CG2       15.7980   37.3540  135.6460 C.3    33  VAL33       0.0020
     20  N         17.7750   38.3420  131.5630 N.am   34  GLY34      -0.1942
     21  CA        18.5960   39.2340  130.7700 C.3    34  GLY34       0.2014
     22  C         17.7820   40.0340  129.7730 C.2    34  GLY34       0.2638
     23  O         18.2600   41.0290  129.2290 O.2    34  GLY34      -0.2714
     24  N         16.5510   39.5990  129.5260 N.am   35  ALA35      -0.1977
     25  CA        15.6660   40.3100  128.6120 C.3    35  ALA35       0.1597
     26  C         14.7020   41.2120  129.3780 C.2    35  ALA35       0.2287
     27  O         14.2420   42.2160  128.8490 O.2    35  ALA35      -0.2864
     28  CB        14.9010   39.3320  127.7340 C.3    35  ALA35       0.0319
     29  N         15.7120   42.6400  132.1040 N.3    37  ALA37      -0.1231
     30  CA        16.6310   43.6370  132.6450 C.3    37  ALA37       0.1679
     31  C         16.5410   44.9920  131.9150 C.2    37  ALA37       0.2434
     32  O         16.5210   46.0320  132.5710 O.2    37  ALA37      -0.2733
     33  CB        18.0700   43.1020  132.6260 C.3    37  ALA37       0.0304
     34  N         16.4810   44.9970  130.5650 N.am   38  PRO38      -0.2729
     35  CA        16.2370   46.3000  129.9290 C.3    38  PRO38       0.1401
     36  C         14.7850   46.7690  130.0200 C.2    38  PRO38       0.2269
     37  O         14.4990   47.9310  129.7290 O.2    38  PRO38      -0.2865
     38  CB        16.6260   46.0600  128.4660 C.3    38  PRO38       0.0296
     39  CG        16.5220   44.5940  128.2710 C.3    38  PRO38       0.0237
     40  CD        16.8950   43.9820  129.5810 C.3    38  PRO38       0.0939
     41  N         14.4600   48.0670  134.1860 N.3    41  LEU41      -0.1231
     42  CA        15.4580   49.0070  134.6720 C.3    41  LEU41       0.1693
     43  C         15.0440   50.3890  134.1870 C.2    41  LEU41       0.2592
     44  O         15.4890   51.4110  134.7090 O.2    41  LEU41      -0.2718
     45  CB        16.8580   48.6450  134.1820 C.3    41  LEU41       0.0284
     46  CG        18.0280   49.4800  134.6810 C.3    41  LEU41       0.0019
     47  CD1       18.3140   49.1970  136.1500 C.3    41  LEU41       0.0001
     48  CD2       19.2740   49.2130  133.8410 C.3    41  LEU41       0.0001
     49  N         14.1770   50.3950  133.1780 N.am   42  GLY42      -0.1957
     50  CA        13.5880   51.6140  132.6600 C.3    42  GLY42       0.1869
     51  C         12.2030   51.8510  133.2300 C.2    42  GLY42       0.2309
     52  O         11.5950   52.8930  132.9840 O.2    42  GLY42      -0.2863
     53  N         11.7390   52.2950  136.2660 N.3    44  VAL44      -0.1245
     54  CA        12.0830   53.4640  137.0550 C.3    44  VAL44       0.1561
     55  C         12.7350   54.4790  136.1230 C.2    44  VAL44       0.2260
     56  O         13.8390   54.2570  135.6210 O.2    44  VAL44      -0.2867
     57  CB        13.0250   53.1170  138.2220 C.3    44  VAL44       0.0252
     58  CG1       13.6700   54.3820  138.7860 C.3    44  VAL44       0.0019
     59  CG2       12.2720   52.3340  139.3050 C.3    44  VAL44       0.0019
     60  N         19.3240   49.8750  116.2020 N.3    50  TYR50      -0.1241
     61  CA        20.3990   50.1240  117.1580 C.3    50  TYR50       0.1605
     62  C         21.6280   50.6510  116.4330 C.2    50  TYR50       0.2264
     63  O         21.7030   51.8230  116.0640 O.2    50  TYR50      -0.2867
     64  CB        20.7920   48.8520  117.9200 C.3    50  TYR50       0.0534
     65  CG        19.6500   47.9650  118.3570 C.ar   50  TYR50      -0.0201
     66  CD1       18.4950   48.4990  118.9070 C.ar   50  TYR50      -0.0009
     67  CD2       19.7360   46.5850  118.2230 C.ar   50  TYR50      -0.0009
     68  CE1       17.4560   47.6850  119.3050 C.ar   50  TYR50       0.0417
     69  CE2       18.7030   45.7640  118.6170 C.ar   50  TYR50       0.0417
     70  CZ        17.5640   46.3190  119.1590 C.ar   50  TYR50       0.1957
     71  OH        16.5290   45.5070  119.5560 O.3    50  TYR50      -0.2866
@<TRIPOS>BOND
     1    63    62    2
     2    60    61    1
     3    62    61    1
     4    61    64    1
     5    64    65    1
     6    67    65   ar
     7    67    69   ar
     8    65    66   ar
     9    69    70   ar
    10    66    68   ar
    11    70    68   ar
    12    70    71    1
    13    28    25    1
    14    10    11    1
    15    10     9    1
    16    39    38    1
    17    39    40    1
    18     7     6    1
    19    12    11    2
    20    38    35    1
    21    25    26    1
    22    25    24    1
    23    27    26    2
    24    23    22    2
    25     9     3   am
    26     6     8    1
    27     6     5    1
    28    24    22   am
    29    40    34    1
    30    37    36    2
    31    22    21    1
    32    35    36    1
    33    35    34    1
    34     3     4    2
    35     3     2    1
    36    34    31   am
    37     5     2    1
    38    21    20    1
    39     2     1    1
    40    20    15   am
    41    31    32    2
    42    31    30    1
    43    29    30    1
    44    13    14    1
    45    15    16    2
    46    15    14    1
    47    33    30    1
    48    50    49    1
    49    50    51    1
    50    52    51    2
    51    14    17    1
    52    49    43   am
    53    48    46    1
    54    45    42    1
    55    45    46    1
    56    41    42    1
    57    43    42    1
    58    43    44    2
    59    17    18    1
    60    17    19    1
    61    46    47    1
    62    56    55    2
    63    55    54    1
    64    53    54    1
    65    54    57    1
    66    57    58    1
    67    57    59    1
