@<TRIPOS>MOLECULE
tmp/4rkuO00.pdb
 130 127 0 0 0
SMALL
GASTEIGER

@<TRIPOS>ATOM
      1  N         53.0980   19.9060   95.2900 N.3    46  GLN46      -0.1245
      2  CA        53.7620   20.8190   94.3920 C.3    46  GLN46       0.1566
      3  C         52.7970   21.9030   93.9740 C.2    46  GLN46       0.2260
      4  O         53.1590   23.0630   93.8800 O.2    46  GLN46      -0.2867
      5  CB        54.2660   20.0960   93.1630 C.3    46  GLN46       0.0367
      6  CG        55.3400   19.0960   93.4760 C.3    46  GLN46       0.0905
      7  CD        56.4800   19.7240   94.1970 C.2    46  GLN46       0.2608
      8  OE1       57.1500   20.5840   93.6630 O.2    46  GLN46      -0.2717
      9  NE2       56.7090   19.2980   95.4120 N.am   46  GLN46      -0.0878
     10  N         53.7390   25.9630   94.4550 N.3    50  VAL50      -0.1245
     11  CA        53.9420   26.9270   93.3870 C.3    50  VAL50       0.1561
     12  C         52.9230   28.0330   93.4860 C.2    50  VAL50       0.2260
     13  O         53.2240   29.1920   93.2780 O.2    50  VAL50      -0.2867
     14  CB        53.8740   26.2810   92.0020 C.3    50  VAL50       0.0252
     15  CG1       53.9590   27.3400   90.9230 C.3    50  VAL50       0.0019
     16  CG2       55.0080   25.2960   91.8300 C.3    50  VAL50       0.0019
     17  N         53.9700   30.4410   96.2130 N.3    53  ARG53      -0.1231
     18  CA        55.0970   31.2340   95.8050 C.3    53  ARG53       0.1694
     19  C         54.6110   32.3390   94.9280 C.2    53  ARG53       0.2592
     20  O         55.0600   33.4510   95.0580 O.2    53  ARG53      -0.2718
     21  CB        56.1130   30.3710   95.1110 C.3    53  ARG53       0.0321
     22  CG        56.6150   29.3080   96.0530 C.3    53  ARG53       0.0489
     23  CD        57.6220   28.3820   95.4290 C.3    53  ARG53       0.2205
     24  NE        58.4030   27.7620   96.4770 N.pl3  53  ARG53      -0.0865
     25  CZ        59.3390   26.8590   96.2660 C.cat  53  ARG53       0.5346
     26  NH1       59.6010   26.4670   95.0330 N.pl3  53  ARG53       0.1354
     27  NH2       60.0030   26.3510   97.2890 N.pl3  53  ARG53       0.1354
     28  N         53.6640   32.0420   94.0510 N.am   54  TRP54      -0.1976
     29  CA        53.1370   33.0890   93.1950 C.3    54  TRP54       0.1640
     30  C         52.3210   34.0680   94.0090 C.2    54  TRP54       0.2290
     31  O         52.5070   35.2630   93.9120 O.2    54  TRP54      -0.2864
     32  CB        52.3020   32.5050   92.0780 C.3    54  TRP54       0.0576
     33  CG        53.0800   31.7810   91.0590 C.ar   54  TRP54       0.0006
     34  CD1       53.1350   30.4450   90.8880 C.ar   54  TRP54       0.0946
     35  CD2       53.9080   32.3500   90.0460 C.ar   54  TRP54       0.0152
     36  NE1       53.9440   30.1350   89.8310 N.ar   54  TRP54      -0.2442
     37  CE2       54.4350   31.2930   89.2990 C.ar   54  TRP54       0.0810
     38  CE3       54.2620   33.6480   89.7060 C.ar   54  TRP54       0.0012
     39  CZ2       55.2930   31.4930   88.2350 C.ar   54  TRP54       0.0191
     40  CZ3       55.1160   33.8400   88.6470 C.ar   54  TRP54       0.0001
     41  CH2       55.6200   32.7710   87.9260 C.ar   54  TRP54       0.0015
     42  N         54.2170   36.9200   95.6830 N.3    57  LEU57      -0.1245
     43  CA        54.4790   38.0100   94.7640 C.3    57  LEU57       0.1561
     44  C         53.2100   38.8170   94.5490 C.2    57  LEU57       0.2260
     45  O         53.2370   40.0370   94.6750 O.2    57  LEU57      -0.2867
     46  CB        55.0560   37.4920   93.4590 C.3    57  LEU57       0.0270
     47  CG        56.5440   37.1970   93.5470 C.3    57  LEU57       0.0019
     48  CD1       56.8290   36.3930   94.7840 C.3    57  LEU57       0.0001
     49  CD2       57.0240   36.4470   92.3270 C.3    57  LEU57       0.0001
     50  N         58.5810   32.0250   77.7110 N.3    85  PHE85      -0.1227
     51  CA        59.5750   32.0380   78.7510 C.3    85  PHE85       0.1736
     52  C         59.1810   31.2120   79.9510 C.2    85  PHE85       0.2595
     53  O         59.8840   30.2990   80.3100 O.2    85  PHE85      -0.2718
     54  CB        59.9050   33.4700   79.1190 C.3    85  PHE85       0.0547
     55  CG        60.8920   34.1110   78.1880 C.ar   85  PHE85      -0.0202
     56  CD1       62.0470   33.4470   77.8370 C.ar   85  PHE85      -0.0042
     57  CD2       60.6810   35.3680   77.6780 C.ar   85  PHE85      -0.0042
     58  CE1       62.9710   34.0170   76.9880 C.ar   85  PHE85      -0.0003
     59  CE2       61.6080   35.9460   76.8390 C.ar   85  PHE85      -0.0003
     60  CZ        62.7500   35.2720   76.4900 C.ar   85  PHE85      -0.0000
     61  N         58.0590   31.5210   80.5690 N.am   86  ILE86      -0.1980
     62  CA        57.6280   30.7480   81.7100 C.3    86  ILE86       0.1595
     63  C         57.3140   29.3350   81.2810 C.2    86  ILE86       0.2287
     64  O         57.1810   28.4390   82.0980 O.2    86  ILE86      -0.2864
     65  CB        56.3810   31.3410   82.3260 C.3    86  ILE86       0.0276
     66  CG1       56.6740   32.7520   82.7820 C.3    86  ILE86       0.0022
     67  CG2       55.9400   30.4910   83.4940 C.3    86  ILE86       0.0022
     68  CD1       55.6020   33.7340   82.4190 C.3    86  ILE86       0.0001
     69  N         59.1710   27.3090   79.1020 N.3    88  TRP88      -0.1227
     70  CA        60.4280   26.6250   79.3100 C.3    88  TRP88       0.1737
     71  C         60.7120   26.5280   80.7730 C.2    88  TRP88       0.2595
     72  O         61.1830   25.5230   81.2470 O.2    88  TRP88      -0.2718
     73  CB        61.5430   27.3860   78.6310 C.3    88  TRP88       0.0564
     74  CG        62.8810   26.8990   78.9760 C.ar   88  TRP88       0.0003
     75  CD1       63.4730   26.9540   80.1870 C.ar   88  TRP88       0.0946
     76  CD2       63.8020   26.2760   78.1040 C.ar   88  TRP88       0.0152
     77  NE1       64.7150   26.4060   80.1280 N.ar   88  TRP88      -0.2442
     78  CE2       64.9410   25.9810   78.8520 C.ar   88  TRP88       0.0810
     79  CE3       63.7770   25.9430   76.7590 C.ar   88  TRP88       0.0012
     80  CZ2       66.0370   25.3650   78.3060 C.ar   88  TRP88       0.0191
     81  CZ3       64.8600   25.3440   76.2210 C.ar   88  TRP88       0.0001
     82  CH2       65.9820   25.0600   76.9860 C.ar   88  TRP88       0.0015
     83  N         60.4170   27.5870   81.4940 N.am   89  ALA89      -0.1980
     84  CA        60.6470   27.5760   82.9110 C.3    89  ALA89       0.1597
     85  C         59.8100   26.4560   83.4680 C.2    89  ALA89       0.2287
     86  O         60.3250   25.4180   83.8460 O.2    89  ALA89      -0.2864
     87  CB        60.2350   28.8900   83.5150 C.3    89  ALA89       0.0319
     88  N         60.6440   22.6440   82.4290 N.3    92  ARG92      -0.1231
     89  CA        61.5740   21.8330   83.1800 C.3    92  ARG92       0.1694
     90  C         61.0580   21.4980   84.5480 C.2    92  ARG92       0.2591
     91  O         61.2980   20.4230   85.0380 O.2    92  ARG92      -0.2718
     92  CB        62.9380   22.4980   83.2170 C.3    92  ARG92       0.0321
     93  CG        63.4250   22.8550   81.8280 C.3    92  ARG92       0.0489
     94  CD        64.9300   22.8240   81.6870 C.3    92  ARG92       0.2205
     95  NE        65.4960   21.8190   82.5600 N.pl3  92  ARG92      -0.0865
     96  CZ        66.7670   21.4600   82.5850 C.cat  92  ARG92       0.5346
     97  NH1       67.6350   21.9910   81.7490 N.pl3  92  ARG92       0.1354
     98  NH2       67.1550   20.5440   83.4440 N.pl3  92  ARG92       0.1354
     99  N         60.3300   22.4020   85.1630 N.am   93  ARG93      -0.1980
    100  CA        59.7880   22.1240   86.4730 C.3    93  ARG93       0.1597
    101  C         58.9140   20.8880   86.3780 C.2    93  ARG93       0.2287
    102  O         58.8950   20.0700   87.2740 O.2    93  ARG93      -0.2864
    103  CB        58.9970   23.3130   86.9780 C.3    93  ARG93       0.0334
    104  CG        58.8310   23.3340   88.4710 C.3    93  ARG93       0.0492
    105  CD        58.0990   24.5740   88.8710 C.3    93  ARG93       0.2205
    106  NE        56.8260   24.5980   88.2050 N.pl3  93  ARG93      -0.0865
    107  CZ        55.7290   24.0760   88.7090 C.cat  93  ARG93       0.5346
    108  NH1       55.7500   23.5050   89.8910 N.pl3  93  ARG93       0.1354
    109  NH2       54.6130   24.1390   88.0270 N.pl3  93  ARG93       0.1354
    110  N         59.1940   18.3430   84.1860 N.3    95  ALA95      -0.1231
    111  CA        60.0290   17.1670   83.9770 C.3    95  ALA95       0.1694
    112  C         60.6640   16.7000   85.2810 C.2    95  ALA95       0.2592
    113  O         60.9790   15.5220   85.4400 O.2    95  ALA95      -0.2718
    114  CB        61.1030   17.4610   82.9410 C.3    95  ALA95       0.0304
    115  N         60.8450   17.6310   86.2120 N.am   96  ASP96      -0.1960
    116  CA        61.4350   17.3150   87.5060 C.3    96  ASP96       0.1840
    117  C         60.4080   16.6950   88.4490 C.2    96  ASP96       0.2621
    118  O         60.7550   15.8790   89.3020 O.2    96  ASP96      -0.2715
    119  CB        62.0390   18.5700   88.1400 C.3    96  ASP96       0.1450
    120  CG        62.6930   18.2890   89.4790 C.2    96  ASP96       0.3671
    121  OD1       63.8860   17.9190   89.4940 O.co2  96  ASP96      -0.2456
    122  OD2       62.0140   18.4390   90.5160 O.co2  96  ASP96      -0.2456
    123  N         59.1450   17.0840   88.2950 N.am   97  ILE97      -0.1977
    124  CA        58.0770   16.5460   89.1310 C.3    97  ILE97       0.1596
    125  C         57.9080   15.0520   88.8760 C.2    97  ILE97       0.2287
    126  O         57.5960   14.2840   89.7870 O.2    97  ILE97      -0.2864
    127  CB        56.7260   17.2560   88.8790 C.3    97  ILE97       0.0276
    128  CG1       56.8960   18.7750   88.8720 C.3    97  ILE97       0.0022
    129  CG2       55.7010   16.8490   89.9270 C.3    97  ILE97       0.0022
    130  CD1       57.4910   19.3380   90.1440 C.3    97  ILE97       0.0001
@<TRIPOS>BOND
     1    81    79   ar
     2    81    82   ar
     3    60    59   ar
     4    60    58   ar
     5    79    76   ar
     6    59    57   ar
     7    82    80   ar
     8    58    56   ar
     9    57    55   ar
    10    50    51    1
    11    56    55   ar
    12    76    78   ar
    13    76    74   ar
    14    55    54    1
    15    80    78   ar
    16    73    74    1
    17    73    70    1
    18    51    54    1
    19    51    52    1
    20    78    77   ar
    21    74    75   ar
    22    69    70    1
    23    70    71    1
    24    52    53    2
    25    52    61   am
    26    77    75   ar
    27    61    62    1
    28    71    72    2
    29    71    83   am
    30    63    62    1
    31    63    64    2
    32    83    84    1
    33    94    93    1
    34    94    95    1
    35    62    65    1
    36    97    96    1
    37    93    92    1
    38    65    66    1
    39    65    67    1
    40    68    66    1
    41    88    89    1
    42    95    96    2
    43    96    98    1
    44    84    85    1
    45    84    87    1
    46   114   111    1
    47    89    92    1
    48    89    90    1
    49    85    86    2
    50   111   110    1
    51   111   112    1
    52    90    91    2
    53    90    99   am
    54    99   100    1
    55   112   113    2
    56   112   115   am
    57   115   116    1
    58   101   100    1
    59   101   102    2
    60   100   103    1
    61   103   104    1
    62   116   119    1
    63   116   117    1
    64    41    39   ar
    65    41    40   ar
    66   109   107    1
    67   119   120    1
    68   106   107    2
    69   106   105    1
    70    39    37   ar
    71   123   117   am
    72   123   124    1
    73   117   118    2
    74   104   105    1
    75    40    38   ar
    76   107   108    1
    77   128   127    1
    78   128   130    1
    79   125   124    1
    80   125   126    2
    81   127   124    1
    82   127   129    1
    83    37    36   ar
    84    37    35   ar
    85   120   121   ar
    86   120   122   ar
    87    38    35   ar
    88    36    34   ar
    89    35    33   ar
    90    34    33   ar
    91    15    14    1
    92    33    32    1
    93    16    14    1
    94    14    11    1
    95    32    29    1
    96    49    47    1
    97     5     6    1
    98     5     2    1
    99    29    30    1
   100    29    28    1
   101    13    12    2
   102    11    12    1
   103    11    10    1
   104    46    47    1
   105    46    43    1
   106     6     7    1
   107    47    48    1
   108     8     7    2
   109     4     3    2
   110    31    30    2
   111     3     2    1
   112    28    19   am
   113     7     9   am
   114     2     1    1
   115    44    45    2
   116    44    43    1
   117    43    42    1
   118    19    20    2
   119    19    18    1
   120    26    25    1
   121    21    18    1
   122    21    22    1
   123    23    22    1
   124    23    24    1
   125    18    17    1
   126    25    24    2
   127    25    27    1
