@<TRIPOS>MOLECULE
tmp/4rkuA35.pdb
 109 104 0 0 0
SMALL
GASTEIGER

@<TRIPOS>ATOM
      1  N         27.8780   -8.3320   75.9990 N.3    14  THR14      -0.1218
      2  CA        27.2170   -7.0420   76.1620 C.3    14  THR14       0.1862
      3  C         25.9030   -7.1830   76.9250 C.2    14  THR14       0.2287
      4  O         25.3350   -6.1920   77.3860 O.2    14  THR14      -0.2866
      5  CB        26.9360   -6.3790   74.8040 C.3    14  THR14       0.1770
      6  OG1       25.9550   -7.1400   74.0900 O.3    14  THR14      -0.2211
      7  CG2       28.2100   -6.2870   73.9790 C.3    14  THR14       0.0375
      8  N         25.6070   -5.5960   80.3700 N.3    17  ILE17      -0.1231
      9  CA        25.2920   -4.1750   80.4530 C.3    17  ILE17       0.1692
     10  C         23.7850   -3.9360   80.4810 C.2    17  ILE17       0.2592
     11  O         23.2900   -3.1270   81.2670 O.2    17  ILE17      -0.2718
     12  CB        25.9130   -3.4020   79.2740 C.3    17  ILE17       0.0266
     13  CG1       27.4360   -3.5420   79.3010 C.3    17  ILE17       0.0019
     14  CG2       25.5150   -1.9350   79.3200 C.3    17  ILE17       0.0020
     15  CD1       28.1280   -2.9030   78.1230 C.3    17  ILE17       0.0001
     16  N         23.0570   -4.6510   79.6300 N.am   18  TRP18      -0.1976
     17  CA        21.6070   -4.5100   79.5760 C.3    18  TRP18       0.1640
     18  C         20.9480   -5.0430   80.8440 C.2    18  TRP18       0.2290
     19  O         19.9790   -4.4650   81.3350 O.2    18  TRP18      -0.2864
     20  CB        21.0360   -5.2240   78.3480 C.3    18  TRP18       0.0576
     21  CG        21.5690   -4.7140   77.0420 C.ar   18  TRP18       0.0006
     22  CD1       22.1860   -5.4450   76.0680 C.ar   18  TRP18       0.0946
     23  CD2       21.5390   -3.3590   76.5680 C.ar   18  TRP18       0.0152
     24  NE1       22.5370   -4.6310   75.0170 N.ar   18  TRP18      -0.2442
     25  CE2       22.1530   -3.3470   75.2990 C.ar   18  TRP18       0.0810
     26  CE3       21.0520   -2.1560   77.0920 C.ar   18  TRP18       0.0012
     27  CZ2       22.2920   -2.1790   74.5470 C.ar   18  TRP18       0.0191
     28  CZ3       21.1920   -1.0000   76.3440 C.ar   18  TRP18       0.0001
     29  CH2       21.8070   -1.0200   75.0860 C.ar   18  TRP18       0.0015
     30  N         25.4250  -10.5070   63.2270 N.3   667  ILE667     -0.1245
     31  CA        26.5590  -10.0050   63.9950 C.3   667  ILE667      0.1561
     32  C         27.8090  -10.8500   63.7420 C.2   667  ILE667      0.2260
     33  O         28.9210  -10.3210   63.6750 O.2   667  ILE667     -0.2867
     34  CB        26.2310   -9.9790   65.5060 C.3   667  ILE667      0.0252
     35  CG1       25.1820   -8.9030   65.7950 C.3   667  ILE667      0.0019
     36  CG2       27.4750   -9.7210   66.3360 C.3   667  ILE667      0.0019
     37  CD1       24.8080   -8.7780   67.2540 C.3   667  ILE667      0.0001
     38  N         29.6270   -9.6080   60.9500 N.3   670  ILE670     -0.1231
     39  CA        30.1740   -8.2920   61.2560 C.3   670  ILE670      0.1692
     40  C         31.3770   -8.4060   62.1940 C.2   670  ILE670      0.2591
     41  O         32.3300   -7.6290   62.0930 O.2   670  ILE670     -0.2718
     42  CB        29.0990   -7.3790   61.8770 C.3   670  ILE670      0.0266
     43  CG1       27.8500   -7.3710   60.9910 C.3   670  ILE670      0.0019
     44  CG2       29.6280   -5.9650   62.0620 C.3   670  ILE670      0.0020
     45  CD1       26.6860   -6.5980   61.5690 C.3   670  ILE670      0.0001
     46  N         31.3380   -9.3850   63.0940 N.am  671  VAL671     -0.1980
     47  CA        32.4650   -9.6510   63.9840 C.3   671  VAL671      0.1595
     48  C         33.6620  -10.1500   63.1800 C.2   671  VAL671      0.2287
     49  O         34.8120   -9.8430   63.5010 O.2   671  VAL671     -0.2864
     50  CB        32.0990  -10.6790   65.0790 C.3   671  VAL671      0.0276
     51  CG1       33.3310  -11.1080   65.8660 C.3   671  VAL671      0.0022
     52  CG2       31.0560  -10.0980   66.0130 C.3   671  VAL671      0.0022
     53  N         35.5220   -7.3680   61.7070 N.3   674  HIS674     -0.1241
     54  CA        36.2880   -6.7190   62.7610 C.3   674  HIS674      0.1621
     55  C         37.5720   -7.4770   63.0690 C.2   674  HIS674      0.2264
     56  O         38.6400   -6.8780   63.2020 O.2   674  HIS674     -0.2867
     57  CB        35.4470   -6.5880   64.0300 C.3   674  HIS674      0.0745
     58  CG        34.3650   -5.5600   63.9300 C.ar  674  HIS674      0.0817
     59  ND1       33.4460   -5.5440   62.9030 N.ar  674  HIS674     -0.2268
     60  CD2       34.0570   -4.5120   64.7290 C.ar  674  HIS674      0.1154
     61  CE1       32.6180   -4.5290   63.0740 C.ar  674  HIS674      0.1986
     62  NE2       32.9650   -3.8900   64.1750 N.ar  674  HIS674     -0.2212
     63  N         39.9750   -5.1430   65.0740 N.3   679  VAL679     -0.1245
     64  CA        39.0390   -4.2810   65.7910 C.3   679  VAL679      0.1561
     65  C         37.8740   -5.0550   66.3970 C.2   679  VAL679      0.2260
     66  O         36.7320   -4.5970   66.3700 O.2   679  VAL679     -0.2867
     67  CB        38.4770   -3.1750   64.8760 C.3   679  VAL679      0.0252
     68  CG1       39.4780   -2.0510   64.7310 C.3   679  VAL679      0.0019
     69  CG2       38.1080   -3.7380   63.5170 C.3   679  VAL679      0.0019
     70  N         36.0940   -6.2740   69.7150 N.3   681  PRO681     -0.2116
     71  CA        36.0330   -5.9810   71.1500 C.3   681  PRO681      0.1372
     72  C         36.1080   -7.2470   71.9980 C.2   681  PRO681      0.2244
     73  O         35.5120   -8.2620   71.6340 O.2   681  PRO681     -0.2868
     74  CB        34.6730   -5.2960   71.3090 C.3   681  PRO681      0.0268
     75  CG        33.8550   -5.8260   70.1840 C.3   681  PRO681      0.0207
     76  CD        34.8140   -5.9990   69.0400 C.3   681  PRO681      0.0892
     77  N         34.7750   -7.6190   74.8590 N.3   683  THR683     -0.1218
     78  CA        33.3830   -7.8100   75.2380 C.3   683  THR683      0.1862
     79  C         32.5970   -8.1690   73.9870 C.2   683  THR683      0.2287
     80  O         32.2070   -7.2920   73.2150 O.2   683  THR683     -0.2866
     81  CB        32.7760   -6.5580   75.8930 C.3   683  THR683      0.1770
     82  OG1       33.6590   -6.0690   76.9100 O.3   683  THR683     -0.2211
     83  CG2       31.4200   -6.8800   76.5060 C.3   683  THR683      0.0375
     84  N         30.0330   -8.8440   71.2400 N.3   685  PRO685     -0.2102
     85  CA        28.6970   -8.3080   70.9720 C.3   685  PRO685      0.1504
     86  C         27.6450   -9.4050   70.8610 C.2   685  PRO685      0.2575
     87  O         27.8140  -10.3550   70.0960 O.2   685  PRO685     -0.2718
     88  CB        28.8730   -7.5810   69.6370 C.3   685  PRO685      0.0282
     89  CG        30.0390   -8.2390   68.9940 C.3   685  PRO685      0.0208
     90  CD        30.9560   -8.6300   70.1120 C.3   685  PRO685      0.0893
     91  N         26.5720   -9.2690   71.6330 N.am  686  ARG686     -0.1980
     92  CA        25.4490  -10.1960   71.5780 C.3   686  ARG686      0.1597
     93  C         24.1750   -9.4580   71.1960 C.2   686  ARG686      0.2287
     94  O         24.0350   -8.2700   71.4750 O.2   686  ARG686     -0.2864
     95  CB        25.2550  -10.8910   72.9260 C.3   686  ARG686      0.0334
     96  CG        26.3710  -11.8360   73.3260 C.3   686  ARG686      0.0492
     97  CD        26.1830  -13.2010   72.6880 C.3   686  ARG686      0.2205
     98  NE        27.0660  -14.2030   73.2770 N.pl3 686  ARG686     -0.0865
     99  CZ        28.2910  -14.4720   72.8380 C.cat 686  ARG686      0.5346
    100  NH1       28.7840  -13.8120   71.7980 N.pl3 686  ARG686      0.1354
    101  NH2       29.0250  -15.4000   73.4370 N.pl3 686  ARG686      0.1354
    102  N         20.1070   -8.5760   71.5130 N.3   688  LEU688     -0.1245
    103  CA        19.2490   -8.3810   72.6730 C.3   688  LEU688      0.1561
    104  C         18.5890   -9.7030   73.0420 C.2   688  LEU688      0.2260
    105  O         18.3660  -10.5490   72.1750 O.2   688  LEU688     -0.2867
    106  CB        18.1870   -7.3170   72.3930 C.3   688  LEU688      0.0270
    107  CG        18.6820   -5.9680   71.8680 C.3   688  LEU688      0.0019
    108  CD1       17.5110   -5.0220   71.6510 C.3   688  LEU688      0.0001
    109  CD2       19.7040   -5.3610   72.8170 C.3   688  LEU688      0.0001
@<TRIPOS>BOND
     1    38    39    1
     2    43    45    1
     3    43    42    1
     4    39    42    1
     5    39    40    1
     6    53    54    1
     7    42    44    1
     8    41    40    2
     9    40    46   am
    10    54    55    1
    11    54    57    1
    12    59    61   ar
    13    59    58   ar
    14    55    56    2
    15    61    62   ar
    16    46    47    1
    17    48    49    2
    18    48    47    1
    19    30    31    1
    20    69    67    1
    21    33    32    2
    22    32    31    1
    23    58    57    1
    24    58    60   ar
    25    47    50    1
    26    31    34    1
    27    62    60   ar
    28    68    67    1
    29    67    64    1
    30    63    64    1
    31    50    51    1
    32    50    52    1
    33    34    35    1
    34    34    36    1
    35    64    65    1
    36    35    37    1
    37    66    65    2
    38    89    88    1
    39    89    90    1
    40    76    70    1
    41    76    75    1
    42    88    85    1
    43    70    71    1
    44    87    86    2
    45    90    84    1
    46    75    74    1
    47    86    85    1
    48    86    91   am
    49    85    84    1
    50    71    74    1
    51    71    72    1
    52    93    94    2
    53    93    92    1
    54   102   103    1
    55    92    91    1
    56    92    95    1
    57    73    72    2
    58   108   107    1
    59   100    99    1
    60   107   106    1
    61   107   109    1
    62   105   104    2
    63   106   103    1
    64   103   104    1
    65    97    98    1
    66    97    96    1
    67    99    98    2
    68    99   101    1
    69    95    96    1
    70    80    79    2
    71     7     5    1
    72    79    78    1
    73     6     5    1
    74    27    29   ar
    75    27    25   ar
    76     5     2    1
    77    77    78    1
    78    24    25   ar
    79    24    22   ar
    80    29    28   ar
    81    78    81    1
    82    25    23   ar
    83    81    83    1
    84    81    82    1
    85     1     2    1
    86    22    21   ar
    87     2     3    1
    88    28    26   ar
    89    23    21   ar
    90    23    26   ar
    91     3     4    2
    92    21    20    1
    93    15    13    1
    94    20    17    1
    95    12    13    1
    96    12    14    1
    97    12     9    1
    98    17    16    1
    99    17    18    1
   100    16    10   am
   101     8     9    1
   102     9    10    1
   103    10    11    2
   104    18    19    2
