@<TRIPOS>MOLECULE
tmp/4rkuQ04.pdb
 183 176 0 0 0
SMALL
GASTEIGER

@<TRIPOS>ATOM
      1  N         65.2400    7.4120   54.7370 N.3    41  GLN41      -0.1245
      2  CA        65.4370    7.8360   53.3570 C.3    41  GLN41       0.1566
      3  C         64.5790    9.0480   53.0210 C.2    41  GLN41       0.2260
      4  O         65.0360    9.9770   52.3570 O.2    41  GLN41      -0.2867
      5  CB        65.1230    6.6910   52.3940 C.3    41  GLN41       0.0367
      6  CG        66.0920    5.5310   52.4940 C.3    41  GLN41       0.0905
      7  CD        67.5310    5.9620   52.3000 C.2    41  GLN41       0.2608
      8  OE1       67.8550    6.6840   51.3560 O.2    41  GLN41      -0.2717
      9  NE2       68.4040    5.5290   53.2010 N.am   41  GLN41      -0.0878
     10  N         65.8170   12.8910   51.6760 N.3    45  VAL45      -0.1245
     11  CA        65.3860   13.3960   50.3770 C.3    45  VAL45       0.1561
     12  C         64.4870   14.6270   50.5230 C.2    45  VAL45       0.2260
     13  O         64.5980   15.5740   49.7440 O.2    45  VAL45      -0.2867
     14  CB        64.6610   12.3010   49.5720 C.3    45  VAL45       0.0252
     15  CG1       64.2840   12.8070   48.1930 C.3    45  VAL45       0.0019
     16  CG2       65.5570   11.0880   49.4430 C.3    45  VAL45       0.0019
     17  N         66.3840   16.9170   51.4480 N.3    48  ARG48      -0.1231
     18  CA        67.4200   17.8650   51.1430 C.3    48  ARG48       0.1694
     19  C         66.8700   18.9980   50.3160 C.2    48  ARG48       0.2592
     20  O         67.3260   20.1220   50.4680 O.2    48  ARG48      -0.2718
     21  CB        68.5700   17.2240   50.4120 C.3    48  ARG48       0.0321
     22  CG        69.4010   16.2920   51.2670 C.3    48  ARG48       0.0489
     23  CD        70.6730   15.8560   50.5800 C.3    48  ARG48       0.2205
     24  NE        70.4460   15.0300   49.4060 N.pl3  48  ARG48      -0.0865
     25  CZ        70.3490   13.7030   49.4560 C.cat  48  ARG48       0.5346
     26  NH1       70.4210   13.0180   50.5900 N.pl3  48  ARG48       0.1354
     27  NH2       70.2190   13.0420   48.3310 N.pl3  48  ARG48       0.1354
     28  N         65.9380   18.6640   49.4500 N.am   49  TRP49      -0.1976
     29  CA        65.3710   19.6130   48.5210 C.3    49  TRP49       0.1640
     30  C         64.8200   20.8520   49.2020 C.2    49  TRP49       0.2290
     31  O         64.8490   21.8990   48.5780 O.2    49  TRP49      -0.2864
     32  CB        64.2470   18.9460   47.7100 C.3    49  TRP49       0.0576
     33  CG        64.7300   17.8920   46.6850 C.ar   49  TRP49       0.0006
     34  CD1       65.0060   16.5820   46.9230 C.ar   49  TRP49       0.0946
     35  CD2       65.0100   18.1390   45.2960 C.ar   49  TRP49       0.0152
     36  NE1       65.3950   16.0050   45.7510 N.ar   49  TRP49      -0.2442
     37  CE2       65.4080   16.9200   44.7380 C.ar   49  TRP49       0.0810
     38  CE3       64.9160   19.2460   44.4750 C.ar   49  TRP49       0.0012
     39  CZ2       65.7410   16.7880   43.3750 C.ar   49  TRP49       0.0191
     40  CZ3       65.2920   19.1470   43.1620 C.ar   49  TRP49       0.0001
     41  CH2       65.6880   17.9350   42.5980 C.ar   49  TRP49       0.0015
     42  N         68.0380   22.7440   49.3290 N.3    52  LEU52      -0.1245
     43  CA        68.2620   23.1610   47.9700 C.3    52  LEU52       0.1561
     44  C         67.2660   24.2090   47.5380 C.2    52  LEU52       0.2260
     45  O         67.6440   25.2370   47.0300 O.2    52  LEU52      -0.2867
     46  CB        68.1780   21.9590   47.0510 C.3    52  LEU52       0.0270
     47  CG        68.5880   22.1840   45.6120 C.3    52  LEU52       0.0019
     48  CD1       69.8020   23.0740   45.5670 C.3    52  LEU52       0.0001
     49  CD2       68.8960   20.8540   44.9730 C.3    52  LEU52       0.0001
     50  N         63.1780   12.4370   35.4180 N.3    97  PHE97      -0.1241
     51  CA        63.1760   12.3360   36.8440 C.3    97  PHE97       0.1605
     52  C         62.5930   10.9580   37.1450 C.2    97  PHE97       0.2264
     53  O         62.9060   10.3270   38.1440 O.2    97  PHE97      -0.2867
     54  CB        62.2470   13.3840   37.4000 C.3    97  PHE97       0.0534
     55  CG        62.8450   14.2060   38.4810 C.ar   97  PHE97      -0.0203
     56  CD1       63.7640   15.1760   38.1830 C.ar   97  PHE97      -0.0042
     57  CD2       62.4720   14.0200   39.7820 C.ar   97  PHE97      -0.0042
     58  CE1       64.3090   15.9470   39.1670 C.ar   97  PHE97      -0.0003
     59  CE2       63.0080   14.7910   40.7750 C.ar   97  PHE97      -0.0003
     60  CZ        63.9300   15.7540   40.4640 C.ar   97  PHE97      -0.0000
     61  N         63.1400    8.3680   35.5010 N.3    99  TYR99      -0.1227
     62  CA        64.2380    7.4510   35.4220 C.3    99  TYR99       0.1736
     63  C         65.1450    7.4600   36.6170 C.2    99  TYR99       0.2595
     64  O         65.5610    6.4270   37.0720 O.2    99  TYR99      -0.2718
     65  CB        65.0500    7.7970   34.2020 C.3    99  TYR99       0.0548
     66  CG        66.3070    7.0180   34.0550 C.ar   99  TYR99      -0.0200
     67  CD1       67.3850    7.2710   34.8570 C.ar   99  TYR99      -0.0009
     68  CD2       66.4140    6.0450   33.1040 C.ar   99  TYR99      -0.0009
     69  CE1       68.5440    6.5630   34.7220 C.ar   99  TYR99       0.0417
     70  CE2       67.5680    5.3340   32.9520 C.ar   99  TYR99       0.0417
     71  CZ        68.6250    5.5960   33.7660 C.ar   99  TYR99       0.1957
     72  OH        69.7690    4.8760   33.6120 O.3    99  TYR99      -0.2866
     73  N         65.4580    8.6290   37.1220 N.am  100  VAL100     -0.1966
     74  CA        66.3560    8.7260   38.2390 C.3   100  VAL100      0.1727
     75  C         65.7410    8.2330   39.5030 C.2   100  VAL100      0.2616
     76  O         66.3860    7.6100   40.3030 O.2   100  VAL100     -0.2715
     77  CB        66.7860   10.1700   38.4410 C.3   100  VAL100      0.0290
     78  CG1       67.6950   10.3080   39.6400 C.3   100  VAL100      0.0023
     79  CG2       67.4760   10.6560   37.2010 C.3   100  VAL100      0.0023
     80  N         64.4760    8.5240   39.6890 N.am  101  GLU101     -0.1977
     81  CA        63.8030    8.1160   40.8960 C.3   101  GLU101      0.1602
     82  C         63.6410    6.6180   41.0980 C.2   101  GLU101      0.2287
     83  O         63.7660    6.1490   42.2030 O.2   101  GLU101     -0.2864
     84  CB        62.5120    8.8760   41.0440 C.3   101  GLU101      0.0415
     85  CG        62.7180   10.2440   41.6370 C.3   101  GLU101      0.1163
     86  CD        63.3200   10.1880   43.0120 C.2   101  GLU101      0.3649
     87  OE1       63.6070    9.0940   43.4970 O.co2 101  GLU101     -0.2457
     88  OE2       63.5200   11.2380   43.6260 O.co2 101  GLU101     -0.2457
     89  N         65.5910    4.2430   39.8470 N.3   103  ARG103     -0.1231
     90  CA        66.9230    3.7140   40.0370 C.3   103  ARG103      0.1694
     91  C         67.3120    3.9650   41.4570 C.2   103  ARG103      0.2591
     92  O         67.9160    3.1340   42.0920 O.2   103  ARG103     -0.2718
     93  CB        67.9120    4.3500   39.0760 C.3   103  ARG103      0.0321
     94  CG        69.3150    3.8000   39.2600 C.3   103  ARG103      0.0489
     95  CD        70.0820    3.9290   37.9580 C.3   103  ARG103      0.2205
     96  NE        71.5340    3.8660   38.1200 N.pl3 103  ARG103     -0.0865
     97  CZ        72.4070    4.5490   37.3640 C.cat 103  ARG103      0.5346
     98  NH1       72.0370    5.3800   36.4030 N.pl3 103  ARG103      0.1354
     99  NH2       73.7090    4.3520   37.5650 N.pl3 103  ARG103      0.1354
    100  N         66.9540    5.1200   41.9610 N.am  104  ARG104     -0.1980
    101  CA        67.2370    5.4270   43.3310 C.3   104  ARG104      0.1597
    102  C         66.4400    4.4890   44.1970 C.2   104  ARG104      0.2287
    103  O         66.8270    4.1560   45.2960 O.2   104  ARG104     -0.2864
    104  CB        66.8960    6.8550   43.6580 C.3   104  ARG104      0.0334
    105  CG        67.0270    7.1190   45.1280 C.3   104  ARG104      0.0492
    106  CD        66.5700    8.5040   45.4610 C.3   104  ARG104      0.2205
    107  NE        65.8760    8.4780   46.7200 N.pl3 104  ARG104     -0.0865
    108  CZ        64.5750    8.5950   46.8390 C.cat 104  ARG104      0.5346
    109  NH1       63.8190    8.7820   45.7800 N.pl3 104  ARG104      0.1354
    110  NH2       64.0480    8.5450   48.0270 N.pl3 104  ARG104      0.1354
    111  N         68.0610    0.9490   45.0950 N.3   107  ASP107     -0.1239
    112  CA        69.0780    0.9960   46.1300 C.3   107  ASP107      0.1674
    113  C         68.5210    0.9320   47.5310 C.2   107  ASP107      0.2266
    114  O         69.2270    0.6120   48.4480 O.2   107  ASP107     -0.2867
    115  CB        69.9570    2.2280   45.9820 C.3   107  ASP107      0.1410
    116  CG        70.9520    2.3590   47.0950 C.2   107  ASP107      0.3668
    117  OD1       70.6080    2.8970   48.1510 O.co2 107  ASP107     -0.2456
    118  OD2       72.0860    1.9100   46.9150 O.co2 107  ASP107     -0.2456
    119  N         72.3390   -0.4260   42.0060 N.3   113  SER113     -0.1202
    120  CA        72.4680    0.0260   40.6470 C.3   113  SER113      0.2020
    121  C         73.6500    0.9590   40.5470 C.2   113  SER113      0.2618
    122  O         73.6650    1.8750   39.7440 O.2   113  SER113     -0.2717
    123  CB        71.2020    0.7470   40.2210 C.3   113  SER113      0.2103
    124  OG        70.1590   -0.1700   40.0330 O.3   113  SER113     -0.2182
    125  N         74.6490    0.7150   41.3690 N.am  114  VAL114     -0.1979
    126  CA        75.8090    1.5610   41.4120 C.3   114  VAL114      0.1595
    127  C         76.5160    1.6500   40.0650 C.2   114  VAL114      0.2287
    128  O         77.1260    2.6480   39.7710 O.2   114  VAL114     -0.2864
    129  CB        76.7450    1.1130   42.5270 C.3   114  VAL114      0.0276
    130  CG1       76.0570    1.2560   43.8670 C.3   114  VAL114      0.0022
    131  CG2       77.1170   -0.3250   42.3180 C.3   114  VAL114      0.0022
    132  N         79.8580    3.2530   40.0040 N.3   125  LEU125     -0.1245
    133  CA        79.9350    3.8210   41.3140 C.3   125  LEU125      0.1561
    134  C         80.4180    2.7740   42.2760 C.2   125  LEU125      0.2260
    135  O         79.9650    1.6450   42.2610 O.2   125  LEU125     -0.2867
    136  CB        78.5360    4.2420   41.7420 C.3   125  LEU125      0.0270
    137  CG        78.3030    5.5930   42.4020 C.3   125  LEU125      0.0019
    138  CD1       78.1060    6.6090   41.3030 C.3   125  LEU125      0.0001
    139  CD2       77.0700    5.5470   43.2800 C.3   125  LEU125      0.0001
    140  N         72.7010    3.1140   51.8440 N.3   130  VAL130     -0.1231
    141  CA        71.5600    3.5000   51.0190 C.3   130  VAL130      0.1692
    142  C         71.3250    4.9780   50.8010 C.2   130  VAL130      0.2592
    143  O         71.1000    5.4370   49.6910 O.2   130  VAL130     -0.2718
    144  CB        70.2630    2.9100   51.5830 C.3   130  VAL130      0.0266
    145  CG1       69.0500    3.3050   50.7470 C.3   130  VAL130      0.0020
    146  CG2       70.3760    1.3830   51.5730 C.3   130  VAL130      0.0020
    147  N         71.3640    5.7300   51.8790 N.am  131  GLY131     -0.1957
    148  CA        71.1050    7.1420   51.7800 C.3   131  GLY131      0.1869
    149  C         72.1590    7.9980   51.1460 C.2   131  GLY131      0.2309
    150  O         71.8620    9.0450   50.6250 O.2   131  GLY131     -0.2863
    151  N         75.3430    7.9950   48.3800 N.3   133  PRO133     -0.2116
    152  CA        76.2710    7.3030   47.4830 C.3   133  PRO133      0.1372
    153  C         77.4860    8.1260   47.0500 C.2   133  PRO133      0.2244
    154  O         77.3190    9.1350   46.3900 O.2   133  PRO133     -0.2868
    155  CB        75.4130    7.0750   46.2610 C.3   133  PRO133      0.0268
    156  CG        74.6680    8.3380   46.1210 C.3   133  PRO133      0.0207
    157  CD        74.4450    8.8630   47.4970 C.3   133  PRO133      0.0892
    158  N         80.9370   10.4750   41.7190 N.3   136  ILE136     -0.1231
    159  CA        80.8190   11.8660   41.2840 C.3   136  ILE136      0.1692
    160  C         79.8200   12.5760   42.1380 C.2   136  ILE136      0.2592
    161  O         79.8330   13.7780   42.2190 O.2   136  ILE136     -0.2718
    162  CB        80.4780   12.0660   39.8000 C.3   136  ILE136      0.0266
    163  CG1       81.7030   11.6590   38.9560 C.3   136  ILE136      0.0019
    164  CG2       80.0380   13.4830   39.5220 C.3   136  ILE136      0.0020
    165  CD1       81.4210   11.5500   37.4830 C.3   136  ILE136      0.0001
    166  N         78.9650   11.8180   42.7890 N.am  137  PHE137     -0.1976
    167  CA        78.0470   12.4290   43.7070 C.3   137  PHE137      0.1639
    168  C         78.9090   13.1500   44.7130 C.2   137  PHE137      0.2290
    169  O         78.4860   14.1140   45.2980 O.2   137  PHE137     -0.2864
    170  CB        77.1130   11.4120   44.3130 C.3   137  PHE137      0.0560
    171  CG        76.1120   10.9180   43.3340 C.ar  137  PHE137     -0.0200
    172  CD1       75.0510   11.7070   42.9640 C.ar  137  PHE137     -0.0042
    173  CD2       76.2680    9.7100   42.7360 C.ar  137  PHE137     -0.0042
    174  CE1       74.1510   11.2780   42.0340 C.ar  137  PHE137     -0.0003
    175  CE2       75.3640    9.2630   41.8100 C.ar  137  PHE137     -0.0003
    176  CZ        74.3090   10.0520   41.4550 C.ar  137  PHE137     -0.0000
    177  N         82.4530   14.3010   44.0110 N.3   139  PRO139     -0.2116
    178  CA        83.7170   14.2930   43.2520 C.3   139  PRO139      0.1372
    179  C         84.9570   14.6880   44.0460 C.2   139  PRO139      0.2244
    180  O         86.0570   14.2210   43.7990 O.2   139  PRO139     -0.2868
    181  CB        83.4490   15.2490   42.0930 C.3   139  PRO139      0.0268
    182  CG        82.5360   16.2530   42.6530 C.3   139  PRO139      0.0207
    183  CD        81.5840   15.4300   43.4450 C.3   139  PRO139      0.0892
@<TRIPOS>BOND
     1    70    68   ar
     2    70    71   ar
     3    68    66   ar
     4    72    71    1
     5    71    69   ar
     6    66    65    1
     7    66    67   ar
     8    65    62    1
     9    69    67   ar
    10    50    51    1
    11    62    61    1
    12    62    63    1
    13    98    97    1
    14    63    64    2
    15    63    73   am
    16    51    52    1
    17    51    54    1
    18    73    74    1
    19    52    53    2
    20    79    77    1
    21    97    99    1
    22    97    96    2
    23    54    55    1
    24   165   163    1
    25    95    96    1
    26    95    94    1
    27    56    55   ar
    28    56    58   ar
    29    74    77    1
    30    74    75    1
    31    77    78    1
    32    55    57   ar
    33   163   162    1
    34    93    94    1
    35    93    90    1
    36    58    60   ar
    37    75    80   am
    38    75    76    2
    39   164   162    1
    40    80    81    1
    41   122   121    2
    42   128   127    2
    43    57    59   ar
    44   162   159    1
    45    89    90    1
    46   132   133    1
    47   124   123    1
    48    90    91    1
    49   127   126    1
    50   123   120    1
    51    60    59   ar
    52   121   120    1
    53   121   125   am
    54   120   119    1
    55    81    84    1
    56    81    82    1
    57    84    85    1
    58    82    83    2
    59   159   158    1
    60   159   160    1
    61   138   137    1
    62   133   136    1
    63   133   134    1
    64   125   126    1
    65   126   129    1
    66   176   175   ar
    67   176   174   ar
    68    91   100   am
    69    91    92    2
    70    85    86    1
    71   136   137    1
    72   175   173   ar
    73   100   101    1
    74   174   172   ar
    75   181   182    1
    76   181   178    1
    77   160   161    2
    78   160   166   am
    79   135   134    2
    80   131   129    1
    81   137   139    1
    82   129   130    1
    83    41    40   ar
    84    41    39   ar
    85   182   183    1
    86   173   171   ar
    87   166   167    1
    88   172   171   ar
    89    86    87   ar
    90    86    88   ar
    91    40    38   ar
    92   178   177    1
    93   178   179    1
    94   101   104    1
    95   101   102    1
    96   171   170    1
    97    39    37   ar
    98   183   177    1
    99   104   105    1
   100   167   170    1
   101   167   168    1
   102   180   179    2
   103   102   103    2
   104    38    35   ar
   105   168   169    2
   106    37    35   ar
   107    37    36   ar
   108    49    47    1
   109   111   112    1
   110   105   106    1
   111    35    33   ar
   112   106   107    1
   113    48    47    1
   114    47    46    1
   115    36    34   ar
   116   109   108    1
   117   115   112    1
   118   115   116    1
   119   156   155    1
   120   156   157    1
   121   112   113    1
   122   155   152    1
   123   154   153    2
   124    33    34   ar
   125    33    32    1
   126   107   108    2
   127   108   110    1
   128   118   116   ar
   129    45    44    2
   130   153   152    1
   131    46    43    1
   132   116   117   ar
   133   152   151    1
   134   157   151    1
   135   113   114    2
   136    44    43    1
   137    32    29    1
   138    43    42    1
   139    15    14    1
   140    27    25    1
   141    29    30    1
   142    29    28    1
   143    31    30    2
   144    24    25    2
   145    24    23    1
   146    16    14    1
   147    28    19   am
   148    25    26    1
   149    14    11    1
   150   143   142    2
   151    13    12    2
   152    19    20    2
   153    19    18    1
   154    11    12    1
   155    11    10    1
   156    21    18    1
   157    21    22    1
   158    23    22    1
   159   150   149    2
   160   145   144    1
   161   142   141    1
   162   142   147   am
   163   141   144    1
   164   141   140    1
   165    18    17    1
   166   149   148    1
   167     8     7    2
   168   146   144    1
   169   148   147    1
   170     7     6    1
   171     7     9   am
   172     4     3    2
   173     5     6    1
   174     5     2    1
   175     3     2    1
   176     2     1    1
