@<TRIPOS>MOLECULE
tmp/4rkuB02.pdb
 161 159 0 0 0
SMALL
GASTEIGER

@<TRIPOS>ATOM
      1  N         -5.4640  -18.8710   30.1900 N.3    56  PHE56      -0.1241
      2  CA        -6.2840  -18.7790   28.9880 C.3    56  PHE56       0.1605
      3  C         -7.7580  -18.5750   29.3250 C.2    56  PHE56       0.2264
      4  O         -8.4630  -17.8490   28.6270 O.2    56  PHE56      -0.2867
      5  CB        -6.1060  -20.0290   28.1260 C.3    56  PHE56       0.0534
      6  CG        -4.7700  -20.1070   27.4460 C.ar   56  PHE56      -0.0203
      7  CD1       -4.1620  -18.9640   26.9540 C.ar   56  PHE56      -0.0042
      8  CD2       -4.1190  -21.3210   27.3050 C.ar   56  PHE56      -0.0042
      9  CE1       -2.9330  -19.0290   26.3290 C.ar   56  PHE56      -0.0003
     10  CE2       -2.8890  -21.3930   26.6820 C.ar   56  PHE56      -0.0003
     11  CZ        -2.2950  -20.2440   26.1930 C.ar   56  PHE56      -0.0000
     12  N         -8.0760  -15.0030   30.5120 N.3    59  THR59      -0.1218
     13  CA        -7.9860  -14.0720   29.3960 C.3    59  THR59       0.1862
     14  C         -9.2270  -14.1750   28.5130 C.2    59  THR59       0.2287
     15  O         -9.6410  -13.1990   27.8850 O.2    59  THR59      -0.2866
     16  CB        -6.7220  -14.3260   28.5520 C.3    59  THR59       0.1770
     17  OG1       -5.6030  -14.5560   29.4170 O.3    59  THR59      -0.2211
     18  CG2       -6.4280  -13.1330   27.6550 C.3    59  THR59       0.0375
     19  N        -11.9590  -11.0130   27.4040 N.3    63  LEU63      -0.1245
     20  CA       -12.4690  -10.7620   26.0620 C.3    63  LEU63       0.1561
     21  C        -13.9870  -10.8910   26.0160 C.2    63  LEU63       0.2260
     22  O        -14.6430  -10.3050   25.1550 O.2    63  LEU63      -0.2867
     23  CB       -11.8390  -11.7250   25.0550 C.3    63  LEU63       0.0270
     24  CG       -10.4040  -11.4400   24.6170 C.3    63  LEU63       0.0019
     25  CD1       -9.8800  -12.5860   23.7760 C.3    63  LEU63       0.0001
     26  CD2      -10.3380  -10.1370   23.8390 C.3    63  LEU63       0.0001
     27  N         -4.6280   -2.0100   24.1310 N.3   121  TRP121     -0.1227
     28  CA        -3.8910   -3.1630   23.6260 C.3   121  TRP121      0.1737
     29  C         -4.6400   -3.8440   22.4850 C.2   121  TRP121      0.2595
     30  O         -4.0830   -4.0720   21.4110 O.2   121  TRP121     -0.2718
     31  CB        -3.6330   -4.1590   24.7610 C.3   121  TRP121      0.0564
     32  CG        -3.0330   -5.4710   24.3300 C.ar  121  TRP121      0.0003
     33  CD1       -2.1970   -5.6890   23.2720 C.ar  121  TRP121      0.0946
     34  CD2       -3.2320   -6.7470   24.9520 C.ar  121  TRP121      0.0152
     35  NE1       -1.8630   -7.0200   23.2000 N.ar  121  TRP121     -0.2442
     36  CE2       -2.4850   -7.6900   24.2180 C.ar  121  TRP121      0.0810
     37  CE3       -3.9690   -7.1830   26.0570 C.ar  121  TRP121      0.0012
     38  CZ2       -2.4540   -9.0420   24.5550 C.ar  121  TRP121      0.0191
     39  CZ3       -3.9370   -8.5250   26.3880 C.ar  121  TRP121      0.0001
     40  CH2       -3.1850   -9.4370   25.6400 C.ar  121  TRP121      0.0015
     41  N         -5.9060   -4.1650   22.7280 N.am  122  TRP122     -0.1976
     42  CA        -6.7260   -4.8640   21.7450 C.3   122  TRP122      0.1640
     43  C         -6.9940   -4.0080   20.5080 C.2   122  TRP122      0.2290
     44  O         -7.0810   -4.5240   19.3950 O.2   122  TRP122     -0.2864
     45  CB        -8.0480   -5.3040   22.3790 C.3   122  TRP122      0.0576
     46  CG        -7.8740   -6.2990   23.4870 C.ar  122  TRP122      0.0006
     47  CD1       -6.7590   -7.0370   23.7570 C.ar  122  TRP122      0.0946
     48  CD2       -8.8410   -6.6550   24.4830 C.ar  122  TRP122      0.0152
     49  NE1       -6.9730   -7.8350   24.8560 N.ar  122  TRP122     -0.2442
     50  CE2       -8.2430   -7.6180   25.3200 C.ar  122  TRP122      0.0810
     51  CE3      -10.1540   -6.2540   24.7460 C.ar  122  TRP122      0.0012
     52  CZ2       -8.9130   -8.1860   26.4010 C.ar  122  TRP122      0.0191
     53  CZ3      -10.8160   -6.8190   25.8190 C.ar  122  TRP122      0.0001
     54  CH2      -10.1960   -7.7740   26.6330 C.ar  122  TRP122      0.0015
     55  N         -3.7180   -3.8030   18.2020 N.3   125  ILE125     -0.1245
     56  CA        -3.3760   -5.0140   17.4630 C.3   125  ILE125      0.1561
     57  C         -4.3740   -5.3000   16.3410 C.2   125  ILE125      0.2260
     58  O         -4.1060   -6.1210   15.4650 O.2   125  ILE125     -0.2867
     59  CB        -3.2860   -6.2400   18.3950 C.3   125  ILE125      0.0252
     60  CG1       -4.6260   -6.5020   19.0790 C.3   125  ILE125      0.0019
     61  CG2       -2.1860   -6.0400   19.4270 C.3   125  ILE125      0.0019
     62  CD1       -4.5810   -7.6290   20.0880 C.3   125  ILE125      0.0001
     63  N         -8.2600   -5.1720   16.8090 N.3   127  LEU127     -0.1245
     64  CA        -9.6180   -5.5720   17.1700 C.3   127  LEU127      0.1561
     65  C        -10.5540   -4.3660   17.1250 C.2   127  LEU127      0.2260
     66  O        -10.3580   -3.3910   17.8510 O.2   127  LEU127     -0.2867
     67  CB        -9.6390   -6.2250   18.5550 C.3   127  LEU127      0.0270
     68  CG        -8.7920   -7.4940   18.6890 C.3   127  LEU127      0.0019
     69  CD1       -8.7870   -8.0040   20.1210 C.3   127  LEU127      0.0001
     70  CD2       -9.2920   -8.5720   17.7420 C.3   127  LEU127      0.0001
     71  N        -15.2530   -9.7170   17.0280 N.3   132  ASP132     -0.1239
     72  CA       -13.8460  -10.0980   17.0710 C.3   132  ASP132      0.1674
     73  C        -13.4460  -10.5540   18.4680 C.2   132  ASP132      0.2266
     74  O        -12.7120  -11.5290   18.6280 O.2   132  ASP132     -0.2867
     75  CB       -12.9570   -8.9340   16.6310 C.3   132  ASP132      0.1410
     76  CG       -13.0900   -8.6210   15.1560 C.2   132  ASP132      0.3668
     77  OD1      -13.1300   -9.5710   14.3450 O.co2 132  ASP132     -0.2456
     78  OD2      -13.1560   -7.4240   14.8070 O.co2 132  ASP132     -0.2456
     79  N        -12.1970  -14.4430   19.9000 N.3   136  GLY136     -0.1225
     80  CA       -10.9950  -14.5930   20.6960 C.3   136  GLY136      0.1811
     81  C        -11.2890  -15.3240   21.9900 C.2   136  GLY136      0.2280
     82  O        -10.5110  -16.1740   22.4240 O.2   136  GLY136     -0.2866
     83  N        -11.7820  -18.9150   21.2120 N.3   139  PHE139     -0.1227
     84  CA       -10.5020  -19.5170   20.8610 C.3   139  PHE139      0.1736
     85  C         -9.6380  -19.7500   22.0970 C.2   139  PHE139      0.2595
     86  O         -8.9170  -20.7430   22.1790 O.2   139  PHE139     -0.2718
     87  CB        -9.7580  -18.6410   19.8520 C.3   139  PHE139      0.0547
     88  CG        -8.4570  -19.2270   19.3870 C.ar  139  PHE139     -0.0202
     89  CD1       -8.4370  -20.3930   18.6380 C.ar  139  PHE139     -0.0042
     90  CD2       -7.2550  -18.6090   19.6900 C.ar  139  PHE139     -0.0042
     91  CE1       -7.2430  -20.9350   18.2070 C.ar  139  PHE139     -0.0003
     92  CE2       -6.0560  -19.1450   19.2600 C.ar  139  PHE139     -0.0003
     93  CZ        -6.0500  -20.3100   18.5190 C.ar  139  PHE139     -0.0000
     94  N         -9.7140  -18.8330   23.0570 N.am  140  LEU140     -0.1980
     95  CA        -8.9700  -18.9760   24.3040 C.3   140  LEU140      0.1596
     96  C         -9.5960  -20.0420   25.1910 C.2   140  LEU140      0.2287
     97  O         -8.8930  -20.7750   25.8880 O.2   140  LEU140     -0.2864
     98  CB        -8.9050  -17.6460   25.0520 C.3   140  LEU140      0.0297
     99  CG        -7.9650  -16.6010   24.4580 C.3   140  LEU140      0.0022
    100  CD1       -8.0180  -15.3260   25.2740 C.3   140  LEU140      0.0001
    101  CD2       -6.5430  -17.1360   24.3800 C.3   140  LEU140      0.0001
    102  N         -8.3570  -23.0590   23.7420 N.3   143  LEU143     -0.1245
    103  CA        -6.9520  -23.2010   24.1150 C.3   143  LEU143      0.1561
    104  C         -6.8240  -23.6220   25.5750 C.2   143  LEU143      0.2260
    105  O         -5.8930  -24.3350   25.9480 O.2   143  LEU143     -0.2867
    106  CB        -6.1870  -21.8960   23.8810 C.3   143  LEU143      0.0270
    107  CG        -5.7650  -21.5590   22.4500 C.3   143  LEU143      0.0019
    108  CD1       -4.9960  -20.2480   22.4250 C.3   143  LEU143      0.0001
    109  CD2       -4.9310  -22.6800   21.8530 C.3   143  LEU143      0.0001
    110  N          5.8840  -15.0020   14.1560 N.3   187  ALA187     -0.1231
    111  CA         4.4590  -15.1160   13.8760 C.3   187  ALA187      0.1694
    112  C          3.7290  -13.8280   14.2370 C.2   187  ALA187      0.2592
    113  O          2.7640  -13.4470   13.5750 O.2   187  ALA187     -0.2718
    114  CB         3.8610  -16.2920   14.6300 C.3   187  ALA187      0.0304
    115  N          4.1940  -13.1600   15.2880 N.am  188  TRP188     -0.1976
    116  CA         3.5770  -11.9130   15.7190 C.3   188  TRP188      0.1640
    117  C          3.8430  -10.8020   14.7150 C.2   188  TRP188      0.2290
    118  O          2.9740   -9.9700   14.4560 O.2   188  TRP188     -0.2864
    119  CB         4.0810  -11.5050   17.1040 C.3   188  TRP188      0.0576
    120  CG         3.3720  -10.3080   17.6610 C.ar  188  TRP188      0.0006
    121  CD1        3.9330   -9.1230   18.0390 C.ar  188  TRP188      0.0946
    122  CD2        1.9630  -10.1750   17.8880 C.ar  188  TRP188      0.0152
    123  NE1        2.9630   -8.2650   18.4970 N.ar  188  TRP188     -0.2442
    124  CE2        1.7450   -8.8860   18.4120 C.ar  188  TRP188      0.0810
    125  CE3        0.8670  -11.0230   17.7050 C.ar  188  TRP188      0.0012
    126  CZ2        0.4750   -8.4270   18.7550 C.ar  188  TRP188      0.0191
    127  CZ3       -0.3910  -10.5650   18.0440 C.ar  188  TRP188      0.0001
    128  CH2       -0.5770   -9.2790   18.5630 C.ar  188  TRP188      0.0015
    129  N        -10.1190  -13.2050    8.7250 N.3   207  TRP207     -0.1241
    130  CA       -10.0120  -14.5700    8.2120 C.3   207  TRP207      0.1605
    131  C        -10.7160  -14.7910    6.8740 C.2   207  TRP207      0.2264
    132  O        -10.2980  -15.6340    6.0800 O.2   207  TRP207     -0.2867
    133  CB       -10.5630  -15.5630    9.2390 C.3   207  TRP207      0.0550
    134  CG        -9.7460  -15.6390   10.4880 C.ar  207  TRP207      0.0003
    135  CD1      -10.1270  -15.2600   11.7420 C.ar  207  TRP207      0.0946
    136  CD2       -8.4010  -16.1160   10.6030 C.ar  207  TRP207      0.0152
    137  NE1       -9.1030  -15.4770   12.6330 N.ar  207  TRP207     -0.2442
    138  CE2       -8.0310  -16.0010   11.9580 C.ar  207  TRP207      0.0810
    139  CE3       -7.4730  -16.6310    9.6930 C.ar  207  TRP207      0.0012
    140  CZ2       -6.7740  -16.3820   12.4240 C.ar  207  TRP207      0.0191
    141  CZ3       -6.2250  -17.0080   10.1570 C.ar  207  TRP207      0.0001
    142  CH2       -5.8870  -16.8820   11.5100 C.ar  207  TRP207      0.0015
    143  N         -8.1890  -12.3210    4.4640 N.3   210  PHE210     -0.1227
    144  CA        -6.7500  -12.1570    4.6630 C.3   210  PHE210      0.1736
    145  C         -5.9530  -12.8950    3.5970 C.2   210  PHE210      0.2595
    146  O         -4.7900  -12.5810    3.3480 O.2   210  PHE210     -0.2718
    147  CB        -6.3280  -12.6400    6.0530 C.3   210  PHE210      0.0547
    148  CG        -6.0140  -14.1100    6.1250 C.ar  210  PHE210     -0.0202
    149  CD1       -7.0300  -15.0510    6.1840 C.ar  210  PHE210     -0.0042
    150  CD2       -4.7000  -14.5500    6.1570 C.ar  210  PHE210     -0.0042
    151  CE1       -6.7400  -16.4030    6.2580 C.ar  210  PHE210     -0.0003
    152  CE2       -4.4050  -15.8980    6.2300 C.ar  210  PHE210     -0.0003
    153  CZ        -5.4260  -16.8260    6.2810 C.ar  210  PHE210     -0.0000
    154  N         -6.5900  -13.8760    2.9700 N.am  211  LEU211     -0.1980
    155  CA        -5.9300  -14.6960    1.9660 C.3   211  LEU211      0.1596
    156  C         -5.7820  -13.9450    0.6450 C.2   211  LEU211      0.2287
    157  O         -4.8900  -14.2410   -0.1500 O.2   211  LEU211     -0.2864
    158  CB        -6.7100  -15.9950    1.7530 C.3   211  LEU211      0.0297
    159  CG        -5.8900  -17.2690    1.5530 C.3   211  LEU211      0.0022
    160  CD1       -4.9520  -17.4850    2.7290 C.3   211  LEU211      0.0001
    161  CD2       -6.8100  -18.4660    1.3730 C.3   211  LEU211      0.0001
@<TRIPOS>BOND
     1   157   156    2
     2   156   155    1
     3   161   159    1
     4   159   158    1
     5   159   160    1
     6   158   155    1
     7   155   154    1
     8   154   145   am
     9   146   145    2
    10   145   144    1
    11   143   144    1
    12   144   147    1
    13   147   148    1
    14   132   131    2
    15   148   150   ar
    16   148   149   ar
    17   150   152   ar
    18   149   151   ar
    19   152   153   ar
    20   151   153   ar
    21   131   130    1
    22   130   129    1
    23   130   133    1
    24   133   134    1
    25   139   141   ar
    26   139   136   ar
    27   141   142   ar
    28   134   136   ar
    29   134   135   ar
    30   136   138   ar
    31   142   140   ar
    32   135   137   ar
    33   138   140   ar
    34   138   137   ar
    35   113   112    2
    36   111   110    1
    37   111   112    1
    38   111   114    1
    39   112   115   am
    40    77    76   ar
    41   118   117    2
    42   117   116    1
    43    78    76   ar
    44    76    75    1
    45   115   116    1
    46    58    57    2
    47   116   119    1
    48    57    56    1
    49    75    72    1
    50    63    64    1
    51    71    72    1
    52    72    73    1
    53   119   120    1
    54    65    64    1
    55    65    66    2
    56    64    67    1
    57    56    55    1
    58    56    59    1
    59   120   122   ar
    60   120   121   ar
    61   125   122   ar
    62   125   127   ar
    63    70    68    1
    64   122   124   ar
    65   121   123   ar
    66   127   128   ar
    67    91    93   ar
    68    91    89   ar
    69    59    60    1
    70    59    61    1
    71   124   123   ar
    72   124   126   ar
    73    73    74    2
    74    93    92   ar
    75    67    68    1
    76   128   126   ar
    77    89    88   ar
    78    68    69    1
    79    60    62    1
    80    92    90   ar
    81    88    90   ar
    82    88    87    1
    83    44    43    2
    84    87    84    1
    85    79    80    1
    86    43    42    1
    87    80    81    1
    88    84    83    1
    89    84    85    1
    90    30    29    2
    91    42    45    1
    92    42    41    1
    93   109   107    1
    94    81    82    2
    95    85    86    2
    96    85    94   am
    97    45    46    1
    98   108   107    1
    99   107   106    1
   100    29    41   am
   101    29    28    1
   102    94    95    1
   103    35    33   ar
   104    35    36   ar
   105    33    32   ar
   106    46    47   ar
   107    46    48   ar
   108    28    27    1
   109    28    31    1
   110   102   103    1
   111    47    49   ar
   112    25    24    1
   113    26    24    1
   114   106   103    1
   115   103   104    1
   116    36    38   ar
   117    36    34   ar
   118    95    98    1
   119    95    96    1
   120    32    31    1
   121    32    34   ar
   122   101    99    1
   123    99    98    1
   124    99   100    1
   125    48    51   ar
   126    48    50   ar
   127    38    40   ar
   128    24    23    1
   129    51    53   ar
   130    49    50   ar
   131    34    37   ar
   132    23    20    1
   133    22    21    2
   134    96    97    2
   135    50    52   ar
   136   104   105    2
   137    40    39   ar
   138    53    54   ar
   139    21    20    1
   140    37    39   ar
   141    20    19    1
   142    11     9   ar
   143    11    10   ar
   144     9     7   ar
   145    52    54   ar
   146    10     8   ar
   147     7     6   ar
   148     8     6   ar
   149     6     5    1
   150    18    16    1
   151    15    14    2
   152     5     2    1
   153    14    13    1
   154    16    13    1
   155    16    17    1
   156     4     3    2
   157     2     3    1
   158     2     1    1
   159    13    12    1
