@<TRIPOS>MOLECULE
tmp/4rkuO01.pdb
 164 161 0 0 0
SMALL
GASTEIGER

@<TRIPOS>ATOM
      1  N         51.4510   15.4680   93.9880 N.3    43  TRP43      -0.1241
      2  CA        51.1090   16.4490   92.9750 C.3    43  TRP43       0.1605
      3  C         50.4480   17.6200   93.6180 C.2    43  TRP43       0.2264
      4  O         50.7660   18.7530   93.3170 O.2    43  TRP43      -0.2867
      5  CB        50.1760   15.8590   91.9300 C.3    43  TRP43       0.0550
      6  CG        49.8440   16.7980   90.8450 C.ar   43  TRP43       0.0003
      7  CD1       48.7020   17.4790   90.6950 C.ar   43  TRP43       0.0946
      8  CD2       50.6700   17.1590   89.7540 C.ar   43  TRP43       0.0152
      9  NE1       48.7560   18.2480   89.5850 N.ar   43  TRP43      -0.2442
     10  CE2       49.9640   18.0630   88.9870 C.ar   43  TRP43       0.0810
     11  CE3       51.9460   16.8050   89.3550 C.ar   43  TRP43       0.0012
     12  CZ2       50.4790   18.6160   87.8600 C.ar   43  TRP43       0.0191
     13  CZ3       52.4480   17.3520   88.2330 C.ar   43  TRP43       0.0001
     14  CH2       51.7280   18.2420   87.4980 C.ar   43  TRP43       0.0015
     15  N         53.0980   19.9060   95.2900 N.3    46  GLN46      -0.1231
     16  CA        53.7620   20.8190   94.3920 C.3    46  GLN46       0.1698
     17  C         52.7970   21.9030   93.9740 C.2    46  GLN46       0.2592
     18  O         53.1590   23.0630   93.8800 O.2    46  GLN46      -0.2718
     19  CB        54.2660   20.0960   93.1630 C.3    46  GLN46       0.0381
     20  CG        55.3400   19.0960   93.4760 C.3    46  GLN46       0.0905
     21  CD        56.4800   19.7240   94.1970 C.2    46  GLN46       0.2608
     22  OE1       57.1500   20.5840   93.6630 O.2    46  GLN46      -0.2717
     23  NE2       56.7090   19.2980   95.4120 N.am   46  GLN46      -0.0878
     24  N         51.5530   21.5200   93.7490 N.am   47  ALA47      -0.1980
     25  CA        50.5380   22.4550   93.3340 C.3    47  ALA47       0.1597
     26  C         50.2880   23.5000   94.3840 C.2    47  ALA47       0.2287
     27  O         50.2180   24.6670   94.0800 O.2    47  ALA47      -0.2864
     28  CB        49.2600   21.7150   93.0210 C.3    47  ALA47       0.0319
     29  N         53.7390   25.9630   94.4550 N.3    50  VAL50      -0.1231
     30  CA        53.9420   26.9270   93.3870 C.3    50  VAL50       0.1692
     31  C         52.9230   28.0330   93.4860 C.2    50  VAL50       0.2592
     32  O         53.2240   29.1920   93.2780 O.2    50  VAL50      -0.2718
     33  CB        53.8740   26.2810   92.0020 C.3    50  VAL50       0.0266
     34  CG1       53.9590   27.3400   90.9230 C.3    50  VAL50       0.0020
     35  CG2       55.0080   25.2960   91.8300 C.3    50  VAL50       0.0020
     36  N         51.7090   27.6790   93.8350 N.am   51  HIS51      -0.1976
     37  CA        50.6680   28.6540   93.9780 C.3    51  HIS51       0.1656
     38  C         51.0620   29.7060   94.9510 C.2    51  HIS51       0.2291
     39  O         50.9900   30.8920   94.6780 O.2    51  HIS51      -0.2864
     40  CB        49.4630   27.9750   94.5700 C.3    51  HIS51       0.0771
     41  CG        48.4250   27.6210   93.5700 C.ar   51  HIS51       0.0820
     42  ND1       47.1170   28.0100   93.7060 N.ar   51  HIS51      -0.2267
     43  CD2       48.4980   26.9370   92.4100 C.ar   51  HIS51       0.1154
     44  CE1       46.4180   27.5580   92.6890 C.ar   51  HIS51       0.1986
     45  NE2       47.2340   26.9120   91.8810 N.ar   51  HIS51      -0.2212
     46  N         53.6640   32.0420   94.0510 N.3    54  TRP54      -0.1241
     47  CA        53.1370   33.0890   93.1950 C.3    54  TRP54       0.1605
     48  C         52.3210   34.0680   94.0090 C.2    54  TRP54       0.2264
     49  O         52.5070   35.2630   93.9120 O.2    54  TRP54      -0.2867
     50  CB        52.3020   32.5050   92.0780 C.3    54  TRP54       0.0550
     51  CG        53.0800   31.7810   91.0590 C.ar   54  TRP54       0.0003
     52  CD1       53.1350   30.4450   90.8880 C.ar   54  TRP54       0.0946
     53  CD2       53.9080   32.3500   90.0460 C.ar   54  TRP54       0.0152
     54  NE1       53.9440   30.1350   89.8310 N.ar   54  TRP54      -0.2442
     55  CE2       54.4350   31.2930   89.2990 C.ar   54  TRP54       0.0810
     56  CE3       54.2620   33.6480   89.7060 C.ar   54  TRP54       0.0012
     57  CZ2       55.2930   31.4930   88.2350 C.ar   54  TRP54       0.0191
     58  CZ3       55.1160   33.8400   88.6470 C.ar   54  TRP54       0.0001
     59  CH2       55.6200   32.7710   87.9260 C.ar   54  TRP54       0.0015
     60  N         52.8240   38.5510   76.1920 N.3    79  PHE79      -0.1241
     61  CA        52.3180   37.2760   76.6880 C.3    79  PHE79       0.1605
     62  C         53.0680   36.1370   76.0510 C.2    79  PHE79       0.2264
     63  O         53.5410   35.2300   76.7080 O.2    79  PHE79      -0.2867
     64  CB        50.8400   37.1740   76.3350 C.3    79  PHE79       0.0534
     65  CG        50.0730   36.1540   77.1250 C.ar   79  PHE79      -0.0203
     66  CD1       50.3830   35.8800   78.4280 C.ar   79  PHE79      -0.0042
     67  CD2       48.9990   35.5070   76.5580 C.ar   79  PHE79      -0.0042
     68  CE1       49.6570   34.9570   79.1460 C.ar   79  PHE79      -0.0003
     69  CE2       48.2690   34.5860   77.2670 C.ar   79  PHE79      -0.0003
     70  CZ        48.5970   34.3130   78.5660 C.ar   79  PHE79      -0.0000
     71  N         56.1260   35.7790   77.4800 N.3    82  GLU82      -0.1231
     72  CA        55.8110   35.2010   78.7750 C.3    82  GLU82       0.1699
     73  C         55.5060   33.7130   78.6280 C.2    82  GLU82       0.2592
     74  O         56.0770   32.8850   79.3400 O.2    82  GLU82      -0.2718
     75  CB        54.6350   35.9500   79.4160 C.3    82  GLU82       0.0402
     76  CG        53.7490   35.1270   80.3380 C.3    82  GLU82       0.1161
     77  CD        52.9460   35.9900   81.3010 C.2    82  GLU82       0.3649
     78  OE1       53.1800   37.2180   81.3440 O.co2  82  GLU82      -0.2457
     79  OE2       52.0830   35.4400   82.0180 O.co2  82  GLU82      -0.2457
     80  N         54.6440   33.3800   77.6910 N.am   83  LEU83      -0.1980
     81  CA        54.3310   31.9900   77.4790 C.3    83  LEU83       0.1596
     82  C         55.6060   31.2680   77.1130 C.2    83  LEU83       0.2287
     83  O         55.9440   30.2650   77.7110 O.2    83  LEU83      -0.2864
     84  CB        53.2900   31.8410   76.3840 C.3    83  LEU83       0.0297
     85  CG        51.8730   31.5010   76.8340 C.3    83  LEU83       0.0022
     86  CD1       51.5440   32.0910   78.1850 C.3    83  LEU83       0.0001
     87  CD2       50.8630   31.9430   75.7980 C.3    83  LEU83       0.0001
     88  N         58.0590   31.5210   80.5690 N.3    86  ILE86      -0.1231
     89  CA        57.6280   30.7480   81.7100 C.3    86  ILE86       0.1692
     90  C         57.3140   29.3350   81.2810 C.2    86  ILE86       0.2592
     91  O         57.1810   28.4390   82.0980 O.2    86  ILE86      -0.2718
     92  CB        56.3810   31.3410   82.3260 C.3    86  ILE86       0.0266
     93  CG1       56.6740   32.7520   82.7820 C.3    86  ILE86       0.0019
     94  CG2       55.9400   30.4910   83.4940 C.3    86  ILE86       0.0020
     95  CD1       55.6020   33.7340   82.4190 C.3    86  ILE86       0.0001
     96  N         57.1820   29.1480   79.9830 N.am   87  GLY87      -0.1957
     97  CA        56.8880   27.8460   79.4590 C.3    87  GLY87       0.1869
     98  C         58.0840   27.0230   79.7930 C.2    87  GLY87       0.2309
     99  O         58.0400   26.1710   80.6550 O.2    87  GLY87      -0.2863
    100  N         58.5020   26.6640   83.4970 N.3    90  GLU90      -0.1231
    101  CA        57.6040   25.6530   84.0160 C.3    90  GLU90       0.1699
    102  C         57.8100   24.3380   83.3020 C.2    90  GLU90       0.2592
    103  O         57.4810   23.2820   83.8160 O.2    90  GLU90      -0.2718
    104  CB        56.1770   26.1150   83.8660 C.3    90  GLU90       0.0402
    105  CG        55.7860   27.1690   84.8600 C.3    90  GLU90       0.1161
    106  CD        55.0490   26.5830   86.0210 C.2    90  GLU90       0.3649
    107  OE1       55.3620   25.4610   86.4170 O.co2  90  GLU90      -0.2457
    108  OE2       54.1560   27.2470   86.5460 O.co2  90  GLU90      -0.2457
    109  N         58.3620   24.4040   82.1080 N.am   91  GLY91      -0.1957
    110  CA        58.5940   23.1990   81.3590 C.3    91  GLY91       0.1869
    111  C         59.4090   22.2530   82.1840 C.2    91  GLY91       0.2309
    112  O         58.9580   21.2010   82.5770 O.2    91  GLY91      -0.2863
    113  N         60.3300   22.4020   85.1630 N.3    93  ARG93      -0.1231
    114  CA        59.7880   22.1240   86.4730 C.3    93  ARG93       0.1694
    115  C         58.9140   20.8880   86.3780 C.2    93  ARG93       0.2592
    116  O         58.8950   20.0700   87.2740 O.2    93  ARG93      -0.2718
    117  CB        58.9970   23.3130   86.9780 C.3    93  ARG93       0.0321
    118  CG        58.8310   23.3340   88.4710 C.3    93  ARG93       0.0489
    119  CD        58.0990   24.5740   88.8710 C.3    93  ARG93       0.2205
    120  NE        56.8260   24.5980   88.2050 N.pl3  93  ARG93      -0.0865
    121  CZ        55.7290   24.0760   88.7090 C.cat  93  ARG93       0.5346
    122  NH1       55.7500   23.5050   89.8910 N.pl3  93  ARG93       0.1354
    123  NH2       54.6130   24.1390   88.0270 N.pl3  93  ARG93       0.1354
    124  N         58.1820   20.7630   85.2750 N.am   94  TRP94      -0.1976
    125  CA        57.3160   19.6100   85.0320 C.3    94  TRP94       0.1640
    126  C         58.1070   18.3110   84.9510 C.2    94  TRP94       0.2290
    127  O         57.7400   17.3080   85.5620 O.2    94  TRP94      -0.2864
    128  CB        56.5310   19.8040   83.7330 C.3    94  TRP94       0.0576
    129  CG        55.2520   19.0280   83.6510 C.ar   94  TRP94       0.0006
    130  CD1       54.7940   18.0990   84.5370 C.ar   94  TRP94       0.0946
    131  CD2       54.2560   19.1330   82.6270 C.ar   94  TRP94       0.0152
    132  NE1       53.5750   17.6140   84.1260 N.ar   94  TRP94      -0.2442
    133  CE2       53.2220   18.2360   82.9560 C.ar   94  TRP94       0.0810
    134  CE3       54.1370   19.9020   81.4650 C.ar   94  TRP94       0.0012
    135  CZ2       52.0870   18.0820   82.1630 C.ar   94  TRP94       0.0191
    136  CZ3       53.0110   19.7500   80.6810 C.ar   94  TRP94       0.0001
    137  CH2       52.0000   18.8460   81.0320 C.ar   94  TRP94       0.0015
    138  N         59.1450   17.0840   88.2950 N.3    97  ILE97      -0.1245
    139  CA        58.0770   16.5460   89.1310 C.3    97  ILE97       0.1561
    140  C         57.9080   15.0520   88.8760 C.2    97  ILE97       0.2260
    141  O         57.5960   14.2840   89.7870 O.2    97  ILE97      -0.2867
    142  CB        56.7260   17.2560   88.8790 C.3    97  ILE97       0.0252
    143  CG1       56.8960   18.7750   88.8720 C.3    97  ILE97       0.0019
    144  CG2       55.7010   16.8490   89.9270 C.3    97  ILE97       0.0019
    145  CD1       57.4910   19.3380   90.1440 C.3    97  ILE97       0.0001
    146  N         43.1010   36.5500   97.2370 N.3   122  MET122     -0.1245
    147  CA        41.7530   36.2090   96.8750 C.3   122  MET122      0.1570
    148  C         40.9080   37.3350   97.4040 C.2   122  MET122      0.2261
    149  O         40.3670   38.1180   96.6690 O.2   122  MET122     -0.2867
    150  CB        41.3650   34.8830   97.5280 C.3   122  MET122      0.0387
    151  CG        39.9570   34.3850   97.2490 C.3   122  MET122      0.0595
    152  SD        39.5820   32.8900   98.1880 S.3   122  MET122     -0.1393
    153  CE        37.8220   32.6930   97.9210 C.3   122  MET122      0.0692
    154  N         37.3290   39.5690   95.4110 N.3   126  PHE126     -0.1241
    155  CA        35.9130   39.2650   95.6310 C.3   126  PHE126      0.1605
    156  C         35.3010   40.2990   96.5800 C.2   126  PHE126      0.2264
    157  O         34.1270   40.2180   96.9440 O.2   126  PHE126     -0.2867
    158  CB        35.7260   37.8440   96.1710 C.3   126  PHE126      0.0534
    159  CG        35.1710   36.8770   95.1530 C.ar  126  PHE126     -0.0203
    160  CD1       35.7140   36.8080   93.8810 C.ar  126  PHE126     -0.0042
    161  CD2       34.1140   36.0350   95.4700 C.ar  126  PHE126     -0.0042
    162  CE1       35.2130   35.9250   92.9390 C.ar  126  PHE126     -0.0003
    163  CE2       33.6080   35.1460   94.5310 C.ar  126  PHE126     -0.0003
    164  CZ        34.1600   35.0930   93.2650 C.ar  126  PHE126     -0.0000
@<TRIPOS>BOND
     1    87    85    1
     2    62    61    1
     3    62    63    2
     4    60    61    1
     5    64    61    1
     6    64    65    1
     7    84    85    1
     8    84    81    1
     9    67    65   ar
    10    67    69   ar
    11    85    86    1
    12    82    81    1
    13    82    83    2
    14    65    66   ar
    15    69    70   ar
    16    81    80    1
    17    71    72    1
    18    80    73   am
    19    66    68   ar
    20    70    68   ar
    21    73    72    1
    22    73    74    2
    23    72    75    1
    24    75    76    1
    25    97    98    1
    26    97    96    1
    27    98    99    2
    28    96    90   am
    29    76    77    1
    30    88    89    1
    31   136   137   ar
    32   136   134   ar
    33   137   135   ar
    34    90    89    1
    35    90    91    2
    36    77    78   ar
    37    77    79   ar
    38   110   109    1
    39   110   111    1
    40   134   131   ar
    41    89    92    1
    42   109   102   am
    43   135   133   ar
    44   111   112    2
    45    92    93    1
    46    92    94    1
    47    95    93    1
    48   131   133   ar
    49   131   129   ar
    50   133   132   ar
    51   102   103    2
    52   102   101    1
    53   100   101    1
    54   129   128    1
    55   129   130   ar
    56   128   125    1
    57   104   101    1
    58   104   105    1
    59   132   130   ar
    60   105   106    1
    61   126   125    1
    62   126   127    2
    63   125   124    1
    64   113   114    1
    65   124   115   am
    66   106   107   ar
    67   106   108   ar
    68   115   114    1
    69   115   116    2
    70   114   117    1
    71   117   118    1
    72    14    12   ar
    73    14    13   ar
    74    12    10   ar
    75    59    57   ar
    76    59    58   ar
    77   123   121    1
    78   120   121    2
    79   120   119    1
    80    13    11   ar
    81    57    55   ar
    82   138   139    1
    83   118   119    1
    84    58    56   ar
    85   121   122    1
    86   143   142    1
    87   143   145    1
    88   140   139    1
    89   140   141    2
    90   142   139    1
    91   142   144    1
    92    10     9   ar
    93    10     8   ar
    94    55    54   ar
    95    55    53   ar
    96    11     8   ar
    97     9     7   ar
    98    56    53   ar
    99     8     6   ar
   100    54    52   ar
   101    53    51   ar
   102     7     6   ar
   103     6     5    1
   104    52    51   ar
   105    34    33    1
   106    51    50    1
   107    35    33    1
   108    45    43   ar
   109    45    44   ar
   110     5     2    1
   111    33    30    1
   112    50    47    1
   113    43    41   ar
   114    44    42   ar
   115   162   164   ar
   116   162   160   ar
   117     2     3    1
   118     2     1    1
   119    28    25    1
   120    19    20    1
   121    19    16    1
   122    47    48    1
   123    47    46    1
   124   164   163   ar
   125    32    31    2
   126     4     3    2
   127    25    24    1
   128    25    26    1
   129    30    31    1
   130    30    29    1
   131    20    21    1
   132    31    36   am
   133    41    42   ar
   134    41    40    1
   135    22    21    2
   136    24    17   am
   137    36    37    1
   138    18    17    2
   139   160   159   ar
   140    49    48    2
   141    17    16    1
   142    37    40    1
   143    37    38    1
   144    27    26    2
   145    21    23   am
   146    16    15    1
   147   163   161   ar
   148    39    38    2
   149   159   161   ar
   150   159   158    1
   151   154   155    1
   152   155   158    1
   153   155   156    1
   154   156   157    2
   155   149   148    2
   156   147   146    1
   157   147   148    1
   158   147   150    1
   159   151   150    1
   160   151   152    1
   161   153   152    1
