@<TRIPOS>MOLECULE
tmp/4rkuA32.pdb
 169 171 0 0 0
SMALL
GASTEIGER

@<TRIPOS>ATOM
      1  N        -15.4770  -13.9450   76.4020 N.3   411  TRP411     -0.1227
      2  CA       -16.7310  -13.8340   75.6690 C.3   411  TRP411      0.1737
      3  C        -17.2410  -12.3990   75.6100 C.2   411  TRP411      0.2595
      4  O        -17.6600  -11.9290   74.5510 O.2   411  TRP411     -0.2718
      5  CB       -17.7980  -14.7320   76.2960 C.3   411  TRP411      0.0564
      6  CG       -19.1800  -14.4150   75.8220 C.ar  411  TRP411      0.0003
      7  CD1      -19.7220  -14.7270   74.6100 C.ar  411  TRP411      0.0946
      8  CD2      -20.1990  -13.7180   76.5490 C.ar  411  TRP411      0.0152
      9  NE1      -21.0140  -14.2670   74.5370 N.ar  411  TRP411     -0.2442
     10  CE2      -21.3310  -13.6450   75.7150 C.ar  411  TRP411      0.0810
     11  CE3      -20.2630  -13.1500   77.8260 C.ar  411  TRP411      0.0012
     12  CZ2      -22.5150  -13.0270   76.1150 C.ar  411  TRP411      0.0191
     13  CZ3      -21.4390  -12.5370   78.2210 C.ar  411  TRP411      0.0001
     14  CH2      -22.5480  -12.4800   77.3680 C.ar  411  TRP411      0.0015
     15  N        -17.2100  -11.7150   76.7510 N.am  412  VAL412     -0.1980
     16  CA       -17.6940  -10.3410   76.8460 C.3   412  VAL412      0.1595
     17  C        -16.9930   -9.4360   75.8410 C.2   412  VAL412      0.2287
     18  O        -17.6280   -8.6020   75.1960 O.2   412  VAL412     -0.2864
     19  CB       -17.4910   -9.7660   78.2600 C.3   412  VAL412      0.0276
     20  CG1      -18.1600   -8.4040   78.3780 C.3   412  VAL412      0.0022
     21  CG2      -18.0410  -10.7200   79.3010 C.3   412  VAL412      0.0022
     22  N        -18.4060  -10.0940   72.4450 N.3   415  PHE415     -0.1227
     23  CA       -19.7260   -9.4790   72.3950 C.3   415  PHE415      0.1736
     24  C        -19.6070   -7.9680   72.2400 C.2   415  PHE415      0.2595
     25  O        -20.2720   -7.3650   71.3980 O.2   415  PHE415     -0.2718
     26  CB       -20.5250   -9.8220   73.6550 C.3   415  PHE415      0.0547
     27  CG       -21.7780   -9.0120   73.8210 C.ar  415  PHE415     -0.0202
     28  CD1      -22.9310   -9.3430   73.1290 C.ar  415  PHE415     -0.0042
     29  CD2      -21.8080   -7.9230   74.6770 C.ar  415  PHE415     -0.0042
     30  CE1      -24.0870   -8.5990   73.2820 C.ar  415  PHE415     -0.0003
     31  CE2      -22.9600   -7.1770   74.8320 C.ar  415  PHE415     -0.0003
     32  CZ       -24.1010   -7.5160   74.1330 C.ar  415  PHE415     -0.0000
     33  N        -18.7520   -7.3650   73.0610 N.am  416  LEU416     -0.1980
     34  CA       -18.5360   -5.9240   73.0240 C.3   416  LEU416      0.1596
     35  C        -17.9020   -5.4800   71.7110 C.2   416  LEU416      0.2287
     36  O        -18.3390   -4.5030   71.1070 O.2   416  LEU416     -0.2864
     37  CB       -17.6640   -5.4850   74.2030 C.3   416  LEU416      0.0297
     38  CG       -18.3790   -5.4160   75.5530 C.3   416  LEU416      0.0022
     39  CD1      -17.4010   -5.1160   76.6790 C.3   416  LEU416      0.0001
     40  CD2      -19.4810   -4.3690   75.5030 C.3   416  LEU416      0.0001
     41  N        -20.4490   -5.5810   68.9900 N.3   419  HIS419     -0.1241
     42  CA       -21.5050   -4.5990   69.2220 C.3   419  HIS419      0.1621
     43  C        -20.9760   -3.1790   69.3910 C.2   419  HIS419      0.2264
     44  O        -21.7120   -2.2790   69.7950 O.2   419  HIS419     -0.2867
     45  CB       -22.3230   -4.9920   70.4510 C.3   419  HIS419      0.0745
     46  CG       -23.0460   -6.2940   70.3010 C.ar  419  HIS419      0.0817
     47  ND1      -22.4060   -7.4670   69.9650 N.ar  419  HIS419     -0.2268
     48  CD2      -24.3560   -6.6060   70.4410 C.ar  419  HIS419      0.1154
     49  CE1      -23.2910   -8.4460   69.9030 C.ar  419  HIS419      0.1986
     50  NE2      -24.4810   -7.9500   70.1900 N.ar  419  HIS419     -0.2212
     51  N        -30.0060    4.9180   68.2710 N.3   447  LEU447     -0.1231
     52  CA       -29.7840    4.1570   69.4910 C.3   447  LEU447      0.1693
     53  C        -29.4500    5.1190   70.6270 C.2   447  LEU447      0.2592
     54  O        -28.2980    5.2260   71.0510 O.2   447  LEU447     -0.2718
     55  CB       -28.6650    3.1350   69.2850 C.3   447  LEU447      0.0284
     56  CG       -28.7460    1.8310   70.0800 C.3   447  LEU447      0.0019
     57  CD1      -30.1580    1.2720   70.0470 C.3   447  LEU447      0.0001
     58  CD2      -27.7640    0.8200   69.5130 C.3   447  LEU447      0.0001
     59  N        -30.4730    5.8190   71.1080 N.am  448  GLN448     -0.1966
     60  CA       -30.3070    6.8700   72.1060 C.3   448  GLN448      0.1718
     61  C        -29.8440    6.3410   73.4610 C.2   448  GLN448      0.2458
     62  O        -30.4010    5.3740   73.9790 O.2   448  GLN448     -0.2730
     63  CB       -31.6190    7.6370   72.2810 C.3   448  GLN448      0.0407
     64  CG       -31.4790    9.1410   72.1320 C.3   448  GLN448      0.0908
     65  CD       -31.0350    9.5430   70.7410 C.2   448  GLN448      0.2608
     66  OE1      -31.5530    9.0410   69.7440 O.2   448  GLN448     -0.2717
     67  NE2      -30.0640   10.4450   70.6660 N.am  448  GLN448     -0.0878
     68  N        -28.8170    6.9860   74.0390 N.am  449  PRO449     -0.2716
     69  CA       -28.3220    6.6650   75.3820 C.3   449  PRO449      0.1536
     70  C        -29.2170    7.2570   76.4680 C.2   449  PRO449      0.2598
     71  O        -28.7750    8.1140   77.2330 O.2   449  PRO449     -0.2715
     72  CB       -26.9350    7.3080   75.4010 C.3   449  PRO449      0.0310
     73  CG       -27.0690    8.4800   74.4840 C.3   449  PRO449      0.0237
     74  CD       -28.0240    8.0500   73.3980 C.3   449  PRO449      0.0939
     75  N        -30.4610    6.7880   76.5300 N.am  450  VAL450     -0.1964
     76  CA       -31.4710    7.3540   77.4200 C.3   450  VAL450      0.1727
     77  C        -31.0970    7.2850   78.9000 C.2   450  VAL450      0.2616
     78  O        -31.5620    8.1000   79.6950 O.2   450  VAL450     -0.2715
     79  CB       -32.8320    6.6540   77.2280 C.3   450  VAL450      0.0290
     80  CG1      -33.4370    7.0310   75.8860 C.3   450  VAL450      0.0023
     81  CG2      -32.6760    5.1460   77.3450 C.3   450  VAL450      0.0023
     82  N        -30.2620    6.3200   79.2700 N.am  451  PHE451     -0.1960
     83  CA       -29.8480    6.1790   80.6630 C.3   451  PHE451      0.1771
     84  C        -28.9400    7.3260   81.0910 C.2   451  PHE451      0.2619
     85  O        -29.1480    7.9310   82.1400 O.2   451  PHE451     -0.2715
     86  CB       -29.1440    4.8390   80.8930 C.3   451  PHE451      0.0574
     87  CG       -30.0850    3.6930   81.1390 C.ar  451  PHE451     -0.0200
     88  CD1      -31.4240    3.7890   80.7970 C.ar  451  PHE451     -0.0042
     89  CD2      -29.6320    2.5260   81.7310 C.ar  451  PHE451     -0.0042
     90  CE1      -32.2900    2.7380   81.0280 C.ar  451  PHE451     -0.0003
     91  CE2      -30.4930    1.4710   81.9660 C.ar  451  PHE451     -0.0003
     92  CZ       -31.8230    1.5760   81.6140 C.ar  451  PHE451     -0.0000
     93  N        -27.9340    7.6210   80.2740 N.am  452  ALA452     -0.1977
     94  CA       -27.0240    8.7230   80.5580 C.3   452  ALA452      0.1597
     95  C        -27.7570   10.0540   80.4660 C.2   452  ALA452      0.2287
     96  O        -27.4920   10.9740   81.2380 O.2   452  ALA452     -0.2864
     97  CB       -25.8480    8.7000   79.6070 C.3   452  ALA452      0.0319
     98  N        -25.8730   14.2500   74.5270 N.3   497  LEU497     -0.1245
     99  CA       -25.5150   12.8500   74.3380 C.3   497  LEU497      0.1561
    100  C        -26.4550   12.1930   73.3360 C.2   497  LEU497      0.2260
    101  O        -27.6530   12.0650   73.5880 O.2   497  LEU497     -0.2867
    102  CB       -25.5490   12.1020   75.6730 C.3   497  LEU497      0.0270
    103  CG       -24.6090   12.6310   76.7580 C.3   497  LEU497      0.0019
    104  CD1      -24.8140   11.8830   78.0630 C.3   497  LEU497      0.0001
    105  CD2      -23.1600   12.5350   76.3040 C.3   497  LEU497      0.0001
    106  N        -22.7600    9.2440   70.6620 N.3   501  ASP501     -0.1225
    107  CA       -22.1770    9.1490   71.9950 C.3   501  ASP501      0.1805
    108  C        -22.4130    7.7710   72.6060 C.2   501  ASP501      0.2597
    109  O        -21.7170    7.3670   73.5380 O.2   501  ASP501     -0.2718
    110  CB       -22.7490   10.2370   72.9040 C.3   501  ASP501      0.1424
    111  CG       -22.4310   11.6320   72.4080 C.2   501  ASP501      0.3668
    112  OD1      -21.3450   12.1500   72.7450 O.co2 501  ASP501     -0.2456
    113  OD2      -23.2630   12.2110   71.6790 O.co2 501  ASP501     -0.2456
    114  N        -23.3980    7.0570   72.0730 N.am  502  PHE502     -0.1976
    115  CA       -23.7030    5.7070   72.5250 C.3   502  PHE502      0.1639
    116  C        -22.6410    4.7280   72.0380 C.2   502  PHE502      0.2290
    117  O        -22.2650    3.7970   72.7510 O.2   502  PHE502     -0.2864
    118  CB       -25.0880    5.2790   72.0310 C.3   502  PHE502      0.0560
    119  CG       -25.5100    3.9140   72.4990 C.ar  502  PHE502     -0.0200
    120  CD1      -26.2030    3.7610   73.6880 C.ar  502  PHE502     -0.0042
    121  CD2      -25.2240    2.7860   71.7470 C.ar  502  PHE502     -0.0042
    122  CE1      -26.5960    2.5080   74.1200 C.ar  502  PHE502     -0.0003
    123  CE2      -25.6120    1.5310   72.1760 C.ar  502  PHE502     -0.0003
    124  CZ       -26.3020    1.3920   73.3620 C.ar  502  PHE502     -0.0000
    125  N        -18.8710    5.1570   73.7870 N.3   505  HIS505     -0.1226
    126  CA       -18.7970    4.6950   75.1670 C.3   505  HIS505      0.1752
    127  C        -18.6880    3.1780   75.2100 C.2   505  HIS505      0.2596
    128  O        -18.0840    2.6180   76.1230 O.2   505  HIS505     -0.2718
    129  CB       -20.0100    5.1630   75.9700 C.3   505  HIS505      0.0759
    130  CG       -19.9300    6.5930   76.4080 C.ar  505  HIS505      0.0818
    131  ND1      -20.2020    7.6470   75.5620 N.ar  505  HIS505     -0.2268
    132  CD2      -19.6060    7.1430   77.6020 C.ar  505  HIS505      0.1154
    133  CE1      -20.0510    8.7840   76.2170 C.ar  505  HIS505      0.1986
    134  NE2      -19.6900    8.5060   77.4570 N.ar  505  HIS505     -0.2212
    135  N        -19.2710    2.5720   74.2120 N.am  506  HIS506     -0.1975
    136  CA       -19.2590    1.1590   74.1220 C.3   506  HIS506      0.1656
    137  C        -17.9420    0.6970   73.5720 C.2   506  HIS506      0.2291
    138  O        -17.6360   -0.4700   73.6140 O.2   506  HIS506     -0.2864
    139  CB       -20.4670    0.7020   73.3260 C.3   506  HIS506      0.0771
    140  CG       -21.7230    0.6950   74.1330 C.ar  506  HIS506      0.0820
    141  ND1      -22.4110    1.8400   74.4430 N.ar  506  HIS506     -0.2267
    142  CD2      -22.3820   -0.3120   74.7410 C.ar  506  HIS506      0.1154
    143  CE1      -23.4510    1.5370   75.1930 C.ar  506  HIS506      0.1986
    144  NE2      -23.4530    0.2360   75.3910 N.ar  506  HIS506     -0.2212
    145  N        -15.1990    2.1620   74.7190 N.3   508  HIS508     -0.1226
    146  CA       -14.3790    2.3150   75.8820 C.3   508  HIS508      0.1752
    147  C        -14.6620    1.1880   76.8050 C.2   508  HIS508      0.2595
    148  O        -13.8290    0.8140   77.5800 O.2   508  HIS508     -0.2718
    149  CB       -14.6980    3.6180   76.5680 C.3   508  HIS508      0.0759
    150  CG       -14.4500    4.8190   75.7210 C.ar  508  HIS508      0.0818
    151  ND1      -14.8750    6.0720   76.0750 N.ar  508  HIS508     -0.2268
    152  CD2      -13.8250    4.9570   74.5370 C.ar  508  HIS508      0.1154
    153  CE1      -14.5160    6.9330   75.1470 C.ar  508  HIS508      0.1986
    154  NE2      -13.8780    6.2810   74.2030 N.ar  508  HIS508     -0.2212
    155  N        -15.8540    0.6380   76.7190 N.am  509  ALA509     -0.1980
    156  CA       -16.2350   -0.4840   77.5390 C.3   509  ALA509      0.1597
    157  C        -15.4280   -1.6370   77.0640 C.2   509  ALA509      0.2287
    158  O        -14.9110   -2.4110   77.8210 O.2   509  ALA509     -0.2864
    159  CB       -17.6930   -0.7760   77.3280 C.3   509  ALA509      0.0319
    160  N        -12.2060   -3.6660   78.7940 N.3   513  HIS513     -0.1241
    161  CA       -12.4460   -5.0730   79.1180 C.3   513  HIS513      0.1621
    162  C        -11.3710   -5.9930   78.5530 C.2   513  HIS513      0.2264
    163  O        -10.9500   -6.9460   79.2100 O.2   513  HIS513     -0.2867
    164  CB       -13.8190   -5.5140   78.6060 C.3   513  HIS513      0.0745
    165  CG       -14.9640   -4.9460   79.3830 C.ar  513  HIS513      0.0817
    166  ND1      -15.1910   -3.5920   79.4960 N.ar  513  HIS513     -0.2268
    167  CD2      -15.9490   -5.5520   80.0880 C.ar  513  HIS513      0.1154
    168  CE1      -16.2660   -3.3860   80.2340 C.ar  513  HIS513      0.1986
    169  NE2      -16.7470   -4.5590   80.6060 N.ar  513  HIS513     -0.2212
@<TRIPOS>BOND
     1    51    52    1
     2    41    42    1
     3    42    43    1
     4    42    45    1
     5    55    52    1
     6    55    56    1
     7    43    44    2
     8    52    53    1
     9    58    56    1
    10    66    65    2
    11    49    47   ar
    12    49    50   ar
    13    47    46   ar
    14    57    56    1
    15    50    48   ar
    16    46    48   ar
    17    46    45    1
    18    53    54    2
    19    53    59   am
    20   106   107    1
    21    67    65   am
    22    65    64    1
    23    36    35    2
    24    59    60    1
    25    25    24    2
    26   113   111   ar
    27    35    34    1
    28   121   123   ar
    29   121   119   ar
    30   107   108    1
    31   107   110    1
    32   118   119    1
    33   118   115    1
    34   116   115    1
    35   116   117    2
    36   114   115    1
    37   114   108   am
    38    60    63    1
    39    60    61    1
    40    64    63    1
    41   123   124   ar
    42    24    23    1
    43    24    33   am
    44    23    22    1
    45    23    26    1
    46   111   112   ar
    47   111   110    1
    48   119   120   ar
    49   108   109    2
    50    34    33    1
    51    34    37    1
    52    28    30   ar
    53    28    27   ar
    54    30    32   ar
    55   139   136    1
    56   139   140    1
    57   100   101    2
    58   100    99    1
    59   124   122   ar
    60    74    68    1
    61    74    73    1
    62    61    62    2
    63    61    68   am
    64   137   138    2
    65   137   136    1
    66    26    27    1
    67   120   122   ar
    68   125   126    1
    69    27    29   ar
    70    68    69    1
    71   136   135    1
    72   140   141   ar
    73   140   142   ar
    74    32    31   ar
    75   154   152   ar
    76   154   153   ar
    77    37    38    1
    78   135   127   am
    79    99    98    1
    80    99   102    1
    81   141   143   ar
    82    73    72    1
    83     9     7   ar
    84     9    10   ar
    85   152   150   ar
    86     4     3    2
    87     7     6   ar
    88    29    31   ar
    89   145   146    1
    90   142   144   ar
    91   153   151   ar
    92   126   127    1
    93   126   129    1
    94   143   144   ar
    95    18    17    2
    96   127   128    2
    97    69    72    1
    98    69    70    1
    99    40    38    1
   100    38    39    1
   101   131   133   ar
   102   131   130   ar
   103     3     2    1
   104     3    15   am
   105     2     5    1
   106     2     1    1
   107   102   103    1
   108    10    12   ar
   109    10     8   ar
   110   150   151   ar
   111   150   149    1
   112     6     5    1
   113     6     8   ar
   114    17    16    1
   115   146   149    1
   116   146   147    1
   117    80    79    1
   118   129   130    1
   119    12    14   ar
   120   133   134   ar
   121   105   103    1
   122   130   132   ar
   123    70    75   am
   124    70    71    2
   125    75    76    1
   126     8    11   ar
   127   155   147   am
   128   155   156    1
   129    15    16    1
   130   103   104    1
   131   147   148    2
   132    16    19    1
   133   157   156    1
   134   157   158    2
   135    79    81    1
   136    79    76    1
   137   159   156    1
   138    14    13   ar
   139    76    77    1
   140   134   132   ar
   141    11    13   ar
   142    19    20    1
   143    19    21    1
   144   162   161    1
   145   162   163    2
   146   164   161    1
   147   164   165    1
   148   160   161    1
   149    77    82   am
   150    77    78    2
   151    82    83    1
   152   165   166   ar
   153   165   167   ar
   154   166   168   ar
   155    97    94    1
   156   167   169   ar
   157   168   169   ar
   158    93    94    1
   159    93    84   am
   160    95    94    1
   161    95    96    2
   162    83    86    1
   163    83    84    1
   164    88    90   ar
   165    88    87   ar
   166    86    87    1
   167    90    92   ar
   168    84    85    2
   169    87    89   ar
   170    92    91   ar
   171    89    91   ar
