@<TRIPOS>MOLECULE
tmp/4rkuO03.pdb
 110 100 0 0 0
SMALL
GASTEIGER

@<TRIPOS>ATOM
      1  N         52.5170   35.0000   96.9210 N.3    56  MET56      -0.1230
      2  CA        53.3300   35.9290   97.6800 C.3    56  MET56       0.1702
      3  C         53.5650   37.1260   96.8180 C.2    56  MET56       0.2592
      4  O         53.1350   38.2170   97.1690 O.2    56  MET56      -0.2718
      5  CB        54.6360   35.3040   98.1610 C.3    56  MET56       0.0401
      6  CG        55.7600   35.2150   97.1500 C.3    56  MET56       0.0596
      7  SD        57.0070   33.9720   97.5990 S.3    56  MET56      -0.1393
      8  CE        56.7000   33.7340   99.3510 C.3    56  MET56       0.0692
      9  N         54.2170   36.9200   95.6830 N.am   57  LEU57      -0.1980
     10  CA        54.4790   38.0100   94.7640 C.3    57  LEU57       0.1596
     11  C         53.2100   38.8170   94.5490 C.2    57  LEU57       0.2287
     12  O         53.2370   40.0370   94.6750 O.2    57  LEU57      -0.2864
     13  CB        55.0560   37.4920   93.4590 C.3    57  LEU57       0.0297
     14  CG        56.5440   37.1970   93.5470 C.3    57  LEU57       0.0022
     15  CD1       56.8290   36.3930   94.7840 C.3    57  LEU57       0.0001
     16  CD2       57.0240   36.4470   92.3270 C.3    57  LEU57       0.0001
     17  N         51.0650   39.4280   96.4290 N.3    59  ALA59      -0.1231
     18  CA        50.9390   40.2370   97.6040 C.3    59  ALA59       0.1694
     19  C         51.8520   41.4150   97.3860 C.2    59  ALA59       0.2591
     20  O         51.5380   42.5410   97.7280 O.2    59  ALA59      -0.2718
     21  CB        51.3810   39.4450   98.8160 C.3    59  ALA59       0.0304
     22  N         52.9950   41.1420   96.7920 N.am   60  ALA60      -0.1980
     23  CA        53.9830   42.1870   96.5540 C.3    60  ALA60       0.1597
     24  C         53.4160   43.1790   95.5460 C.2    60  ALA60       0.2287
     25  O         54.0840   44.1310   95.1410 O.2    60  ALA60      -0.2864
     26  CB        55.2930   41.5980   96.0600 C.3    60  ALA60       0.0319
     27  N         50.3610   44.3770   96.3810 N.3    62  ILE62      -0.1245
     28  CA        49.5200   45.1200   97.3190 C.3    62  ILE62       0.1561
     29  C         50.4740   46.0100   98.0970 C.2    62  ILE62       0.2260
     30  O         50.0770   46.9020   98.8280 O.2    62  ILE62      -0.2867
     31  CB        48.7540   44.1880   98.2890 C.3    62  ILE62       0.0252
     32  CG1       47.6130   44.9190   98.9790 C.3    62  ILE62       0.0019
     33  CG2       49.6540   43.6000   99.3640 C.3    62  ILE62       0.0019
     34  CD1       46.6870   43.9940   99.7390 C.3    62  ILE62       0.0001
     35  N         57.1410   28.6220  105.3680 N.3   110  GLU110     -0.1245
     36  CA        56.9340   29.1060  104.0160 C.3   110  GLU110      0.1567
     37  C         55.5140   28.8580  103.5310 C.2   110  GLU110      0.2260
     38  O         54.9110   29.7170  102.9360 O.2   110  GLU110     -0.2867
     39  CB        57.8900   28.4140  103.0720 C.3   110  GLU110      0.0388
     40  CG        57.7930   28.8670  101.6320 C.3   110  GLU110      0.1160
     41  CD        58.9790   28.4200  100.8090 C.2   110  GLU110      0.3649
     42  OE1       59.8100   27.6760  101.3280 O.co2 110  GLU110     -0.2457
     43  OE2       59.1150   28.8130   99.6480 O.co2 110  GLU110     -0.2457
     44  N         52.6670   31.1970  105.3620 N.3   113  ASN113     -0.1240
     45  CA        52.5860   32.5650  104.9150 C.3   113  ASN113      0.1653
     46  C         51.9660   32.5240  103.5370 C.2   113  ASN113      0.2266
     47  O         51.0560   33.2700  103.2200 O.2   113  ASN113     -0.2867
     48  CB        53.9780   33.1780  104.8520 C.3   113  ASN113      0.1155
     49  CG        54.7890   32.6570  103.6940 C.2   113  ASN113      0.2627
     50  OD1       54.4490   32.9010  102.5350 O.2   113  ASN113     -0.2716
     51  ND2       55.8360   31.9080  103.9930 N.am  113  ASN113     -0.0877
     52  N         48.6430   32.2960  103.2810 N.3   116  LEU116     -0.1231
     53  CA        48.0360   33.5810  103.5510 C.3   116  LEU116      0.1693
     54  C         47.7760   34.4420  102.3510 C.2   116  LEU116      0.2591
     55  O         46.7110   35.0120  102.2330 O.2   116  LEU116     -0.2718
     56  CB        48.9330   34.3560  104.4940 C.3   116  LEU116      0.0284
     57  CG        48.2800   35.4380  105.3340 C.3   116  LEU116      0.0019
     58  CD1       47.1410   34.8570  106.1420 C.3   116  LEU116      0.0001
     59  CD2       49.3160   36.0450  106.2530 C.3   116  LEU116      0.0001
     60  N         48.7310   34.5260  101.4480 N.am  117  ALA117     -0.1980
     61  CA        48.5530   35.3800  100.2930 C.3   117  ALA117      0.1597
     62  C         47.3880   34.9400   99.4560 C.2   117  ALA117      0.2287
     63  O         46.5780   35.7550   99.0180 O.2   117  ALA117     -0.2864
     64  CB        49.8080   35.3970   99.4470 C.3   117  ALA117      0.0319
     65  N         44.5940   35.8430  100.9090 N.3   120  ALA120     -0.1245
     66  CA        44.6640   37.2810  100.7870 C.3   120  ALA120      0.1562
     67  C         44.3550   37.7470   99.3900 C.2   120  ALA120      0.2260
     68  O         43.3480   38.3990   99.1590 O.2   120  ALA120     -0.2867
     69  CB        46.0330   37.7660  101.1840 C.3   120  ALA120      0.0290
     70  N         40.8180   37.4240   98.7070 N.3   123  GLY123     -0.1210
     71  CA        40.0080   38.4390   99.3630 C.3   123  GLY123      0.1956
     72  C         39.8790   39.8440   98.7870 C.2   123  GLY123      0.2611
     73  O         38.8030   40.4420   98.8200 O.2   123  GLY123     -0.2717
     74  N         40.9850   40.3750   98.2770 N.am  124  ALA124     -0.1979
     75  CA        41.0650   41.7350   97.7570 C.3   124  ALA124      0.1597
     76  C         40.2290   41.9350   96.4940 C.2   124  ALA124      0.2287
     77  O         39.8860   43.0660   96.1510 O.2   124  ALA124     -0.2864
     78  CB        42.5210   42.1100   97.4920 C.3   124  ALA124      0.0319
     79  N         36.1090   41.3070   96.8700 N.3   127  GLN127     -0.1245
     80  CA        35.6750   42.4220   97.6650 C.3   127  GLN127      0.1566
     81  C         35.6900   43.5680   96.6670 C.2   127  GLN127      0.2260
     82  O         34.9600   44.5380   96.8020 O.2   127  GLN127     -0.2867
     83  CB        36.5940   42.6530   98.8610 C.3   127  GLN127      0.0367
     84  CG        37.7540   43.5980   98.6400 C.3   127  GLN127      0.0905
     85  CD        38.3490   44.0580   99.9550 C.2   127  GLN127      0.2608
     86  OE1       38.6270   43.2470  100.8320 O.2   127  GLN127     -0.2717
     87  NE2       38.5330   45.3650  100.1030 N.am  127  GLN127     -0.0878
     88  N         41.1330   48.3950   97.9970 N.3   135  PRO135     -0.2116
     89  CA        41.2910   48.0270   99.4010 C.3   135  PRO135      0.1372
     90  C         42.3340   48.8690  100.0490 C.2   135  PRO135      0.2244
     91  O         42.5020   48.8120  101.2630 O.2   135  PRO135     -0.2868
     92  CB        41.8640   46.6340   99.2920 C.3   135  PRO135      0.0268
     93  CG        42.8710   46.7710   98.2050 C.3   135  PRO135      0.0207
     94  CD        42.3320   47.7960   97.2540 C.3   135  PRO135      0.0892
     95  N         41.2050   50.7310  103.2480 N.3   138  ASN138     -0.1225
     96  CA        40.1070   50.1220  103.9870 C.3   138  ASN138      0.1785
     97  C         40.4410   49.6910  105.4080 C.2   138  ASN138      0.2597
     98  O         39.5670   49.6600  106.2770 O.2   138  ASN138     -0.2718
     99  CB        39.6050   48.9190  103.1830 C.3   138  ASN138      0.1169
    100  CG        38.3410   48.3150  103.7470 C.2   138  ASN138      0.2627
    101  OD1       38.3840   47.5090  104.6750 O.2   138  ASN138     -0.2716
    102  ND2       37.2040   48.6800  103.1660 N.am  138  ASN138     -0.0877
    103  N         41.7100   49.3630  105.6240 N.am  139  LEU139     -0.1980
    104  CA        42.2100   48.8980  106.9140 C.3   139  LEU139      0.1596
    105  C         41.7750   49.7890  108.0710 C.2   139  LEU139      0.2287
    106  O         41.2460   49.3040  109.0720 O.2   139  LEU139     -0.2864
    107  CB        43.7350   48.8090  106.8800 C.3   139  LEU139      0.0297
    108  CG        44.3320   47.6910  106.0250 C.3   139  LEU139      0.0022
    109  CD1       45.8340   47.8530  106.0000 C.3   139  LEU139      0.0001
    110  CD2       43.9900   46.3250  106.5620 C.3   139  LEU139      0.0001
@<TRIPOS>BOND
     1    16    14    1
     2    13    14    1
     3    13    10    1
     4    14    15    1
     5    11    12    2
     6    11    10    1
     7    10     9    1
     8    25    24    2
     9    24    23    1
    10     9     3   am
    11    26    23    1
    12    77    76    2
    13    27    28    1
    14    17    18    1
    15    76    75    1
    16    23    22    1
    17    81    82    2
    18    81    80    1
    19    22    19   am
    20     3     4    2
    21     3     2    1
    22    79    80    1
    23     1     2    1
    24     6     7    1
    25     6     5    1
    26    94    88    1
    27    94    93    1
    28    28    29    1
    29    28    31    1
    30    19    18    1
    31    19    20    2
    32    78    75    1
    33     7     8    1
    34    18    21    1
    35    80    83    1
    36     2     5    1
    37    75    74    1
    38    88    89    1
    39    29    30    2
    40    93    92    1
    41    74    72   am
    42    31    32    1
    43    31    33    1
    44    84    83    1
    45    84    85    1
    46    70    71    1
    47    72    73    2
    48    72    71    1
    49    32    34    1
    50    63    62    2
    51    68    67    2
    52    92    89    1
    53    67    66    1
    54    89    90    1
    55    64    61    1
    56    62    61    1
    57    43    41   ar
    58    85    87   am
    59    85    86    2
    60    90    91    2
    61    61    60    1
    62    66    65    1
    63    66    69    1
    64    41    42   ar
    65    41    40    1
    66    60    54   am
    67    40    39    1
    68    55    54    2
    69    54    53    1
    70    50    49    2
    71    38    37    2
    72    39    36    1
    73   102   100   am
    74    99   100    1
    75    99    96    1
    76    47    46    2
    77    95    96    1
    78    52    53    1
    79    37    36    1
    80    46    45    1
    81    53    56    1
    82    49    51   am
    83    49    48    1
    84   100   101    2
    85    96    97    1
    86    36    35    1
    87    56    57    1
    88    48    45    1
    89    45    44    1
    90    57    58    1
    91    57    59    1
    92    97   103   am
    93    97    98    2
    94   103   104    1
    95   109   108    1
    96   108   110    1
    97   108   107    1
    98   107   104    1
    99   104   105    1
   100   105   106    2
