@<TRIPOS>MOLECULE
tmp/4rkuP12.pdb
 161 156 0 0 0
SMALL
GASTEIGER

@<TRIPOS>ATOM
      1  N         19.5680   26.6690  130.8820 N.3    26  ARG26      -0.1231
      2  CA        20.4190   27.7860  131.2830 C.3    26  ARG26       0.1694
      3  C         20.3850   29.1020  130.5150 C.2    26  ARG26       0.2592
      4  O         20.6110   30.1630  131.0820 O.2    26  ARG26      -0.2718
      5  CB        21.8710   27.3020  131.3330 C.3    26  ARG26       0.0321
      6  CG        22.0290   25.8320  131.6960 C.3    26  ARG26       0.0489
      7  CD        23.1150   25.1650  130.8730 C.3    26  ARG26       0.2205
      8  NE        24.2680   24.8100  131.6900 N.pl3  26  ARG26      -0.0865
      9  CZ        24.3830   23.6720  132.3550 C.cat  26  ARG26       0.5346
     10  NH1       24.9580   22.6260  131.7830 N.pl3  26  ARG26       0.1354
     11  NH2       23.9220   23.5820  133.5890 N.pl3  26  ARG26       0.1354
     12  N         20.1400   29.0570  129.2280 N.am   27  PHE27      -0.1976
     13  CA        20.0830   30.2960  128.4580 C.3    27  PHE27       0.1639
     14  C         18.6610   30.7190  128.1260 C.2    27  PHE27       0.2290
     15  O         18.4480   31.7810  127.5440 O.2    27  PHE27      -0.2864
     16  CB        20.9230   30.2030  127.1730 C.3    27  PHE27       0.0560
     17  CG        20.5540   29.0590  126.2470 C.ar   27  PHE27      -0.0200
     18  CD1       19.3340   29.0270  125.5800 C.ar   27  PHE27      -0.0042
     19  CD2       21.4690   28.0500  125.9900 C.ar   27  PHE27      -0.0042
     20  CE1       19.0160   27.9880  124.7120 C.ar   27  PHE27      -0.0003
     21  CE2       21.1540   27.0090  125.1150 C.ar   27  PHE27      -0.0003
     22  CZ        19.9270   26.9840  124.4800 C.ar   27  PHE27      -0.0000
     23  N         17.1580   30.7060  130.7830 N.3    29  MET29      -0.1230
     24  CA        17.3010   31.3510  132.0800 C.3    29  MET29       0.1702
     25  C         18.0420   32.6860  131.9770 C.2    29  MET29       0.2592
     26  O         17.5310   33.7130  132.4230 O.2    29  MET29      -0.2718
     27  CB        18.0310   30.4210  133.0520 C.3    29  MET29       0.0401
     28  CG        18.4080   31.0780  134.3660 C.3    29  MET29       0.0596
     29  SD        16.9790   31.7720  135.2190 S.3    29  MET29      -0.1393
     30  CE        17.7710   32.6260  136.5780 C.3    29  MET29       0.0692
     31  N         19.2430   32.6730  131.3980 N.am   30  LEU30      -0.1980
     32  CA        20.0040   33.9100  131.2190 C.3    30  LEU30       0.1596
     33  C         19.2960   34.8040  130.2130 C.2    30  LEU30       0.2287
     34  O         19.3740   36.0310  130.2870 O.2    30  LEU30      -0.2864
     35  CB        21.4460   33.6260  130.7650 C.3    30  LEU30       0.0297
     36  CG        21.7800   33.1640  129.3390 C.3    30  LEU30       0.0022
     37  CD1       21.9250   34.3150  128.3450 C.3    30  LEU30       0.0001
     38  CD2       23.0420   32.3160  129.3460 C.3    30  LEU30       0.0001
     39  N         15.7460   36.6600  132.2760 N.3    33  VAL33      -0.1245
     40  CA        16.0590   37.7700  133.1750 C.3    33  VAL33       0.1561
     41  C         16.9310   38.8090  132.4760 C.2    33  VAL33       0.2260
     42  O         16.8250   40.0080  132.7410 O.2    33  VAL33      -0.2867
     43  CB        16.7540   37.2670  134.4680 C.3    33  VAL33       0.0252
     44  CG1       18.0450   38.0360  134.7570 C.3    33  VAL33       0.0019
     45  CG2       15.7980   37.3540  135.6460 C.3    33  VAL33       0.0019
     46  N         29.0740   18.1310  132.9690 N.3    94  PHE94      -0.1227
     47  CA        29.3830   19.4110  133.6040 C.3    94  PHE94       0.1736
     48  C         30.8820   19.6090  133.8460 C.2    94  PHE94       0.2595
     49  O         31.5870   18.6680  134.2050 O.2    94  PHE94      -0.2718
     50  CB        28.6120   19.5300  134.9160 C.3    94  PHE94       0.0547
     51  CG        27.1670   19.1350  134.8020 C.ar   94  PHE94      -0.0202
     52  CD1       26.8130   17.8120  134.6130 C.ar   94  PHE94      -0.0042
     53  CD2       26.1660   20.0860  134.8720 C.ar   94  PHE94      -0.0042
     54  CE1       25.4860   17.4430  134.5040 C.ar   94  PHE94      -0.0003
     55  CE2       24.8370   19.7240  134.7660 C.ar   94  PHE94      -0.0003
     56  CZ        24.4960   18.4000  134.5810 C.ar   94  PHE94      -0.0000
     57  N         31.3620   20.8370  133.6650 N.am   95  PHE95      -0.1962
     58  CA        32.7760   21.1420  133.8740 C.3    95  PHE95       0.1771
     59  C         32.9430   22.3920  134.7290 C.2    95  PHE95       0.2619
     60  O         33.3710   23.4380  134.2440 O.2    95  PHE95      -0.2715
     61  CB        33.4750   21.3410  132.5330 C.3    95  PHE95       0.0574
     62  CG        32.9780   20.4270  131.4510 C.ar   95  PHE95      -0.0200
     63  CD1       31.7690   20.6760  130.8220 C.ar   95  PHE95      -0.0042
     64  CD2       33.7140   19.3190  131.0660 C.ar   95  PHE95      -0.0042
     65  CE1       31.3050   19.8390  129.8260 C.ar   95  PHE95      -0.0003
     66  CE2       33.2570   18.4780  130.0690 C.ar   95  PHE95      -0.0003
     67  CZ        32.0500   18.7390  129.4480 C.ar   95  PHE95      -0.0000
     68  N         32.5960   22.2730  136.0040 N.am   96  ASN96      -0.1972
     69  CA        32.6710   23.3810  136.9520 C.3    96  ASN96       0.1688
     70  C         34.0630   23.9480  137.2460 C.2    96  ASN96       0.2292
     71  O         34.2270   25.1630  137.3920 O.2    96  ASN96      -0.2864
     72  CB        31.9890   22.9830  138.2640 C.3    96  ASN96       0.1181
     73  CG        32.3620   21.5820  138.7110 C.2    96  ASN96       0.2629
     74  OD1       32.7800   20.7520  137.9040 O.2    96  ASN96      -0.2716
     75  ND2       32.2090   21.3120  140.0030 N.am   96  ASN96      -0.0877
     76  N         34.5770   28.6690  137.3560 N.3   100  PHE100     -0.1241
     77  CA        33.6980   28.9480  138.4740 C.3   100  PHE100      0.1605
     78  C         34.5220   29.3320  139.6910 C.2   100  PHE100      0.2264
     79  O         34.1370   29.0550  140.8220 O.2   100  PHE100     -0.2867
     80  CB        32.8150   27.7390  138.7710 C.3   100  PHE100      0.0534
     81  CG        31.8020   27.4790  137.7080 C.ar  100  PHE100     -0.0203
     82  CD1       30.5770   28.1150  137.7460 C.ar  100  PHE100     -0.0042
     83  CD2       32.0850   26.6330  136.6490 C.ar  100  PHE100     -0.0042
     84  CE1       29.6410   27.8990  136.7630 C.ar  100  PHE100     -0.0003
     85  CE2       31.1500   26.4130  135.6590 C.ar  100  PHE100     -0.0003
     86  CZ        29.9260   27.0480  135.7180 C.ar  100  PHE100     -0.0000
     87  N         34.4840   27.6740  143.8540 N.3   103  ASP103     -0.1225
     88  CA        33.3490   26.9980  144.4740 C.3   103  ASP103      0.1805
     89  C         33.4280   25.4760  144.4820 C.2   103  ASP103      0.2598
     90  O         33.8720   24.8990  145.4710 O.2   103  ASP103     -0.2718
     91  CB        32.0580   27.4440  143.7860 C.3   103  ASP103      0.1424
     92  CG        31.8860   28.9470  143.8240 C.2   103  ASP103      0.3668
     93  OD1       32.5480   29.5780  144.6770 O.co2 103  ASP103     -0.2456
     94  OD2       31.1180   29.5020  143.0140 O.co2 103  ASP103     -0.2456
     95  N         32.9910   24.8420  143.3930 N.am  104  GLU104     -0.1965
     96  CA        32.8500   23.3800  143.3120 C.3   104  GLU104      0.1733
     97  C         31.8080   22.8660  144.3040 C.2   104  GLU104      0.2616
     98  O         32.0620   22.8220  145.5060 O.2   104  GLU104     -0.2715
     99  CB        34.1950   22.6840  143.5420 C.3   104  GLU104      0.0429
    100  CG        34.9840   22.4750  142.2720 C.3   104  GLU104      0.1163
    101  CD        35.7820   23.7000  141.8870 C.2   104  GLU104      0.3649
    102  OE1       35.3580   24.8230  142.2300 O.co2 104  GLU104     -0.2457
    103  OE2       36.8480   23.5410  141.2600 O.co2 104  GLU104     -0.2457
    104  N         30.6380   22.4630  143.8140 N.am  105  LYS105     -0.1963
    105  CA        29.4990   22.3310  144.7160 C.3   105  LYS105      0.1728
    106  C         28.2140   21.6460  144.1420 C.2   105  LYS105      0.2616
    107  O         27.1320   22.2730  144.1970 O.2   105  LYS105     -0.2715
    108  CB        29.1330   23.7490  145.2020 C.3   105  LYS105      0.0311
    109  CG        29.0240   24.7620  144.0330 C.3   105  LYS105      0.0038
    110  CD        28.3630   26.1040  144.3810 C.3   105  LYS105      0.0206
    111  CE        29.0840   26.7880  145.5310 C.3   105  LYS105      0.1093
    112  NZ        29.0020   28.2780  145.4770 N.3   105  LYS105     -0.1314
    113  N         28.3050   20.4000  143.6280 N.am  106  SER106     -0.1950
    114  CA        27.1100   19.8590  142.9140 C.3   106  SER106      0.1924
    115  C         26.6320   18.4120  143.2140 C.2   106  SER106      0.2314
    116  O         27.3410   17.4520  142.8970 O.2   106  SER106     -0.2863
    117  CB        27.3150   20.0140  141.3910 C.3   106  SER106      0.2116
    118  OG        28.4480   19.3170  140.8860 O.3   106  SER106     -0.2180
    119  N         20.7440   20.4010  143.4040 N.3   110  LEU110     -0.1231
    120  CA        20.6410   21.7060  142.7440 C.3   110  LEU110      0.1693
    121  C         20.3870   21.4940  141.2450 C.2   110  LEU110      0.2591
    122  O         19.4650   22.0770  140.6860 O.2   110  LEU110     -0.2718
    123  CB        21.8840   22.5680  142.9690 C.3   110  LEU110      0.0284
    124  CG        22.3490   22.6330  144.4250 C.3   110  LEU110      0.0019
    125  CD1       23.3740   23.7190  144.5220 C.3   110  LEU110      0.0001
    126  CD2       21.2130   22.8930  145.4180 C.3   110  LEU110      0.0001
    127  N         21.1930   20.6470  140.6060 N.am  111  LYS111     -0.1980
    128  CA        21.0140   20.2710  139.2100 C.3   111  LYS111      0.1596
    129  C         19.5680   19.8720  138.9160 C.2   111  LYS111      0.2287
    130  O         19.0350   20.2000  137.8580 O.2   111  LYS111     -0.2864
    131  CB        21.9790   19.1330  138.8410 C.3   111  LYS111      0.0298
    132  CG        21.3220   17.9000  138.2420 C.3   111  LYS111      0.0038
    133  CD        22.3310   17.0570  137.4800 C.3   111  LYS111      0.0206
    134  CE        21.6730   15.8630  136.8050 C.3   111  LYS111      0.1093
    135  NZ        21.2790   14.8160  137.7910 N.3   111  LYS111     -0.1314
    136  N         17.1210   21.0650  140.6060 N.3   113  LYS113     -0.1231
    137  CA        16.4220   22.3340  140.7780 C.3   113  LYS113      0.1693
    138  C         16.8910   23.3260  139.7130 C.2   113  LYS113      0.2591
    139  O         16.2040   24.3010  139.4130 O.2   113  LYS113     -0.2718
    140  CB        16.6540   22.8960  142.1840 C.3   113  LYS113      0.0285
    141  CG        16.2630   22.0680  143.3650 C.3   113  LYS113      0.0035
    142  CD        16.7200   22.7970  144.6290 C.3   113  LYS113      0.0206
    143  CE        16.6680   21.8720  145.8370 C.3   113  LYS113      0.1093
    144  NZ        17.4330   20.5850  145.6150 N.3   113  LYS113     -0.1314
    145  N         18.0620   23.0670  139.1360 N.am  114  GLU114     -0.1979
    146  CA        18.5560   23.9010  138.0460 C.3   114  GLU114      0.1602
    147  C         17.9300   23.4670  136.7330 C.2   114  GLU114      0.2287
    148  O         17.8340   24.2500  135.7870 O.2   114  GLU114     -0.2864
    149  CB        20.0800   23.8480  137.9440 C.3   114  GLU114      0.0415
    150  CG        20.6990   24.7490  136.8730 C.3   114  GLU114      0.1163
    151  CD        22.2220   24.7080  136.8300 C.2   114  GLU114      0.3649
    152  OE1       22.8420   23.9490  137.6080 O.co2 114  GLU114     -0.2457
    153  OE2       22.8050   25.4570  136.0190 O.co2 114  GLU114     -0.2457
    154  N         14.3660   24.9530  137.6250 N.3   117  ASN117     -0.1240
    155  CA        14.4330   26.3490  137.1980 C.3   117  ASN117      0.1653
    156  C         14.4980   26.3800  135.6880 C.2   117  ASN117      0.2266
    157  O         14.0020   27.3040  135.0430 O.2   117  ASN117     -0.2867
    158  CB        15.6520   27.0630  137.7960 C.3   117  ASN117      0.1155
    159  CG        15.8680   28.4560  137.2140 C.2   117  ASN117      0.2627
    160  OD1       14.9160   29.1950  136.9600 O.2   117  ASN117     -0.2716
    161  ND2       17.1300   28.8170  136.9990 N.am  117  ASN117     -0.0877
@<TRIPOS>BOND
     1    22    20   ar
     2    22    21   ar
     3    20    18   ar
     4    21    19   ar
     5    18    17   ar
     6    19    17   ar
     7    17    16    1
     8    16    13    1
     9    15    14    2
    10    14    13    1
    11    37    36    1
    12    13    12    1
    13    12     3   am
    14    36    38    1
    15    36    35    1
    16    67    65   ar
    17    67    66   ar
    18    65    63   ar
    19    66    64   ar
    20    33    34    2
    21    33    32    1
    22     3     4    2
    23     3     2    1
    24    35    32    1
    25    23    24    1
    26    63    62   ar
    27     7     8    1
    28     7     6    1
    29     1     2    1
    30    64    62   ar
    31    32    31    1
    32     2     5    1
    33     5     6    1
    34    31    25   am
    35    62    61    1
    36     8     9    2
    37    10     9    1
    38    25    24    1
    39    25    26    2
    40    24    27    1
    41    39    40    1
    42     9    11    1
    43    41    42    2
    44    41    40    1
    45    61    58    1
    46    46    47    1
    47    27    28    1
    48    40    43    1
    49    47    48    1
    50    47    50    1
    51    57    48   am
    52    57    58    1
    53    48    49    2
    54    58    59    1
    55    60    59    2
    56    28    29    1
    57    43    44    1
    58    43    45    1
    59    54    56   ar
    60    54    52   ar
    61    56    55   ar
    62    52    51   ar
    63    59    68   am
    64    55    53   ar
    65    51    53   ar
    66    51    50    1
    67   157   156    2
    68    29    30    1
    69    85    86   ar
    70    85    83   ar
    71   156   155    1
    72    86    84   ar
    73   148   147    2
    74    68    69    1
    75   153   151   ar
    76    83    81   ar
    77   147   146    1
    78    84    82   ar
    79   134   133    1
    80   134   135    1
    81   151   150    1
    82   151   152   ar
    83   150   149    1
    84    69    70    1
    85    69    72    1
    86   160   159    2
    87   161   159   am
    88   155   154    1
    89   155   158    1
    90   159   158    1
    91    70    71    2
    92    76    77    1
    93   133   132    1
    94    81    82   ar
    95    81    80    1
    96   130   129    2
    97    74    73    2
    98   149   146    1
    99   146   145    1
   100   132   131    1
   101    72    73    1
   102    77    80    1
   103    77    78    1
   104    73    75   am
   105   131   128    1
   106   129   128    1
   107   145   138   am
   108   128   127    1
   109   139   138    2
   110    78    79    2
   111   138   137    1
   112   136   137    1
   113   127   121   am
   114   122   121    2
   115   137   140    1
   116   118   117    1
   117   121   120    1
   118   103   101   ar
   119   117   114    1
   120   101   102   ar
   121   101   100    1
   122   140   141    1
   123   100    99    1
   124   120   123    1
   125   120   119    1
   126   116   115    2
   127   114   115    1
   128   114   113    1
   129   123   124    1
   130    94    92   ar
   131    96    95    1
   132    96    99    1
   133    96    97    1
   134   141   142    1
   135    95    89   am
   136   113   106   am
   137    91    92    1
   138    91    88    1
   139   104    97   am
   140   104   105    1
   141    92    93   ar
   142    87    88    1
   143   109   110    1
   144   109   108    1
   145   106   107    2
   146   106   105    1
   147    97    98    2
   148   110   111    1
   149   124   125    1
   150   124   126    1
   151    88    89    1
   152    89    90    2
   153   142   143    1
   154   105   108    1
   155   112   111    1
   156   144   143    1
