@<TRIPOS>MOLECULE
tmp/4rkuB03.pdb
 85 79 0 0 0
SMALL
GASTEIGER

@<TRIPOS>ATOM
      1  N         17.2250  -24.6260   42.0840 N.3   330  PHE330     -0.1241
      2  CA        18.2350  -23.7640   41.4840 C.3   330  PHE330      0.1605
      3  C         17.6550  -23.1540   40.2150 C.2   330  PHE330      0.2264
      4  O         17.7200  -21.9420   40.0120 O.2   330  PHE330     -0.2867
      5  CB        19.5110  -24.5620   41.1810 C.3   330  PHE330      0.0534
      6  CG        20.7480  -23.7140   40.9890 C.ar  330  PHE330     -0.0203
      7  CD1       20.7440  -22.6110   40.1490 C.ar  330  PHE330     -0.0042
      8  CD2       21.9230  -24.0380   41.6460 C.ar  330  PHE330     -0.0042
      9  CE1       21.8820  -21.8460   39.9740 C.ar  330  PHE330     -0.0003
     10  CE2       23.0650  -23.2770   41.4770 C.ar  330  PHE330     -0.0003
     11  CZ        23.0450  -22.1810   40.6400 C.ar  330  PHE330     -0.0000
     12  N         16.7560  -19.3330   39.5370 N.3   334  LEU334     -0.1245
     13  CA        17.4730  -18.7250   38.4250 C.3   334  LEU334      0.1561
     14  C         16.4860  -18.1190   37.4310 C.2   334  LEU334      0.2260
     15  O         16.7650  -17.0990   36.7990 O.2   334  LEU334     -0.2867
     16  CB        18.3640  -19.7660   37.7420 C.3   334  LEU334      0.0270
     17  CG        19.6180  -19.2980   37.0040 C.3   334  LEU334      0.0019
     18  CD1       20.4760  -18.4230   37.8990 C.3   334  LEU334      0.0001
     19  CD2       20.4030  -20.5080   36.5350 C.3   334  LEU334      0.0001
     20  N         15.2750  -15.3210   45.5430 N.3   385  PHE385     -0.1241
     21  CA        16.1460  -15.3310   46.7090 C.3   385  PHE385      0.1605
     22  C         15.6530  -16.3010   47.7790 C.2   385  PHE385      0.2264
     23  O         16.3000  -16.4700   48.8090 O.2   385  PHE385     -0.2867
     24  CB        16.2590  -13.9280   47.3060 C.3   385  PHE385      0.0534
     25  CG        17.3970  -13.1170   46.7570 C.ar  385  PHE385     -0.0203
     26  CD1       18.7050  -13.5510   46.8950 C.ar  385  PHE385     -0.0042
     27  CD2       17.1630  -11.9030   46.1280 C.ar  385  PHE385     -0.0042
     28  CE1       19.7560  -12.8010   46.3970 C.ar  385  PHE385     -0.0003
     29  CE2       18.2110  -11.1470   45.6310 C.ar  385  PHE385     -0.0003
     30  CZ        19.5080  -11.5970   45.7670 C.ar  385  PHE385     -0.0000
     31  N         20.3010  -24.8600   48.7080 N.3   392  PHE392     -0.1241
     32  CA        21.4230  -25.1430   49.5970 C.3   392  PHE392      0.1605
     33  C         21.0950  -26.2260   50.6200 C.2   392  PHE392      0.2264
     34  O         21.9370  -27.0630   50.9440 O.2   392  PHE392     -0.2867
     35  CB        21.8590  -23.8690   50.3220 C.3   392  PHE392      0.0534
     36  CG        22.7400  -22.9740   49.5020 C.ar  392  PHE392     -0.0203
     37  CD1       23.7500  -23.5070   48.7180 C.ar  392  PHE392     -0.0042
     38  CD2       22.5600  -21.6010   49.5140 C.ar  392  PHE392     -0.0042
     39  CE1       24.5650  -22.6880   47.9620 C.ar  392  PHE392     -0.0003
     40  CE2       23.3710  -20.7760   48.7590 C.ar  392  PHE392     -0.0003
     41  CZ        24.3750  -21.3210   47.9820 C.ar  392  PHE392     -0.0000
     42  N         30.5670  -21.8060   43.1940 N.3   406  LEU406     -0.1245
     43  CA        29.4150  -21.8920   44.0790 C.3   406  LEU406      0.1561
     44  C         29.8420  -22.1760   45.5160 C.2   406  LEU406      0.2260
     45  O         29.2870  -21.6110   46.4590 O.2   406  LEU406     -0.2867
     46  CB        28.4490  -22.9710   43.5910 C.3   406  LEU406      0.0270
     47  CG        27.2070  -23.2220   44.4460 C.3   406  LEU406      0.0019
     48  CD1       26.4050  -21.9420   44.6310 C.3   406  LEU406      0.0001
     49  CD2       26.3540  -24.3070   43.8130 C.3   406  LEU406      0.0001
     50  N         31.3910  -19.4070   47.7260 N.3   409  MET409     -0.1245
     51  CA        30.5380  -18.3770   48.2720 C.3   409  MET409      0.1570
     52  C         30.2600  -18.6250   49.7160 C.2   409  MET409      0.2261
     53  O         30.0980  -17.7140   50.4600 O.2   409  MET409     -0.2867
     54  CB        29.2350  -18.3150   47.5100 C.3   409  MET409      0.0387
     55  CG        29.3750  -18.0570   46.0310 C.3   409  MET409      0.0595
     56  SD        29.4900  -16.3540   45.5770 S.3   409  MET409     -0.1393
     57  CE        31.0920  -16.3420   44.8620 C.3   409  MET409      0.0692
     58  N         30.6890  -11.1380   52.1230 N.3   416  ILE416     -0.1245
     59  CA        29.5740  -10.6310   51.3330 C.3   416  ILE416      0.1561
     60  C         28.5230   -9.9740   52.2230 C.2   416  ILE416      0.2260
     61  O         27.9990   -8.9100   51.8970 O.2   416  ILE416     -0.2867
     62  CB        28.9120  -11.7550   50.5120 C.3   416  ILE416      0.0252
     63  CG1       29.9650  -12.5290   49.7150 C.3   416  ILE416      0.0019
     64  CG2       27.8430  -11.1900   49.5920 C.3   416  ILE416      0.0019
     65  CD1       29.3920  -13.6670   48.8990 C.3   416  ILE416      0.0001
     66  N         20.3530  -12.7990   51.0250 N.3   533  VAL533     -0.1245
     67  CA        21.5540  -13.5990   50.8170 C.3   533  VAL533      0.1561
     68  C         22.0640  -14.1460   52.1470 C.2   533  VAL533      0.2260
     69  O         22.6390  -15.2320   52.1940 O.2   533  VAL533     -0.2867
     70  CB        22.6850  -12.8020   50.1150 C.3   533  VAL533      0.0252
     71  CG1       22.1670  -12.1470   48.8470 C.3   533  VAL533      0.0019
     72  CG2       23.2940  -11.7670   51.0480 C.3   533  VAL533      0.0019
     73  N         20.3690  -17.1410   52.7450 N.3   536  ALA536     -0.1231
     74  CA        20.8280  -18.1690   51.8190 C.3   536  ALA536      0.1694
     75  C         22.1660  -18.7580   52.2480 C.2   536  ALA536      0.2591
     76  O         22.3330  -19.9780   52.2790 O.2   536  ALA536     -0.2718
     77  CB        20.9320  -17.6020   50.4090 C.3   536  ALA536      0.0304
     78  N         23.1150  -17.8900   52.5800 N.am  537  LEU537     -0.1980
     79  CA        24.4610  -18.3300   52.9250 C.3   537  LEU537      0.1596
     80  C         24.5250  -18.9700   54.3100 C.2   537  LEU537      0.2287
     81  O         25.4520  -19.7230   54.6080 O.2   537  LEU537     -0.2864
     82  CB        25.4390  -17.1570   52.8440 C.3   537  LEU537      0.0297
     83  CG        25.5130  -16.4510   51.4880 C.3   537  LEU537      0.0022
     84  CD1       26.5750  -15.3610   51.5000 C.3   537  LEU537      0.0001
     85  CD2       25.7690  -17.4480   50.3670 C.3   537  LEU537      0.0001
@<TRIPOS>BOND
     1    19    17    1
     2    15    14    2
     3    17    16    1
     4    17    18    1
     5    14    13    1
     6    16    13    1
     7    13    12    1
     8     9     7   ar
     9     9    11   ar
    10     4     3    2
    11     7     6   ar
    12     3     2    1
    13    11    10   ar
    14     6     5    1
    15     6     8   ar
    16     5     2    1
    17    10     8   ar
    18     2     1    1
    19    42    43    1
    20    46    43    1
    21    46    47    1
    22    49    47    1
    23    43    44    1
    24    47    48    1
    25    57    56    1
    26    44    45    2
    27    20    21    1
    28    56    55    1
    29    29    30   ar
    30    29    27   ar
    31    30    28   ar
    32    55    54    1
    33    27    25   ar
    34    28    26   ar
    35    21    24    1
    36    21    22    1
    37    25    26   ar
    38    25    24    1
    39    54    51    1
    40    50    51    1
    41    22    23    2
    42    39    41   ar
    43    39    37   ar
    44    41    40   ar
    45    51    52    1
    46    31    32    1
    47    37    36   ar
    48    40    38   ar
    49    71    70    1
    50    65    63    1
    51    36    38   ar
    52    36    35    1
    53    64    62    1
    54    32    35    1
    55    32    33    1
    56    63    62    1
    57    52    53    2
    58    70    67    1
    59    70    72    1
    60    85    83    1
    61    77    74    1
    62    62    59    1
    63    33    34    2
    64    67    66    1
    65    67    68    1
    66    59    58    1
    67    59    60    1
    68    83    84    1
    69    83    82    1
    70    74    75    1
    71    74    73    1
    72    61    60    2
    73    68    69    2
    74    75    76    2
    75    75    78   am
    76    78    79    1
    77    82    79    1
    78    79    80    1
    79    80    81    2
