@<TRIPOS>MOLECULE
tmp/4rkuQ22.pdb
 103 99 0 0 0
SMALL
GASTEIGER

@<TRIPOS>ATOM
      1  N         68.0380   22.7440   49.3290 N.3    52  LEU52      -0.1231
      2  CA        68.2620   23.1610   47.9700 C.3    52  LEU52       0.1693
      3  C         67.2660   24.2090   47.5380 C.2    52  LEU52       0.2592
      4  O         67.6440   25.2370   47.0300 O.2    52  LEU52      -0.2718
      5  CB        68.1780   21.9590   47.0510 C.3    52  LEU52       0.0284
      6  CG        68.5880   22.1840   45.6120 C.3    52  LEU52       0.0019
      7  CD1       69.8020   23.0740   45.5670 C.3    52  LEU52       0.0001
      8  CD2       68.8960   20.8540   44.9730 C.3    52  LEU52       0.0001
      9  N         66.0010   23.9390   47.7740 N.am   53  GLY53      -0.1957
     10  CA        64.9760   24.8570   47.3790 C.3    53  GLY53       0.1869
     11  C         64.8380   26.0890   48.2160 C.2    53  GLY53       0.2309
     12  O         64.9180   27.1840   47.6930 O.2    53  GLY53      -0.2863
     13  N         66.6710   27.6610   49.8380 N.3    55  ALA55      -0.1231
     14  CA        67.7480   28.5770   49.6170 C.3    55  ALA55       0.1694
     15  C         67.5180   29.0710   48.2470 C.2    55  ALA55       0.2592
     16  O         67.7390   30.2100   47.9390 O.2    55  ALA55      -0.2718
     17  CB        69.0510   27.8400   49.6710 C.3    55  ALA55       0.0304
     18  N         66.9470   28.2330   47.4100 N.am   56  GLY56      -0.1957
     19  CA        66.6400   28.6310   46.0480 C.3    56  GLY56       0.1869
     20  C         65.5440   29.6680   45.9150 C.2    56  GLY56       0.2309
     21  O         65.4590   30.3540   44.9110 O.2    56  GLY56      -0.2863
     22  N         67.4850   33.1510   48.5920 N.3    59  LEU59      -0.1231
     23  CA        68.6820   33.8930   48.1990 C.3    59  LEU59       0.1678
     24  C         68.5170   34.7480   46.9260 C.2    59  LEU59       0.2434
     25  O         68.9470   35.8990   46.9090 O.2    59  LEU59      -0.2733
     26  CB        69.8640   32.9280   48.0350 C.3    59  LEU59       0.0284
     27  CG        70.1960   32.0640   49.2550 C.3    59  LEU59       0.0019
     28  CD1       71.4410   31.2320   49.0000 C.3    59  LEU59       0.0001
     29  CD2       70.3610   32.9170   50.5040 C.3    59  LEU59       0.0001
     30  N         67.9050   34.2010   45.8550 N.am   60  PRO60      -0.2729
     31  CA        67.6930   35.0680   44.6860 C.3    60  PRO60       0.1401
     32  C         66.7460   36.2350   44.9620 C.2    60  PRO60       0.2269
     33  O         66.7850   37.2490   44.2610 O.2    60  PRO60      -0.2865
     34  CB        67.0830   34.1170   43.6530 C.3    60  PRO60       0.0296
     35  CG        67.5610   32.7720   44.0560 C.3    60  PRO60       0.0237
     36  CD        67.5690   32.7980   45.5510 C.3    60  PRO60       0.0939
     37  N         69.0520   38.7350   46.3760 N.3    63  PHE63      -0.1241
     38  CA        70.0170   39.2020   45.3910 C.3    63  PHE63       0.1605
     39  C         69.3430   40.2800   44.5580 C.2    63  PHE63       0.2264
     40  O         69.9980   41.1590   44.0000 O.2    63  PHE63      -0.2867
     41  CB        70.5160   38.0580   44.5090 C.3    63  PHE63       0.0534
     42  CG        71.4910   37.1430   45.1940 C.ar   63  PHE63      -0.0203
     43  CD1       72.0830   37.5040   46.3950 C.ar   63  PHE63      -0.0042
     44  CD2       71.8240   35.9240   44.6290 C.ar   63  PHE63      -0.0042
     45  CE1       72.9830   36.6610   47.0220 C.ar   63  PHE63      -0.0003
     46  CE2       72.7230   35.0790   45.2490 C.ar   63  PHE63      -0.0003
     47  CZ        73.3040   35.4470   46.4460 C.ar   63  PHE63      -0.0000
     48  N         70.4670   44.3070   41.6700 N.3    68  ILE68      -0.1231
     49  CA        71.5180   43.5780   40.9690 C.3    68  ILE68       0.1692
     50  C         70.9240   42.7450   39.8400 C.2    68  ILE68       0.2591
     51  O         71.4450   42.7290   38.7260 O.2    68  ILE68      -0.2718
     52  CB        72.3080   42.6570   41.9180 C.3    68  ILE68       0.0266
     53  CG1       73.1610   43.5350   42.8560 C.3    68  ILE68       0.0019
     54  CG2       73.1440   41.6620   41.1500 C.3    68  ILE68       0.0020
     55  CD1       73.7750   42.7840   44.0050 C.3    68  ILE68       0.0001
     56  N         69.8280   42.0540   40.1380 N.am   69  ILE69      -0.1980
     57  CA        69.1360   41.2430   39.1440 C.3    69  ILE69       0.1595
     58  C         67.6500   41.5810   39.1170 C.2    69  ILE69       0.2287
     59  O         67.0620   41.9110   40.1460 O.2    69  ILE69      -0.2864
     60  CB        69.3110   39.7380   39.4180 C.3    69  ILE69       0.0276
     61  CG1       70.7880   39.3720   39.4710 C.3    69  ILE69       0.0022
     62  CG2       68.5740   38.9270   38.3570 C.3    69  ILE69       0.0022
     63  CD1       70.9310   37.9330   39.9850 C.3    69  ILE69       0.0001
     64  N         64.8240   39.6130   38.3860 N.3    71  VAL71      -0.1231
     65  CA        64.0630   38.3820   38.2220 C.3    71  VAL71       0.1678
     66  C         62.7710   38.4350   39.0340 C.2    71  VAL71       0.2434
     67  O         62.7280   39.0540   40.0980 O.2    71  VAL71      -0.2733
     68  CB        64.8910   37.1480   38.6420 C.3    71  VAL71       0.0265
     69  CG1       66.0760   36.9690   37.7090 C.3    71  VAL71       0.0020
     70  CG2       65.3560   37.2780   40.0860 C.3    71  VAL71       0.0020
     71  N         61.7050   37.7960   38.5260 N.am   72  PRO72      -0.2729
     72  CA        60.4250   37.7790   39.2430 C.3    72  PRO72       0.1401
     73  C         60.5070   36.9910   40.5460 C.2    72  PRO72       0.2269
     74  O         61.4460   36.2160   40.7340 O.2    72  PRO72      -0.2865
     75  CB        59.4750   37.1010   38.2500 C.3    72  PRO72       0.0296
     76  CG        60.3630   36.2870   37.3740 C.3    72  PRO72       0.0237
     77  CD        61.6250   37.0830   37.2390 C.3    72  PRO72       0.0939
     78  N         57.1240   32.9950   39.1970 N.3    77  ALA77      -0.1245
     79  CA        58.0380   32.4800   38.1810 C.3    77  ALA77       0.1562
     80  C         57.4060   31.4030   37.3050 C.2    77  ALA77       0.2260
     81  O         58.1080   30.5640   36.7440 O.2    77  ALA77      -0.2867
     82  CB        59.2950   31.9400   38.8400 C.3    77  ALA77       0.0290
     83  N         59.1250   32.0070   32.1560 N.3    81  GLU81      -0.1231
     84  CA        60.4830   31.5660   32.4630 C.3    81  GLU81       0.1699
     85  C         60.8750   30.3540   31.6240 C.2    81  GLU81       0.2592
     86  O         61.2960   29.3290   32.1620 O.2    81  GLU81      -0.2718
     87  CB        60.6160   31.2330   33.9510 C.3    81  GLU81       0.0402
     88  CG        60.6140   32.4370   34.8870 C.3    81  GLU81       0.1161
     89  CD        61.9450   33.1770   34.9080 C.2    81  GLU81       0.3649
     90  OE1       62.9970   32.5210   35.0500 O.co2  81  GLU81      -0.2457
     91  OE2       61.9380   34.4200   34.8010 O.co2  81  GLU81      -0.2457
     92  N         60.7420   30.4800   30.3080 N.am   82  TYR82      -0.1976
     93  CA        60.9910   29.3660   29.4030 C.3    82  TYR82       0.1639
     94  C         61.2480   29.8270   27.9740 C.2    82  TYR82       0.2290
     95  O         60.5550   30.7040   27.4580 O.2    82  TYR82      -0.2864
     96  CB        59.8060   28.3980   29.4190 C.3    82  TYR82       0.0560
     97  CG        59.2280   28.1250   30.7880 C.ar   82  TYR82      -0.0198
     98  CD1       60.0200   27.5310   31.7430 C.ar   82  TYR82      -0.0009
     99  CD2       57.9280   28.4900   31.0510 C.ar   82  TYR82      -0.0009
    100  CE1       59.4920   27.2910   32.9940 C.ar   82  TYR82       0.0417
    101  CE2       57.3950   28.2490   32.2950 C.ar   82  TYR82       0.0417
    102  CZ        58.1840   27.6430   33.2540 C.ar   82  TYR82       0.1957
    103  OH        57.6060   27.3160   34.4760 O.3    82  TYR82      -0.2866
@<TRIPOS>BOND
     1    95    94    2
     2    94    93    1
     3    93    96    1
     4    93    92    1
     5    96    97    1
     6    92    85   am
     7    97    99   ar
     8    97    98   ar
     9    99   101   ar
    10    85    86    2
    11    85    84    1
    12    98   100   ar
    13    83    84    1
    14   101   102   ar
    15    84    87    1
    16   100   102   ar
    17   102   103    1
    18    87    88    1
    19    91    89   ar
    20    88    89    1
    21    89    90   ar
    22    81    80    2
    23    77    76    1
    24    77    71    1
    25    80    79    1
    26    76    75    1
    27    69    68    1
    28    79    82    1
    29    79    78    1
    30    65    64    1
    31    65    68    1
    32    65    66    1
    33    75    72    1
    34    62    60    1
    35    71    66   am
    36    71    72    1
    37    68    70    1
    38    51    50    2
    39    66    67    2
    40    58    57    1
    41    58    59    2
    42    57    60    1
    43    57    56    1
    44    72    73    1
    45    60    61    1
    46    61    63    1
    47    50    56   am
    48    50    49    1
    49    73    74    2
    50    49    48    1
    51    49    52    1
    52    54    52    1
    53    52    53    1
    54    53    55    1
    55    34    35    1
    56    34    31    1
    57    40    39    2
    58    35    36    1
    59    33    32    2
    60    41    42    1
    61    41    38    1
    62    39    38    1
    63    44    42   ar
    64    44    46   ar
    65    31    32    1
    66    31    30    1
    67    21    20    2
    68     8     6    1
    69    42    43   ar
    70    46    47   ar
    71    38    37    1
    72    36    30    1
    73     7     6    1
    74     6     5    1
    75    30    24   am
    76    20    19    1
    77    19    18    1
    78    43    45   ar
    79    47    45   ar
    80    25    24    2
    81    24    23    1
    82     4     3    2
    83     5     2    1
    84    10     9    1
    85    10    11    1
    86    18    15   am
    87     3     9   am
    88     3     2    1
    89    12    11    2
    90    16    15    2
    91     2     1    1
    92    26    23    1
    93    26    27    1
    94    23    22    1
    95    15    14    1
    96    28    27    1
    97    27    29    1
    98    14    17    1
    99    14    13    1
