@<TRIPOS>MOLECULE
tmp/4rkuB15.pdb
 169 162 0 0 0
SMALL
GASTEIGER

@<TRIPOS>ATOM
      1  N         10.0940  -18.2210   16.7260 N.3   183  VAL183     -0.1245
      2  CA         8.9420  -18.3970   15.8450 C.3   183  VAL183      0.1561
      3  C          7.7430  -17.5640   16.2890 C.2   183  VAL183      0.2260
      4  O          7.0860  -16.9210   15.4680 O.2   183  VAL183     -0.2867
      5  CB         8.5220  -19.8780   15.7690 C.3   183  VAL183      0.0252
      6  CG1        7.2870  -20.0420   14.8960 C.3   183  VAL183      0.0019
      7  CG2        9.6680  -20.7260   15.2440 C.3   183  VAL183      0.0019
      8  N          8.2650  -14.1880   15.3620 N.3   186  LEU186     -0.1231
      9  CA         8.1260  -14.1200   13.9130 C.3   186  LEU186      0.1693
     10  C          6.6580  -14.1420   13.5030 C.2   186  LEU186      0.2591
     11  O          6.2390  -13.3970   12.6160 O.2   186  LEU186     -0.2718
     12  CB         8.8710  -15.2820   13.2550 C.3   186  LEU186      0.0284
     13  CG         8.7590  -15.3990   11.7350 C.3   186  LEU186      0.0019
     14  CD1        9.5350  -14.2880   11.0520 C.3   186  LEU186      0.0001
     15  CD2        9.2400  -16.7630   11.2700 C.3   186  LEU186      0.0001
     16  N          5.8840  -15.0020   14.1560 N.am  187  ALA187     -0.1980
     17  CA         4.4590  -15.1160   13.8760 C.3   187  ALA187      0.1597
     18  C          3.7290  -13.8280   14.2370 C.2   187  ALA187      0.2287
     19  O          2.7640  -13.4470   13.5750 O.2   187  ALA187     -0.2864
     20  CB         3.8610  -16.2920   14.6300 C.3   187  ALA187      0.0319
     21  N          5.0460  -10.7970   14.1490 N.3   189  ALA189     -0.1231
     22  CA         5.4040   -9.8300   13.1190 C.3   189  ALA189      0.1694
     23  C          4.5130  -10.0080   11.8940 C.2   189  ALA189      0.2592
     24  O          4.2880   -9.0660   11.1360 O.2   189  ALA189     -0.2718
     25  CB         6.8700   -9.9710   12.7400 C.3   189  ALA189      0.0304
     26  N          4.0080  -11.2250   11.7130 N.am  190  GLY190     -0.1957
     27  CA         3.0820  -11.5190   10.6370 C.3   190  GLY190      0.1869
     28  C          1.7110  -10.9240   10.8920 C.2   190  GLY190      0.2309
     29  O          1.0990  -10.3540    9.9900 O.2   190  GLY190     -0.2863
     30  N          1.9000   -7.0800   10.2970 N.3   193  VAL193     -0.1231
     31  CA         1.9320   -6.6200    8.9120 C.3   193  VAL193      0.1692
     32  C          0.6830   -7.0140    8.1240 C.2   193  VAL193      0.2592
     33  O          0.3860   -6.4200    7.0880 O.2   193  VAL193     -0.2718
     34  CB         3.1750   -7.1560    8.1690 C.3   193  VAL193      0.0266
     35  CG1        4.4470   -6.6790    8.8520 C.3   193  VAL193      0.0020
     36  CG2        3.1420   -8.6730    8.0920 C.3   193  VAL193      0.0020
     37  N         -0.0480   -8.0120    8.6120 N.am  194  HIS194     -0.1976
     38  CA        -1.2500   -8.4760    7.9230 C.3   194  HIS194      0.1656
     39  C         -2.5160   -7.8340    8.4600 C.2   194  HIS194      0.2291
     40  O         -3.4380   -7.5360    7.7030 O.2   194  HIS194     -0.2864
     41  CB        -1.3820   -9.9960    8.0270 C.3   194  HIS194      0.0771
     42  CG        -0.6360  -10.7390    6.9670 C.ar  194  HIS194      0.0820
     43  ND1        0.7370  -10.7010    6.8610 N.ar  194  HIS194     -0.2267
     44  CD2       -1.0710  -11.5330    5.9610 C.ar  194  HIS194      0.1154
     45  CE1        1.1160  -11.4420    5.8370 C.ar  194  HIS194      0.1986
     46  NE2        0.0390  -11.9590    5.2740 N.ar  194  HIS194     -0.2212
     47  N         -8.1890  -12.3210    4.4640 N.3   210  PHE210     -0.1227
     48  CA        -6.7500  -12.1570    4.6630 C.3   210  PHE210      0.1736
     49  C         -5.9530  -12.8950    3.5970 C.2   210  PHE210      0.2595
     50  O         -4.7900  -12.5810    3.3480 O.2   210  PHE210     -0.2718
     51  CB        -6.3280  -12.6400    6.0530 C.3   210  PHE210      0.0547
     52  CG        -6.0140  -14.1100    6.1250 C.ar  210  PHE210     -0.0202
     53  CD1       -7.0300  -15.0510    6.1840 C.ar  210  PHE210     -0.0042
     54  CD2       -4.7000  -14.5500    6.1570 C.ar  210  PHE210     -0.0042
     55  CE1       -6.7400  -16.4030    6.2580 C.ar  210  PHE210     -0.0003
     56  CE2       -4.4050  -15.8980    6.2300 C.ar  210  PHE210     -0.0003
     57  CZ        -5.4260  -16.8260    6.2810 C.ar  210  PHE210     -0.0000
     58  N         -6.5900  -13.8760    2.9700 N.am  211  LEU211     -0.1980
     59  CA        -5.9300  -14.6960    1.9660 C.3   211  LEU211      0.1596
     60  C         -5.7820  -13.9450    0.6450 C.2   211  LEU211      0.2287
     61  O         -4.8900  -14.2410   -0.1500 O.2   211  LEU211     -0.2864
     62  CB        -6.7100  -15.9950    1.7530 C.3   211  LEU211      0.0297
     63  CG        -5.8900  -17.2690    1.5530 C.3   211  LEU211      0.0022
     64  CD1       -4.9520  -17.4850    2.7290 C.3   211  LEU211      0.0001
     65  CD2       -6.8100  -18.4660    1.3730 C.3   211  LEU211      0.0001
     66  N         -5.6590  -10.4070    0.3480 N.3   213  VAL213     -0.1231
     67  CA        -5.2090   -9.0270    0.5100 C.3   213  VAL213      0.1692
     68  C         -3.7120   -8.9280    0.7940 C.2   213  VAL213      0.2592
     69  O         -3.2390   -9.3630    1.8430 O.2   213  VAL213     -0.2718
     70  CB        -5.9760   -8.3150    1.6410 C.3   213  VAL213      0.0266
     71  CG1       -5.4060   -6.9230    1.8740 C.3   213  VAL213      0.0020
     72  CG2       -7.4580   -8.2390    1.3090 C.3   213  VAL213      0.0020
     73  N         -2.9780   -8.3430   -0.1480 N.am  214  LEU214     -0.1966
     74  CA        -1.5390   -8.1430   -0.0030 C.3   214  LEU214      0.1713
     75  C         -1.2150   -7.2210    1.1690 C.2   214  LEU214      0.2458
     76  O         -1.8150   -6.1570    1.3090 O.2   214  LEU214     -0.2730
     77  CB        -0.9460   -7.5630   -1.2890 C.3   214  LEU214      0.0310
     78  CG        -1.1360   -8.3530   -2.5840 C.3   214  LEU214      0.0022
     79  CD1       -0.5990   -7.5640   -3.7680 C.3   214  LEU214      0.0001
     80  CD2       -0.4590   -9.7100   -2.4900 C.3   214  LEU214      0.0001
     81  N         -0.2590   -7.6320    2.0160 N.am  215  PRO215     -0.2716
     82  CA         0.2290   -6.7960    3.1190 C.3   215  PRO215      0.1536
     83  C          1.0640   -5.6390    2.5890 C.2   215  PRO215      0.2598
     84  O          1.2410   -4.6260    3.2650 O.2   215  PRO215     -0.2715
     85  CB         1.0910   -7.7590    3.9460 C.3   215  PRO215      0.0310
     86  CG         0.7520   -9.1340    3.4430 C.3   215  PRO215      0.0237
     87  CD         0.3760   -8.9580    2.0140 C.3   215  PRO215      0.0939
     88  N          1.5760   -5.8100    1.3750 N.am  216  TYR216     -0.1974
     89  CA         2.3760   -4.7920    0.7130 C.3   216  TYR216      0.1639
     90  C          2.0950   -4.8220   -0.7870 C.2   216  TYR216      0.2290
     91  O          1.8920   -5.8970   -1.3510 O.2   216  TYR216     -0.2864
     92  CB         3.8660   -5.0140    0.9860 C.3   216  TYR216      0.0560
     93  CG         4.7290   -3.8250    0.6390 C.ar  216  TYR216     -0.0198
     94  CD1        4.9250   -2.8000    1.5530 C.ar  216  TYR216     -0.0009
     95  CD2        5.3380   -3.7200   -0.6030 C.ar  216  TYR216     -0.0009
     96  CE1        5.7050   -1.7060    1.2430 C.ar  216  TYR216      0.0417
     97  CE2        6.1210   -2.6290   -0.9240 C.ar  216  TYR216      0.0417
     98  CZ         6.2990   -1.6250    0.0040 C.ar  216  TYR216      0.1957
     99  OH         7.0800   -0.5350   -0.3060 O.3   216  TYR216     -0.2866
    100  N          4.0710   -4.3130   -3.4970 N.3   218  GLN218     -0.1231
    101  CA         5.0270   -5.2140   -4.1240 C.3   218  GLN218      0.1698
    102  C          4.8660   -6.6060   -3.5240 C.2   218  GLN218      0.2593
    103  O          4.4410   -6.7470   -2.3770 O.2   218  GLN218     -0.2718
    104  CB         6.4560   -4.7030   -3.9400 C.3   218  GLN218      0.0381
    105  CG         7.4070   -5.0950   -5.0590 C.3   218  GLN218      0.0905
    106  CD         8.0350   -3.8890   -5.7330 C.2   218  GLN218      0.2608
    107  OE1        7.9590   -2.7710   -5.2240 O.2   218  GLN218     -0.2717
    108  NE2        8.6560   -4.1110   -6.8850 N.am  218  GLN218     -0.0878
    109  N          5.2020   -7.6320   -4.2980 N.am  219  GLY219     -0.1942
    110  CA         5.0010   -9.0050   -3.8690 C.3   219  GLY219      0.2014
    111  C          5.8810   -9.4290   -2.7090 C.2   219  GLY219      0.2638
    112  O          6.5400   -8.6070   -2.0730 O.2   219  GLY219     -0.2714
    113  N          5.8860  -10.7280   -2.4290 N.am  220  LEU220     -0.1977
    114  CA         6.7460  -11.2820   -1.3930 C.3   220  LEU220      0.1596
    115  C          8.1740  -11.3710   -1.9250 C.2   220  LEU220      0.2287
    116  O          9.1250  -11.5610   -1.1670 O.2   220  LEU220     -0.2864
    117  CB         6.2320  -12.6550   -0.9490 C.3   220  LEU220      0.0297
    118  CG         6.7940  -13.2780    0.3290 C.3   220  LEU220      0.0022
    119  CD1        7.0710  -12.2110    1.3760 C.3   220  LEU220      0.0001
    120  CD2        5.8160  -14.3160    0.8660 C.3   220  LEU220      0.0001
    121  N         11.6400   -9.5110   -0.5730 N.3   223  LEU223     -0.1245
    122  CA        12.2310  -10.2240    0.5510 C.3   223  LEU223      0.1561
    123  C         13.1620  -11.3290    0.0630 C.2   223  LEU223      0.2260
    124  O         14.3160  -11.4140    0.4830 O.2   223  LEU223     -0.2867
    125  CB        11.1480  -10.8220    1.4460 C.3   223  LEU223      0.0270
    126  CG        11.6280  -11.8780    2.4410 C.3   223  LEU223      0.0019
    127  CD1       12.2540  -11.2400    3.6740 C.3   223  LEU223      0.0001
    128  CD2       10.4840  -12.7940    2.8210 C.3   223  LEU223      0.0001
    129  N         10.5710   -2.2420    1.7310 N.3   231  TYR231     -0.1241
    130  CA         9.5970   -2.3340    2.8130 C.3   231  TYR231      0.1605
    131  C          9.6160   -1.1020    3.7130 C.2   231  TYR231      0.2264
    132  O          8.9910   -1.0970    4.7710 O.2   231  TYR231     -0.2867
    133  CB         9.8520   -3.5800    3.6640 C.3   231  TYR231      0.0534
    134  CG         9.6430   -4.8880    2.9390 C.ar  231  TYR231     -0.0201
    135  CD1        8.3840   -5.2570    2.4840 C.ar  231  TYR231     -0.0009
    136  CD2       10.7000   -5.7620    2.7260 C.ar  231  TYR231     -0.0009
    137  CE1        8.1850   -6.4540    1.8270 C.ar  231  TYR231      0.0417
    138  CE2       10.5110   -6.9640    2.0700 C.ar  231  TYR231      0.0417
    139  CZ         9.2510   -7.3040    1.6230 C.ar  231  TYR231      0.1957
    140  OH         9.0510   -8.4960    0.9680 O.3   231  TYR231     -0.2866
    141  N          5.8650   -1.6850    5.5940 N.3   252  ILE252     -0.1231
    142  CA         5.4560   -2.5680    6.6770 C.3   252  ILE252      0.1692
    143  C          6.5960   -2.8030    7.6650 C.2   252  ILE252      0.2591
    144  O          6.4090   -3.4480    8.6940 O.2   252  ILE252     -0.2718
    145  CB         4.9600   -3.9240    6.1390 C.3   252  ILE252      0.0266
    146  CG1        5.9980   -4.5380    5.1970 C.3   252  ILE252      0.0019
    147  CG2        3.6320   -3.7560    5.4180 C.3   252  ILE252      0.0020
    148  CD1        5.5470   -5.8340    4.5550 C.3   252  ILE252      0.0001
    149  N          7.7750   -2.2750    7.3460 N.am  253  LEU253     -0.1980
    150  CA         8.9540   -2.4340    8.1980 C.3   253  LEU253      0.1596
    151  C          9.8140   -1.1700    8.2100 C.2   253  LEU253      0.2287
    152  O         10.4350   -0.8320    7.2040 O.2   253  LEU253     -0.2864
    153  CB         9.7970   -3.6240    7.7300 C.3   253  LEU253      0.0297
    154  CG         9.1540   -5.0130    7.7060 C.3   253  LEU253      0.0022
    155  CD1       10.0410   -5.9930    6.9580 C.3   253  LEU253      0.0001
    156  CD2        8.8740   -5.5070    9.1160 C.3   253  LEU253      0.0001
    157  N          6.7090   -4.3430   14.0220 N.3   272  ALA272     -0.1245
    158  CA         6.7150   -5.4300   13.0510 C.3   272  ALA272      0.1562
    159  C          8.1440   -5.7120   12.6250 C.2   272  ALA272      0.2260
    160  O          8.5020   -6.8400   12.2860 O.2   272  ALA272     -0.2867
    161  CB         5.8560   -5.0830   11.8500 C.3   272  ALA272      0.0290
    162  N         10.5990   -9.1080   14.0840 N.3   276  LEU276     -0.1245
    163  CA        11.1820   -9.8350   12.9920 C.3   276  LEU276      0.1561
    164  C         12.6680   -9.8700   13.2400 C.2   276  LEU276      0.2260
    165  O         13.3170  -10.8730   13.0150 O.2   276  LEU276     -0.2867
    166  CB        10.8800   -9.1160   11.6940 C.3   276  LEU276      0.0270
    167  CG        11.3620   -9.7290   10.3940 C.3   276  LEU276      0.0019
    168  CD1       10.8680  -11.1510   10.2890 C.3   276  LEU276      0.0001
    169  CD2       10.8300   -8.9130    9.2410 C.3   276  LEU276      0.0001
@<TRIPOS>BOND
     1   108   106   am
     2   106   107    2
     3   106   105    1
     4   105   104    1
     5   109   110    1
     6   109   102   am
     7   101   104    1
     8   101   102    1
     9   101   100    1
    10   110   111    1
    11    79    78    1
    12   102   103    2
    13   111   113   am
    14   111   112    2
    15    78    80    1
    16    78    77    1
    17   113   114    1
    18   115   114    1
    19   115   116    2
    20   114   117    1
    21    91    90    2
    22    77    74    1
    23   117   118    1
    24    97    95   ar
    25    97    98   ar
    26    90    89    1
    27    95    93   ar
    28   121   122    1
    29    99    98    1
    30    61    60    2
    31    73    74    1
    32    73    68   am
    33    74    75    1
    34    98    96   ar
    35   123   124    2
    36   123   122    1
    37   118   120    1
    38   118   119    1
    39    66    67    1
    40    67    68    1
    41    67    70    1
    42   122   125    1
    43    93    92    1
    44    93    94   ar
    45    60    59    1
    46    89    92    1
    47    89    88    1
    48    68    69    2
    49   140   139    1
    50    75    76    2
    51    75    81   am
    52    96    94   ar
    53    72    70    1
    54    65    63    1
    55    88    83   am
    56   125   126    1
    57    63    62    1
    58    63    64    1
    59   139   137   ar
    60   139   138   ar
    61    70    71    1
    62   129   130    1
    63    62    59    1
    64   137   135   ar
    65    59    58    1
    66    87    81    1
    67    87    86    1
    68    81    82    1
    69   138   136   ar
    70   126   128    1
    71   126   127    1
    72   135   134   ar
    73    83    82    1
    74    83    84    2
    75   136   134   ar
    76   130   133    1
    77   130   131    1
    78   134   133    1
    79    58    49   am
    80    82    85    1
    81    50    49    2
    82    86    85    1
    83    49    48    1
    84   131   132    2
    85    47    48    1
    86   148   146    1
    87    48    51    1
    88   146   145    1
    89    46    45   ar
    90    46    44   ar
    91   147   145    1
    92   141   142    1
    93    45    43   ar
    94    44    42   ar
    95    51    52    1
    96    52    54   ar
    97    52    53   ar
    98   145   142    1
    99    54    56   ar
   100    53    55   ar
   101    56    57   ar
   102    55    57   ar
   103   142   143    1
   104    43    42   ar
   105   155   154    1
   106    42    41    1
   107    33    32    2
   108   152   151    2
   109   149   143   am
   110   149   150    1
   111   143   144    2
   112    40    39    2
   113   154   153    1
   114   154   156    1
   115   153   150    1
   116    38    41    1
   117    38    39    1
   118    38    37    1
   119    36    34    1
   120    32    37   am
   121    32    31    1
   122    34    35    1
   123    34    31    1
   124   150   151    1
   125    31    30    1
   126   169   167    1
   127    29    28    2
   128   168   167    1
   129   167   166    1
   130    27    28    1
   131    27    26    1
   132    14    13    1
   133    24    23    2
   134    15    13    1
   135   166   163    1
   136    26    23   am
   137    13    12    1
   138   161   158    1
   139    23    22    1
   140   160   159    2
   141    11    10    2
   142   159   158    1
   143    25    22    1
   144   163   164    1
   145   163   162    1
   146   165   164    2
   147   158   157    1
   148    22    21    1
   149    12     9    1
   150    10     9    1
   151    10    16   am
   152    19    18    2
   153    17    16    1
   154    17    18    1
   155    17    20    1
   156     9     8    1
   157     6     5    1
   158     7     5    1
   159     4     3    2
   160     5     2    1
   161     2     3    1
   162     2     1    1
