@<TRIPOS>MOLECULE
tmp/4rkuN12.pdb
 145 142 0 0 0
SMALL
GASTEIGER

@<TRIPOS>ATOM
      1  N         55.5570   -9.8650   13.5590 N.3    40  ARG40      -0.1245
      2  CA        55.7000   -9.9400   12.1220 C.3    40  ARG40       0.1563
      3  C         54.7380   -9.0610   11.3500 C.2    40  ARG40       0.2260
      4  O         55.1360   -8.4310   10.3880 O.2    40  ARG40      -0.2867
      5  CB        55.6160  -11.3700   11.6500 C.3    40  ARG40       0.0307
      6  CG        56.8470  -12.1650   12.0200 C.3    40  ARG40       0.0489
      7  CD        57.0150  -13.4090   11.1550 C.3    40  ARG40       0.2205
      8  NE        58.4130  -13.8260   11.0750 N.pl3  40  ARG40      -0.0865
      9  CZ        58.9800  -14.7190   11.8770 C.cat  40  ARG40       0.5346
     10  NH1       58.2760  -15.3100   12.8330 N.pl3  40  ARG40       0.1354
     11  NH2       60.2620  -15.0050   11.7260 N.pl3  40  ARG40       0.1354
     12  N         55.8180   -5.1950   11.8990 N.3    43  MET43      -0.1230
     13  CA        57.0080   -4.7220   11.2340 C.3    43  MET43       0.1702
     14  C         56.6960   -4.5040    9.7830 C.2    43  MET43       0.2592
     15  O         57.1420   -3.5510    9.1830 O.2    43  MET43      -0.2718
     16  CB        58.1480   -5.6970   11.4060 C.3    43  MET43       0.0401
     17  CG        58.7410   -5.6670   12.7920 C.3    43  MET43       0.0596
     18  SD        60.2380   -6.6350   12.9170 S.3    43  MET43      -0.1393
     19  CE        59.9320   -7.9020   11.7140 C.3    43  MET43       0.0692
     20  N         55.9120   -5.3910    9.2210 N.am   44  LEU44      -0.1980
     21  CA        55.5620   -5.2690    7.8410 C.3    44  LEU44       0.1596
     22  C         54.8170   -3.9770    7.6490 C.2    44  LEU44       0.2287
     23  O         55.0800   -3.2480    6.7290 O.2    44  LEU44      -0.2864
     24  CB        54.6450   -6.4160    7.5030 C.3    44  LEU44       0.0297
     25  CG        54.7240   -7.0160    6.1220 C.3    44  LEU44       0.0022
     26  CD1       56.1410   -6.9400    5.6040 C.3    44  LEU44       0.0001
     27  CD2       54.2460   -8.4490    6.1960 C.3    44  LEU44       0.0001
     28  N         59.4050  -21.1850   14.0410 N.3   104  TYR104     -0.1228
     29  CA        60.1970  -20.7300   12.9260 C.3   104  TYR104      0.1721
     30  C         60.0110  -21.7880   11.8850 C.2   104  TYR104      0.2437
     31  O         60.6350  -22.8340   11.9400 O.2   104  TYR104     -0.2733
     32  CB        61.6570  -20.6350   13.3280 C.3   104  TYR104      0.0547
     33  CG        61.9280  -19.7070   14.4820 C.ar  104  TYR104     -0.0200
     34  CD1       61.9070  -18.3520   14.3120 C.ar  104  TYR104     -0.0009
     35  CD2       62.2320  -20.1920   15.7280 C.ar  104  TYR104     -0.0009
     36  CE1       62.1710  -17.5000   15.3590 C.ar  104  TYR104      0.0417
     37  CE2       62.4950  -19.3470   16.7800 C.ar  104  TYR104      0.0417
     38  CZ        62.4610  -17.9990   16.5830 C.ar  104  TYR104      0.1957
     39  OH        62.7110  -17.1380   17.6140 O.3   104  TYR104     -0.2866
     40  N         59.0550  -21.4620   10.9950 N.am  105  PRO105     -0.2718
     41  CA        58.8520  -22.5340   10.0130 C.3   105  PRO105      0.1535
     42  C         60.0360  -22.9020    9.1330 C.2   105  PRO105      0.2599
     43  O         60.2510  -24.0780    8.8930 O.2   105  PRO105     -0.2715
     44  CB        57.7000  -22.0190    9.1620 C.3   105  PRO105      0.0310
     45  CG        57.8910  -20.5660    9.1560 C.3   105  PRO105      0.0237
     46  CD        58.1500  -20.2990   10.5920 C.3   105  PRO105      0.0939
     47  N         60.8220  -21.9220    8.7370 N.am  106  GLY106     -0.1955
     48  CA        61.9350  -22.2410    7.8770 C.3   106  GLY106      0.1869
     49  C         61.4870  -23.0500    6.6740 C.2   106  GLY106      0.2309
     50  O         60.3220  -23.0590    6.3100 O.2   106  GLY106     -0.2863
     51  N         60.4400  -21.1710    3.6860 N.3   109  PHE109     -0.1227
     52  CA        60.3450  -19.8350    4.2090 C.3   109  PHE109      0.1736
     53  C         61.7070  -19.3000    4.5010 C.2   109  PHE109      0.2595
     54  O         61.8270  -18.2130    5.0060 O.2   109  PHE109     -0.2718
     55  CB        59.4310  -19.7620    5.4150 C.3   109  PHE109      0.0547
     56  CG        57.9930  -19.9440    5.0650 C.ar  109  PHE109     -0.0202
     57  CD1       57.3110  -18.9570    4.4030 C.ar  109  PHE109     -0.0042
     58  CD2       57.3380  -21.1080    5.3620 C.ar  109  PHE109     -0.0042
     59  CE1       55.9940  -19.1150    4.0580 C.ar  109  PHE109     -0.0003
     60  CE2       56.0180  -21.2740    5.0230 C.ar  109  PHE109     -0.0003
     61  CZ        55.3480  -20.2760    4.3700 C.ar  109  PHE109     -0.0000
     62  N         62.7340  -20.0750    4.2030 N.am  110  ASP110     -0.1974
     63  CA        64.0840  -19.6000    4.3920 C.3   110  ASP110      0.1709
     64  C         64.7670  -19.9180    3.0880 C.2   110  ASP110      0.2293
     65  O         65.6840  -20.7260    3.0290 O.2   110  ASP110     -0.2864
     66  CB        64.7620  -20.3310    5.5340 C.3   110  ASP110      0.1436
     67  CG        66.0090  -19.6520    5.9850 C.2   110  ASP110      0.3671
     68  OD1       66.2140  -18.4880    5.6060 O.co2 110  ASP110     -0.2456
     69  OD2       66.7790  -20.2780    6.7300 O.co2 110  ASP110     -0.2456
     70  N         69.3640  -18.8120    6.1240 N.3   114  TYR114     -0.1227
     71  CA        70.0060  -18.2520    7.2990 C.3   114  TYR114      0.1736
     72  C         69.7110  -19.1300    8.5000 C.2   114  TYR114      0.2596
     73  O         70.2530  -18.9210    9.5680 O.2   114  TYR114     -0.2718
     74  CB        69.5320  -16.8330    7.5540 C.3   114  TYR114      0.0548
     75  CG        69.6560  -15.9430    6.3520 C.ar  114  TYR114     -0.0200
     76  CD1       69.0450  -16.2740    5.1740 C.ar  114  TYR114     -0.0009
     77  CD2       70.3810  -14.7730    6.3980 C.ar  114  TYR114     -0.0009
     78  CE1       69.1470  -15.4670    4.0720 C.ar  114  TYR114      0.0417
     79  CE2       70.4890  -13.9570    5.2920 C.ar  114  TYR114      0.0417
     80  CZ        69.8630  -14.3160    4.1280 C.ar  114  TYR114      0.1957
     81  OH        69.9440  -13.5360    2.9990 O.3   114  TYR114     -0.2866
     82  N         68.8370  -20.1090    8.3130 N.am  115  SER115     -0.1952
     83  CA        68.4450  -21.0220    9.3730 C.3   115  SER115      0.1924
     84  C         69.4660  -22.1060    9.5760 C.2   115  SER115      0.2314
     85  O         69.6030  -22.6450   10.6590 O.2   115  SER115     -0.2863
     86  CB        67.1230  -21.6840    9.0130 C.3   115  SER115      0.2116
     87  OG        66.8850  -22.8390    9.8030 O.3   115  SER115     -0.2180
     88  N         71.5330  -18.3140   13.5100 N.3   121  PHE121     -0.1241
     89  CA        70.0930  -18.5340   13.5670 C.3   121  PHE121      0.1605
     90  C         69.5230  -18.0050   14.8800 C.2   121  PHE121      0.2264
     91  O         68.4490  -17.4060   14.8990 O.2   121  PHE121     -0.2867
     92  CB        69.7610  -20.0180   13.4020 C.3   121  PHE121      0.0534
     93  CG        68.2880  -20.3100   13.3670 C.ar  121  PHE121     -0.0203
     94  CD1       67.4490  -19.6030   12.5220 C.ar  121  PHE121     -0.0042
     95  CD2       67.7450  -21.2990   14.1680 C.ar  121  PHE121     -0.0042
     96  CE1       66.0960  -19.8690   12.4870 C.ar  121  PHE121     -0.0003
     97  CE2       66.3920  -21.5740   14.1320 C.ar  121  PHE121     -0.0003
     98  CZ        65.5680  -20.8560   13.2950 C.ar  121  PHE121     -0.0000
     99  N         70.0270  -14.2760   14.9760 N.3   124  TYR124     -0.1227
    100  CA        69.0750  -13.7570   14.0210 C.3   124  TYR124      0.1736
    101  C         67.7370  -13.6120   14.6960 C.2   124  TYR124      0.2595
    102  O         66.9670  -12.7160   14.4070 O.2   124  TYR124     -0.2718
    103  CB        68.9900  -14.6650   12.8200 C.3   124  TYR124      0.0548
    104  CG        69.9330  -14.2580   11.7410 C.ar  124  TYR124     -0.0200
    105  CD1       71.1270  -13.6360   12.0390 C.ar  124  TYR124     -0.0009
    106  CD2       69.6360  -14.4950   10.4230 C.ar  124  TYR124     -0.0009
    107  CE1       71.9930  -13.2530   11.0460 C.ar  124  TYR124      0.0417
    108  CE2       70.5040  -14.1240    9.4240 C.ar  124  TYR124      0.0417
    109  CZ        71.6730  -13.5020    9.7440 C.ar  124  TYR124      0.1957
    110  OH        72.5050  -13.1390    8.7280 O.3   124  TYR124     -0.2866
    111  N         67.4560  -14.5380   15.5890 N.am  125  LYS125     -0.1980
    112  CA        66.2180  -14.5190   16.3120 C.3   125  LYS125      0.1596
    113  C         66.1270  -13.3280   17.2410 C.2   125  LYS125      0.2287
    114  O         65.2150  -12.5360   17.1300 O.2   125  LYS125     -0.2864
    115  CB        66.0700  -15.8030   17.1020 C.3   125  LYS125      0.0298
    116  CG        66.0840  -17.0480   16.2440 C.3   125  LYS125      0.0038
    117  CD        65.8420  -18.2770   17.0860 C.3   125  LYS125      0.0206
    118  CE        65.9960  -19.5500   16.2830 C.3   125  LYS125      0.1093
    119  NZ        66.1330  -20.7170   17.1890 N.3   125  LYS125     -0.1314
    120  N         67.4770  -10.6660   17.1540 N.3   127  LYS127     -0.1231
    121  CA        67.3850   -9.4310   16.4030 C.3   127  LYS127      0.1693
    122  C         65.9680   -9.2090   15.9250 C.2   127  LYS127      0.2591
    123  O         65.4460   -8.1180   15.9720 O.2   127  LYS127     -0.2718
    124  CB        68.2870   -9.4840   15.1780 C.3   127  LYS127      0.0285
    125  CG        69.7770   -9.3260   15.4400 C.3   127  LYS127      0.0035
    126  CD        70.5570   -9.4870   14.1420 C.3   127  LYS127      0.0206
    127  CE        71.9830   -9.0030   14.2720 C.3   127  LYS127      0.1093
    128  NZ        72.6560   -8.9900   12.9470 N.3   127  LYS127     -0.1314
    129  N         65.3630  -10.2920   15.4950 N.am  128  GLU128     -0.1979
    130  CA        64.0280  -10.2170   14.9330 C.3   128  GLU128      0.1602
    131  C         62.9830   -9.7750   15.9050 C.2   128  GLU128      0.2287
    132  O         62.0760   -9.0550   15.5580 O.2   128  GLU128     -0.2864
    133  CB        63.6250  -11.5590   14.3830 C.3   128  GLU128      0.0415
    134  CG        62.2620  -11.5530   13.7580 C.3   128  GLU128      0.1163
    135  CD        61.7300  -12.9420   13.6410 C.2   128  GLU128      0.3649
    136  OE1       61.8940  -13.6950   14.6040 O.co2 128  GLU128     -0.2457
    137  OE2       61.1690  -13.2820   12.5990 O.co2 128  GLU128     -0.2457
    138  N         63.5350   -5.9320   17.0550 N.3   131  ASN131     -0.1240
    139  CA        63.0700   -5.0220   16.0340 C.3   131  ASN131      0.1653
    140  C         61.5780   -5.0330   16.1110 C.2   131  ASN131      0.2266
    141  O         60.9320   -3.9980   16.0770 O.2   131  ASN131     -0.2867
    142  CB        63.4880   -5.4660   14.6410 C.3   131  ASN131      0.1155
    143  CG        64.8840   -5.0290   14.2840 C.2   131  ASN131      0.2627
    144  OD1       65.1330   -3.8710   13.9460 O.2   131  ASN131     -0.2716
    145  ND2       65.8070   -5.9670   14.3380 N.am  131  ASN131     -0.0877
@<TRIPOS>BOND
     1    81    80    1
     2    65    64    2
     3    64    63    1
     4    51    52    1
     5    59    61   ar
     6    59    57   ar
     7    78    80   ar
     8    78    76   ar
     9    80    79   ar
    10    62    63    1
    11    62    53   am
    12    52    53    1
    13    52    55    1
    14    61    60   ar
    15    63    66    1
    16    57    56   ar
    17    53    54    2
    18    60    58   ar
    19    56    58   ar
    20    56    55    1
    21    76    75   ar
    22    79    77   ar
    23    66    67    1
    24    26    25    1
    25    68    67   ar
    26    67    69   ar
    27    25    27    1
    28    25    24    1
    29    70    71    1
    30    50    49    2
    31    75    77   ar
    32    75    74    1
    33    49    48    1
    34    23    22    2
    35    71    74    1
    36    71    72    1
    37    24    21    1
    38    22    21    1
    39    21    20    1
    40    48    47    1
    41    82    72   am
    42    82    83    1
    43    72    73    2
    44   110   109    1
    45    47    42   am
    46    43    42    2
    47    86    83    1
    48    86    87    1
    49    42    41    1
    50    45    44    1
    51    45    46    1
    52    44    41    1
    53    15    14    2
    54    20    14   am
    55    83    84    1
    56   108   109   ar
    57   108   106   ar
    58    84    85    2
    59   109   107   ar
    60    14    13    1
    61    41    40    1
    62     4     3    2
    63   106   104   ar
    64    46    40    1
    65    40    30   am
    66   107   105   ar
    67     8     7    1
    68     8     9    2
    69     7     6    1
    70    13    16    1
    71    13    12    1
    72     3     2    1
    73    16    17    1
    74     5     6    1
    75     5     2    1
    76    19    18    1
    77    11     9    1
    78   104   105   ar
    79   104   103    1
    80     9    10    1
    81    30    31    2
    82    30    29    1
    83     2     1    1
    84    96    94   ar
    85    96    98   ar
    86    94    93   ar
    87   137   135   ar
    88    17    18    1
    89   103   100    1
    90    29    32    1
    91    29    28    1
    92   128   127    1
    93    98    97   ar
    94    32    33    1
    95    93    92    1
    96    93    95   ar
    97    92    89    1
    98    88    89    1
    99    89    90    1
   100   135   134    1
   101   135   136   ar
   102   134   133    1
   103   144   143    2
   104   100   101    1
   105   100    99    1
   106    97    95   ar
   107   126   127    1
   108   126   125    1
   109   143   145   am
   110   143   142    1
   111    34    33   ar
   112    34    36   ar
   113   133   130    1
   114   102   101    2
   115    33    35   ar
   116   142   139    1
   117   101   111   am
   118    90    91    2
   119   130   129    1
   120   130   131    1
   121   124   125    1
   122   124   121    1
   123    36    38   ar
   124   129   122   am
   125   132   131    2
   126   111   112    1
   127    35    37   ar
   128   122   123    2
   129   122   121    1
   130   139   140    1
   131   139   138    1
   132   141   140    2
   133   116   117    1
   134   116   115    1
   135   118   117    1
   136   118   119    1
   137   112   115    1
   138   112   113    1
   139   121   120    1
   140    38    37   ar
   141    38    39    1
   142   114   113    2
