@<TRIPOS>MOLECULE
tmp/4rkuN06.pdb
 118 117 0 0 0
SMALL
GASTEIGER

@<TRIPOS>ATOM
      1  N         53.4530   -9.0110   11.7890 N.3    41  TRP41      -0.1241
      2  CA        52.4920   -8.1850   11.0730 C.3    41  TRP41       0.1605
      3  C         52.8550   -6.7380   11.1910 C.2    41  TRP41       0.2264
      4  O         52.7910   -5.9940   10.2390 O.2    41  TRP41      -0.2867
      5  CB        51.0760   -8.3970   11.5770 C.3    41  TRP41       0.0550
      6  CG        50.4120   -9.6140   11.0330 C.ar   41  TRP41       0.0003
      7  CD1       50.0520  -10.7120   11.7240 C.ar   41  TRP41       0.0946
      8  CD2       50.0290   -9.8510    9.6820 C.ar   41  TRP41       0.0152
      9  NE1       49.4720  -11.6210   10.8990 N.ar   41  TRP41      -0.2442
     10  CE2       49.4420  -11.1110    9.6350 C.ar   41  TRP41       0.0810
     11  CE3       50.1230   -9.1160    8.5100 C.ar   41  TRP41       0.0012
     12  CZ2       48.9560  -11.6540    8.4750 C.ar   41  TRP41       0.0191
     13  CZ3       49.6390   -9.6580    7.3620 C.ar   41  TRP41       0.0001
     14  CH2       49.0640  -10.9130    7.3480 C.ar   41  TRP41       0.0015
     15  N         44.2020    6.9710    3.5540 N.3    63  ALA63      -0.1231
     16  CA        44.5120    5.9080    2.6350 C.3    63  ALA63       0.1694
     17  C         43.3320    4.9750    2.6240 C.2    63  ALA63       0.2591
     18  O         43.0120    4.3800    1.6100 O.2    63  ALA63      -0.2718
     19  CB        45.7580    5.1770    3.0680 C.3    63  ALA63       0.0304
     20  N         42.6960    4.8310    3.7910 N.am   64  GLN64      -0.1979
     21  CA        41.5700    3.9310    3.9190 C.3    64  GLN64       0.1601
     22  C         40.1800    4.4760    3.6710 C.2    64  GLN64       0.2287
     23  O         39.2250    3.7250    3.6980 O.2    64  GLN64      -0.2864
     24  CB        41.5990    3.3050    5.2880 C.3    64  GLN64       0.0394
     25  CG        42.9280    2.6940    5.6030 C.3    64  GLN64       0.0908
     26  CD        43.0520    2.4100    7.0540 C.2    64  GLN64       0.2608
     27  OE1       44.0870    2.6780    7.6570 O.2    64  GLN64      -0.2717
     28  NE2       42.0050    1.8560    7.6330 N.am   64  GLN64      -0.0878
     29  N         38.8890    5.5090    1.0040 N.3    66  TRP66      -0.1227
     30  CA        38.3660    5.1970   -0.3110 C.3    66  TRP66       0.1737
     31  C         37.2460    4.1540   -0.2580 C.2    66  TRP66       0.2595
     32  O         36.2710    4.2580   -0.9620 O.2    66  TRP66      -0.2718
     33  CB        39.5140    4.7750   -1.2510 C.3    66  TRP66       0.0564
     34  CG        39.6610    3.3030   -1.4590 C.ar   66  TRP66       0.0003
     35  CD1       40.1540    2.4080   -0.5830 C.ar   66  TRP66       0.0946
     36  CD2       39.2460    2.5610   -2.6050 C.ar   66  TRP66       0.0152
     37  NE1       40.0910    1.1510   -1.1080 N.ar   66  TRP66      -0.2442
     38  CE2       39.5370    1.2190   -2.3550 C.ar   66  TRP66       0.0810
     39  CE3       38.6630    2.9070   -3.8270 C.ar   66  TRP66       0.0012
     40  CZ2       39.2730    0.2180   -3.2740 C.ar   66  TRP66       0.0191
     41  CZ3       38.3980    1.9130   -4.7400 C.ar   66  TRP66       0.0001
     42  CH2       38.7020    0.5830   -4.4590 C.ar   66  TRP66       0.0015
     43  N         37.4150    3.1310    0.5290 N.am   67  ALA67      -0.1980
     44  CA        36.3860    2.1000    0.6240 C.3    67  ALA67       0.1597
     45  C         35.0790    2.6580    1.1240 C.2    67  ALA67       0.2287
     46  O         34.0140    2.3030    0.6740 O.2    67  ALA67      -0.2864
     47  CB        36.8470    0.9870    1.5420 C.3    67  ALA67       0.0319
     48  N         42.4610   -4.0550   -9.9080 N.3    71  PRO71      -0.2102
     49  CA        41.4160   -5.0570  -10.1510 C.3    71  PRO71       0.1504
     50  C         40.6980   -5.4200   -8.8740 C.2    71  PRO71       0.2576
     51  O         41.3790   -5.7440   -7.9160 O.2    71  PRO71      -0.2718
     52  CB        42.2350   -6.2680  -10.5500 C.3    71  PRO71       0.0282
     53  CG        43.4160   -6.2260   -9.6290 C.3    71  PRO71       0.0208
     54  CD        43.5810   -4.8020   -9.1720 C.3    71  PRO71       0.0893
     55  N         39.3980   -5.3460   -8.9450 N.am   72  TRP72      -0.1963
     56  CA        38.5680   -5.6810   -7.7790 C.3    72  TRP72       0.1771
     57  C         38.4480   -4.4720   -6.8510 C.2    72  TRP72       0.2620
     58  O         38.0630   -4.5490   -5.6800 O.2    72  TRP72      -0.2715
     59  CB        39.1470   -6.8790   -7.0370 C.3    72  TRP72       0.0590
     60  CG        39.3160   -8.0510   -7.9630 C.ar   72  TRP72       0.0006
     61  CD1       38.5750   -8.3180   -9.0900 C.ar   72  TRP72       0.0946
     62  CD2       40.2590   -9.1140   -7.8560 C.ar   72  TRP72       0.0152
     63  NE1       39.0170   -9.4670   -9.6840 N.ar   72  TRP72      -0.2442
     64  CE2       40.0570   -9.9810   -8.9490 C.ar   72  TRP72       0.0810
     65  CE3       41.2690   -9.4230   -6.9370 C.ar   72  TRP72       0.0012
     66  CZ2       40.8090  -11.1330   -9.1460 C.ar   72  TRP72       0.0191
     67  CZ3       42.0150  -10.5640   -7.1480 C.ar   72  TRP72       0.0001
     68  CH2       41.7930  -11.4150   -8.2360 C.ar   72  TRP72       0.0015
     69  N         38.6780   -3.3460   -7.4200 N.am   73  GLY73      -0.1954
     70  CA        38.7200   -2.0790   -6.7120 C.3    73  GLY73       0.1869
     71  C         37.4140   -1.7330   -6.0190 C.2    73  GLY73       0.2309
     72  O         36.9520   -0.5950   -6.0840 O.2    73  GLY73      -0.2863
     73  N         37.4250   -6.7370   -2.6360 N.3    78  ILE78      -0.1245
     74  CA        38.6100   -6.8810   -1.8270 C.3    78  ILE78       0.1561
     75  C         38.3690   -7.6290   -0.5270 C.2    78  ILE78       0.2260
     76  O         39.1830   -8.4530   -0.1210 O.2    78  ILE78      -0.2867
     77  CB        39.1270   -5.5150   -1.3960 C.3    78  ILE78       0.0252
     78  CG1       39.1310   -4.5410   -2.5480 C.3    78  ILE78       0.0019
     79  CG2       40.5210   -5.6380   -0.8230 C.3    78  ILE78       0.0019
     80  CD1       39.4430   -3.1490   -2.0750 C.3    78  ILE78       0.0001
     81  N         38.3520  -11.2980   -1.0070 N.3    81  ILE81      -0.1231
     82  CA        39.6800  -11.7560   -1.3230 C.3    81  ILE81       0.1692
     83  C         40.5260  -11.7450   -0.0800 C.2    81  ILE81       0.2591
     84  O         41.2490  -12.6820    0.1940 O.2    81  ILE81      -0.2718
     85  CB        40.3150  -10.9320   -2.4660 C.3    81  ILE81       0.0266
     86  CG1       41.0830   -9.7080   -1.9660 C.3    81  ILE81       0.0019
     87  CG2       39.2520  -10.4710   -3.4410 C.3    81  ILE81       0.0020
     88  CD1       42.4240  -10.0430   -1.3530 C.3    81  ILE81       0.0001
     89  N         40.3970  -10.6710    0.7170 N.am   82  GLU82      -0.1979
     90  CA        41.1990  -10.5810    1.9070 C.3    82  GLU82       0.1602
     91  C         40.7520  -11.7090    2.7880 C.2    82  GLU82       0.2287
     92  O         41.5470  -12.4440    3.3530 O.2    82  GLU82      -0.2864
     93  CB        40.9350   -9.2560    2.6100 C.3    82  GLU82       0.0415
     94  CG        41.9870   -8.8650    3.6280 C.3    82  GLU82       0.1163
     95  CD        41.4590   -7.9300    4.6910 C.2    82  GLU82       0.3649
     96  OE1       41.9950   -6.8240    4.8370 O.co2  82  GLU82      -0.2457
     97  OE2       40.5100   -8.3050    5.3920 O.co2  82  GLU82      -0.2457
     98  N         41.3060  -15.7330    1.5190 N.3    85  SER85      -0.1202
     99  CA        42.7300  -16.0220    1.4340 C.3    85  SER85       0.2020
    100  C         43.4240  -16.0450    2.7820 C.2    85  SER85       0.2618
    101  O         44.0130  -17.0420    3.1860 O.2    85  SER85      -0.2717
    102  CB        43.3910  -14.9570    0.5830 C.3    85  SER85       0.2103
    103  OG        42.9100  -15.0340   -0.7380 O.3    85  SER85      -0.2182
    104  N         43.2510  -14.9480    3.5400 N.am   86  ILE86      -0.1979
    105  CA        43.8930  -14.8530    4.8330 C.3    86  ILE86       0.1595
    106  C         43.3860  -15.9900    5.6840 C.2    86  ILE86       0.2287
    107  O         43.9340  -16.2630    6.7340 O.2    86  ILE86      -0.2864
    108  CB        43.5700  -13.5430    5.5390 C.3    86  ILE86       0.0276
    109  CG1       44.1170  -12.3920    4.7290 C.3    86  ILE86       0.0022
    110  CG2       44.1850  -13.5410    6.9170 C.3    86  ILE86       0.0022
    111  CD1       45.5560  -12.5860    4.3410 C.3    86  ILE86       0.0001
    112  N         45.5710  -19.3050    4.2650 N.3    89  VAL89      -0.1245
    113  CA        46.8130  -19.2440    5.0160 C.3    89  VAL89       0.1561
    114  C         46.2700  -19.0060    6.4020 C.2    89  VAL89       0.2260
    115  O         45.2110  -18.4260    6.4920 O.2    89  VAL89      -0.2867
    116  CB        47.6800  -18.0790    4.5510 C.3    89  VAL89       0.0252
    117  CG1       48.4920  -18.4990    3.3470 C.3    89  VAL89       0.0019
    118  CG2       46.8130  -16.8810    4.2040 C.3    89  VAL89       0.0019
@<TRIPOS>BOND
     1    52    49    1
     2    52    53    1
     3    49    48    1
     4    49    50    1
     5    48    54    1
     6    63    61   ar
     7    63    64   ar
     8    53    54    1
     9    66    64   ar
    10    66    68   ar
    11    61    60   ar
    12    64    62   ar
    13    55    50   am
    14    55    56    1
    15    50    51    2
    16    68    67   ar
    17    60    62   ar
    18    60    59    1
    19    62    65   ar
    20    56    59    1
    21    56    57    1
    22    69    57   am
    23    69    70    1
    24    67    65   ar
    25    57    58    2
    26    70    71    1
    27    72    71    2
    28    41    42   ar
    29    41    39   ar
    30    42    40   ar
    31    39    36   ar
    32    87    85    1
    33    40    38   ar
    34    73    74    1
    35    36    38   ar
    36    36    34   ar
    37    78    80    1
    38    78    77    1
    39    85    86    1
    40    85    82    1
    41    38    37   ar
    42    86    88    1
    43    74    77    1
    44    74    75    1
    45    34    33    1
    46    34    35   ar
    47    77    79    1
    48    82    81    1
    49    82    83    1
    50    33    30    1
    51    37    35   ar
    52    32    31    2
    53   103   102    1
    54    75    76    2
    55    30    31    1
    56    30    29    1
    57    31    43   am
    58    83    84    2
    59    83    89   am
    60    43    44    1
    61   102    99    1
    62    44    45    1
    63    44    47    1
    64    46    45    2
    65    89    90    1
    66    99    98    1
    67    99   100    1
    68    18    17    2
    69    90    93    1
    70    90    91    1
    71    93    94    1
    72    17    16    1
    73    17    20   am
    74    16    19    1
    75    16    15    1
    76   100   101    2
    77   100   104   am
    78    91    92    2
    79   117   116    1
    80   104   105    1
    81    94    95    1
    82    22    23    2
    83    22    21    1
    84    20    21    1
    85    21    24    1
    86   118   116    1
    87   112   113    1
    88   111   109    1
    89   116   113    1
    90    95    96   ar
    91    95    97   ar
    92   109   108    1
    93   105   108    1
    94   105   106    1
    95   113   114    1
    96    24    25    1
    97   108   110    1
    98    25    26    1
    99   106   107    2
   100   114   115    2
   101    26    28   am
   102    26    27    2
   103    14    13   ar
   104    14    12   ar
   105    13    11   ar
   106    12    10   ar
   107    11     8   ar
   108    10     8   ar
   109    10     9   ar
   110     8     6   ar
   111     4     3    2
   112     9     7   ar
   113     6     5    1
   114     6     7   ar
   115     2     3    1
   116     2     5    1
   117     2     1    1
