@<TRIPOS>MOLECULE
tmp/4rkuO10.pdb
 182 175 0 0 0
SMALL
GASTEIGER

@<TRIPOS>ATOM
      1  N         43.8330   21.5340  112.7370 N.3     9  TRP9       -0.1241
      2  CA        42.9500   22.6570  112.4730 C.3     9  TRP9        0.1605
      3  C         41.7730   22.5540  113.4360 C.2     9  TRP9        0.2264
      4  O         41.5000   23.4800  114.1920 O.2     9  TRP9       -0.2867
      5  CB        42.5000   22.6860  111.0080 C.3     9  TRP9        0.0550
      6  CG        41.6920   21.5190  110.5580 C.ar    9  TRP9        0.0003
      7  CD1       42.1520   20.2770  110.2430 C.ar    9  TRP9        0.0946
      8  CD2       40.2740   21.4860  110.3570 C.ar    9  TRP9        0.0152
      9  NE1       41.1100   19.4710  109.8570 N.ar    9  TRP9       -0.2442
     10  CE2       39.9450   20.1870  109.9250 C.ar    9  TRP9        0.0810
     11  CE3       39.2520   22.4280  110.5020 C.ar    9  TRP9        0.0012
     12  CZ2       38.6370   19.8050  109.6350 C.ar    9  TRP9        0.0191
     13  CZ3       37.9530   22.0470  110.2160 C.ar    9  TRP9        0.0001
     14  CH2       37.6570   20.7470  109.7870 C.ar    9  TRP9        0.0015
     15  N         47.6670   12.2280  105.8510 N.3    19  LEU19      -0.1245
     16  CA        48.3890   13.3500  106.4110 C.3    19  LEU19       0.1561
     17  C         48.9910   12.8430  107.6980 C.2    19  LEU19       0.2260
     18  O         48.4130   11.9960  108.3660 O.2    19  LEU19      -0.2867
     19  CB        47.4670   14.5410  106.6420 C.3    19  LEU19       0.0270
     20  CG        46.9620   15.2620  105.3930 C.3    19  LEU19       0.0019
     21  CD1       45.9580   16.3100  105.8120 C.3    19  LEU19       0.0001
     22  CD2       48.0810   15.9260  104.6320 C.3    19  LEU19       0.0001
     23  N         55.0350   16.0230  106.1940 N.3    23  LEU23      -0.1231
     24  CA        55.1150   17.1750  105.3090 C.3    23  LEU23       0.1678
     25  C         55.2440   18.4600  106.1200 C.2    23  LEU23       0.2434
     26  O         54.8510   18.4990  107.2850 O.2    23  LEU23      -0.2733
     27  CB        53.8780   17.2340  104.4100 C.3    23  LEU23       0.0284
     28  CG        53.7660   16.1640  103.3240 C.3    23  LEU23       0.0019
     29  CD1       52.3130   15.9740  102.9250 C.3    23  LEU23       0.0001
     30  CD2       54.6130   16.5400  102.1160 C.3    23  LEU23       0.0001
     31  N         55.6760   19.6110  105.4680 N.am   24  PRO24      -0.2718
     32  CA        55.7080   20.8160  106.3100 C.3    24  PRO24       0.1535
     33  C         54.3480   21.4860  106.2600 C.2    24  PRO24       0.2599
     34  O         53.7270   21.4420  105.2230 O.2    24  PRO24      -0.2715
     35  CB        56.7540   21.6970  105.6370 C.3    24  PRO24       0.0310
     36  CG        57.0010   21.1300  104.2900 C.3    24  PRO24       0.0237
     37  CD        55.9580   20.0990  104.0570 C.3    24  PRO24       0.0939
     38  N         53.8890   22.0890  107.3440 N.am   25  GLY25      -0.1941
     39  CA        52.6050   22.7630  107.3370 C.3    25  GLY25       0.2014
     40  C         51.4080   21.8670  107.5290 C.2    25  GLY25       0.2639
     41  O         50.2660   22.2600  107.3920 O.2    25  GLY25      -0.2714
     42  N         51.6750   20.6290  107.8450 N.am   26  ASP26      -0.1957
     43  CA        50.6270   19.6520  108.0400 C.3    26  ASP26       0.1840
     44  C         49.6590   19.9660  109.1960 C.2    26  ASP26       0.2622
     45  O         49.8520   19.4230  110.2700 O.2    26  ASP26      -0.2715
     46  CB        51.3480   18.3210  108.2910 C.3    26  ASP26       0.1450
     47  CG        50.4240   17.1470  108.3630 C.2    26  ASP26       0.3671
     48  OD1       49.3560   17.2970  108.9450 O.co2  26  ASP26      -0.2456
     49  OD2       50.7780   16.0670  107.8540 O.co2  26  ASP26      -0.2456
     50  N         48.6210   20.7930  109.0040 N.am   27  PHE27      -0.1974
     51  CA        47.7280   21.0780  110.1190 C.3    27  PHE27       0.1639
     52  C         46.5830   20.1060  110.1250 C.2    27  PHE27       0.2290
     53  O         45.5100   20.3950  110.6210 O.2    27  PHE27      -0.2864
     54  CB        47.2130   22.4970  110.0750 C.3    27  PHE27       0.0560
     55  CG        48.2920   23.5180  109.9360 C.ar   27  PHE27      -0.0200
     56  CD1       49.3190   23.5750  110.8430 C.ar   27  PHE27      -0.0042
     57  CD2       48.2690   24.4240  108.9060 C.ar   27  PHE27      -0.0042
     58  CE1       50.3180   24.5130  110.7230 C.ar   27  PHE27      -0.0003
     59  CE2       49.2500   25.3770  108.7840 C.ar   27  PHE27      -0.0003
     60  CZ        50.2830   25.4170  109.6930 C.ar   27  PHE27      -0.0000
     61  N         44.6390   18.8340  107.5760 N.3    29  PHE29      -0.1227
     62  CA        43.4150   19.2360  106.8770 C.3    29  PHE29       0.1736
     63  C         43.0370   18.6110  105.5160 C.2    29  PHE29       0.2595
     64  O         43.7630   18.7730  104.5530 O.2    29  PHE29      -0.2718
     65  CB        43.4010   20.7480  106.7380 C.3    29  PHE29       0.0547
     66  CG        42.0290   21.3170  106.7170 C.ar   29  PHE29      -0.0202
     67  CD1       41.0540   20.7590  105.9370 C.ar   29  PHE29      -0.0042
     68  CD2       41.7200   22.4020  107.5040 C.ar   29  PHE29      -0.0042
     69  CE1       39.7860   21.2690  105.9280 C.ar   29  PHE29      -0.0003
     70  CE2       40.4540   22.9230  107.5030 C.ar   29  PHE29      -0.0003
     71  CZ        39.4840   22.3510  106.7100 C.ar   29  PHE29      -0.0000
     72  N         41.9020   17.9110  105.4480 N.am   30  ASP30      -0.1974
     73  CA        41.4190   17.3260  104.1940 C.3    30  ASP30       0.1709
     74  C         40.2520   16.3690  104.3780 C.2    30  ASP30       0.2293
     75  O         40.4090   15.1720  104.1790 O.2    30  ASP30      -0.2864
     76  CB        42.5500   16.6310  103.4500 C.3    30  ASP30       0.1436
     77  CG        42.1140   16.0620  102.1390 C.2    30  ASP30       0.3671
     78  OD1       40.9410   16.2010  101.7830 O.co2  30  ASP30      -0.2456
     79  OD2       42.9480   15.4710  101.4470 O.co2  30  ASP30      -0.2456
     80  N         40.9180   15.0510   99.0980 N.3    34  LEU34      -0.1231
     81  CA        41.5000   15.5640   97.8600 C.3    34  LEU34       0.1693
     82  C         42.9690   15.2860   97.7400 C.2    34  LEU34       0.2592
     83  O         43.7830   16.1660   97.5720 O.2    34  LEU34      -0.2718
     84  CB        41.2340   17.0480   97.7000 C.3    34  LEU34       0.0284
     85  CG        39.8030   17.5410   97.8950 C.3    34  LEU34       0.0019
     86  CD1       39.5250   18.6300   96.8800 C.3    34  LEU34       0.0001
     87  CD2       38.7850   16.4300   97.7380 C.3    34  LEU34       0.0001
     88  N         43.2660   14.0060   97.8120 N.am   35  GLY35      -0.1957
     89  CA        44.5950   13.4410   97.7480 C.3    35  GLY35       0.1869
     90  C         44.8230   12.4740   98.8930 C.2    35  GLY35       0.2309
     91  O         45.2740   12.8180   99.9780 O.2    35  GLY35      -0.2863
     92  N         48.8200   13.2390   96.2810 N.3    41  LEU41      -0.1245
     93  CA        49.3430   14.2340   97.1800 C.3    41  LEU41       0.1561
     94  C         50.6060   14.8580   96.6590 C.2    41  LEU41       0.2260
     95  O         50.7950   16.0590   96.6610 O.2    41  LEU41      -0.2867
     96  CB        49.6410   13.5560   98.5050 C.3    41  LEU41       0.0270
     97  CG        49.4690   14.3330   99.8040 C.3    41  LEU41       0.0019
     98  CD1       48.0190   14.3700  100.2560 C.3    41  LEU41       0.0001
     99  CD2       50.3140   13.6630  100.8640 C.3    41  LEU41       0.0001
    100  N         49.5400   17.3480   94.5280 N.3    44  ASN44      -0.1225
    101  CA        48.8570   18.4240   95.1870 C.3    44  ASN44       0.1785
    102  C         49.8830   19.2610   95.9030 C.2    44  ASN44       0.2597
    103  O         49.8450   20.4750   95.8650 O.2    44  ASN44      -0.2718
    104  CB        47.8590   17.8580   96.1690 C.3    44  ASN44       0.1169
    105  CG        46.7130   17.1860   95.4840 C.2    44  ASN44       0.2627
    106  OD1       46.5950   17.2500   94.2830 O.2    44  ASN44      -0.2716
    107  ND2       45.8560   16.5530   96.2470 N.am   44  ASN44      -0.0877
    108  N         50.8290   18.6070   96.5430 N.am   45  VAL45      -0.1980
    109  CA        51.8570   19.3270   97.2600 C.3    45  VAL45       0.1595
    110  C         52.4980   20.3470   96.3700 C.2    45  VAL45       0.2287
    111  O         52.4530   21.5060   96.6480 O.2    45  VAL45      -0.2864
    112  CB        52.9400   18.3850   97.7780 C.3    45  VAL45       0.0276
    113  CG1       54.0420   19.1690   98.4560 C.3    45  VAL45       0.0022
    114  CG2       52.3450   17.3880   98.7440 C.3    45  VAL45       0.0022
    115  N         51.5530   21.5200   93.7490 N.3    47  ALA47      -0.1231
    116  CA        50.5380   22.4550   93.3340 C.3    47  ALA47       0.1694
    117  C         50.2880   23.5000   94.3840 C.2    47  ALA47       0.2591
    118  O         50.2180   24.6670   94.0800 O.2    47  ALA47      -0.2718
    119  CB        49.2600   21.7150   93.0210 C.3    47  ALA47       0.0304
    120  N         50.1530   23.0750   95.6280 N.am   48  GLU48      -0.1979
    121  CA        49.8870   23.9990   96.7240 C.3    48  GLU48       0.1602
    122  C         51.0760   24.8410   97.0160 C.2    48  GLU48       0.2287
    123  O         50.9820   25.7910   97.7450 O.2    48  GLU48      -0.2864
    124  CB        49.4870   23.2870   98.0050 C.3    48  GLU48       0.0415
    125  CG        49.2670   24.2500   99.1520 C.3    48  GLU48       0.1163
    126  CD        49.5990   23.6610  100.4980 C.2    48  GLU48       0.3649
    127  OE1       50.6930   23.1130  100.6630 O.co2  48  GLU48      -0.2457
    128  OE2       48.7760   23.7590  101.4040 O.co2  48  GLU48      -0.2457
    129  N         51.7090   27.6790   93.8350 N.3    51  HIS51      -0.1241
    130  CA        50.6680   28.6540   93.9780 C.3    51  HIS51       0.1621
    131  C         51.0620   29.7060   94.9510 C.2    51  HIS51       0.2264
    132  O         50.9900   30.8920   94.6780 O.2    51  HIS51      -0.2867
    133  CB        49.4630   27.9750   94.5700 C.3    51  HIS51       0.0745
    134  CG        48.4250   27.6210   93.5700 C.ar   51  HIS51       0.0817
    135  ND1       47.1170   28.0100   93.7060 N.ar   51  HIS51      -0.2268
    136  CD2       48.4980   26.9370   92.4100 C.ar   51  HIS51       0.1154
    137  CE1       46.4180   27.5580   92.6890 C.ar   51  HIS51       0.1986
    138  NE2       47.2340   26.9120   91.8810 N.ar   51  HIS51      -0.2212
    139  N         52.7050   28.3510  105.2710 N.3   112  LYS112     -0.1245
    140  CA        51.6740   29.0700  105.9820 C.3   112  LYS112      0.1561
    141  C         51.5490   30.5120  105.5450 C.2   112  LYS112      0.2260
    142  O         50.4450   30.9960  105.3590 O.2   112  LYS112     -0.2867
    143  CB        51.8480   28.9350  107.4880 C.3   112  LYS112      0.0271
    144  CG        50.9350   29.9180  108.2140 C.3   112  LYS112      0.0035
    145  CD        49.5800   29.2810  108.1570 C.3   112  LYS112      0.0206
    146  CE        48.5940   30.0050  109.0840 C.3   112  LYS112      0.1093
    147  NZ        47.2510   29.8240  108.5350 N.3   112  LYS112     -0.1314
    148  N         50.1230   30.3690  102.3010 N.3   115  ARG115     -0.1245
    149  CA        48.7200   30.0820  102.3750 C.3   115  ARG115      0.1563
    150  C         48.0220   31.3920  102.5540 C.2   115  ARG115      0.2260
    151  O         46.9420   31.5820  102.0830 O.2   115  ARG115     -0.2867
    152  CB        48.4250   29.1940  103.5560 C.3   115  ARG115      0.0307
    153  CG        49.1410   27.8660  103.5320 C.3   115  ARG115      0.0489
    154  CD        48.4100   26.9100  104.4500 C.3   115  ARG115      0.2205
    155  NE        49.1600   25.6880  104.6620 N.pl3 115  ARG115     -0.0865
    156  CZ        48.9930   24.5780  103.9630 C.cat 115  ARG115      0.5346
    157  NH1       48.0980   24.5110  102.9830 N.pl3 115  ARG115      0.1354
    158  NH2       49.7350   23.5310  104.2370 N.pl3 115  ARG115      0.1354
    159  N         47.2800   33.6390   99.2550 N.3   118  MET118     -0.1230
    160  CA        46.2170   33.1400   98.4260 C.3   118  MET118      0.1702
    161  C         44.9010   33.5310   99.0150 C.2   118  MET118      0.2592
    162  O         44.0570   34.0570   98.3200 O.2   118  MET118     -0.2718
    163  CB        46.2940   31.6260   98.3650 C.3   118  MET118      0.0401
    164  CG        47.5870   31.1240   97.7860 C.3   118  MET118      0.0596
    165  SD        47.4790   29.3690   97.5400 S.3   118  MET118     -0.1393
    166  CE        46.6710   28.8770   99.0430 C.3   118  MET118      0.0692
    167  N         44.7370   33.3210  100.3070 N.am  119  LEU119     -0.1980
    168  CA        43.5000   33.7100  100.9370 C.3   119  LEU119      0.1596
    169  C         43.4390   35.2090  100.7990 C.2   119  LEU119      0.2287
    170  O         42.3830   35.7860  100.6000 O.2   119  LEU119     -0.2864
    171  CB        43.4060   33.2440  102.3770 C.3   119  LEU119      0.0297
    172  CG        42.3080   32.1960  102.5260 C.3   119  LEU119      0.0022
    173  CD1       42.1510   31.7060  103.9500 C.3   119  LEU119      0.0001
    174  CD2       40.9960   32.7710  102.0480 C.3   119  LEU119      0.0001
    175  N         43.1010   36.5500   97.2370 N.3   122  MET122     -0.1245
    176  CA        41.7530   36.2090   96.8750 C.3   122  MET122      0.1570
    177  C         40.9080   37.3350   97.4040 C.2   122  MET122      0.2261
    178  O         40.3670   38.1180   96.6690 O.2   122  MET122     -0.2867
    179  CB        41.3650   34.8830   97.5280 C.3   122  MET122      0.0387
    180  CG        39.9570   34.3850   97.2490 C.3   122  MET122      0.0595
    181  SD        39.5820   32.8900   98.1880 S.3   122  MET122     -0.1393
    182  CE        37.8220   32.6930   97.9210 C.3   122  MET122      0.0692
@<TRIPOS>BOND
     1   138   136   ar
     2   138   137   ar
     3   136   134   ar
     4   137   135   ar
     5   119   116    1
     6   116   115    1
     7   116   117    1
     8   134   135   ar
     9   134   133    1
    10   129   130    1
    11   130   133    1
    12   130   131    1
    13   118   117    2
    14   106   105    2
    15   117   120   am
    16   100   101    1
    17   132   131    2
    18   101   102    1
    19   101   104    1
    20   105   104    1
    21   105   107   am
    22   120   121    1
    23   103   102    2
    24   102   108   am
    25    92    93    1
    26   110   111    2
    27   110   109    1
    28   108   109    1
    29    94    95    2
    30    94    93    1
    31   178   177    2
    32   121   122    1
    33   121   124    1
    34   176   175    1
    35   176   177    1
    36   176   179    1
    37    86    85    1
    38   122   123    2
    39    93    96    1
    40   180   179    1
    41   180   181    1
    42   109   112    1
    43   165   164    1
    44   165   166    1
    45    83    82    2
    46    84    81    1
    47    84    85    1
    48    87    85    1
    49    82    88   am
    50    82    81    1
    51    89    88    1
    52    89    90    1
    53   112   113    1
    54   112   114    1
    55   164   163    1
    56    81    80    1
    57   182   181    1
    58   124   125    1
    59   162   161    2
    60   163   160    1
    61   160   161    1
    62   160   159    1
    63    96    97    1
    64    90    91    2
    65   161   167   am
    66   125   126    1
    67    97    98    1
    68    97    99    1
    69   167   168    1
    70   126   127   ar
    71   126   128   ar
    72   170   169    2
    73   169   168    1
    74   168   171    1
    75    79    77   ar
    76    78    77   ar
    77   174   172    1
    78   151   150    2
    79    30    28    1
    80    77    76    1
    81   148   149    1
    82   149   150    1
    83   149   152    1
    84   171   172    1
    85   172   173    1
    86    29    28    1
    87   157   156    1
    88    28    27    1
    89    76    73    1
    90   153   152    1
    91   153   154    1
    92   156   158    1
    93   156   155    2
    94    37    36    1
    95    37    31    1
    96    75    74    2
    97    73    74    1
    98    73    72    1
    99    36    35    1
   100    27    24    1
   101   154   155    1
   102    64    63    2
   103    22    20    1
   104    34    33    2
   105   139   140    1
   106    24    25    1
   107    24    23    1
   108   142   141    2
   109    20    21    1
   110    20    19    1
   111    72    63   am
   112    31    25   am
   113    31    32    1
   114    63    62    1
   115   141   140    1
   116    35    32    1
   117    15    16    1
   118    69    67   ar
   119    69    71   ar
   120    67    66   ar
   121   140   143    1
   122    25    26    2
   123    33    32    1
   124    33    38   am
   125    16    19    1
   126    16    17    1
   127    71    70   ar
   128    66    65    1
   129    66    68   ar
   130    65    62    1
   131    62    61    1
   132    39    38    1
   133    39    40    1
   134    41    40    2
   135   143   144    1
   136    70    68   ar
   137    40    42   am
   138    17    18    2
   139    42    43    1
   140    49    47   ar
   141    43    46    1
   142    43    44    1
   143   145   144    1
   144   145   146    1
   145    46    47    1
   146    47    48   ar
   147   147   146    1
   148    59    57   ar
   149    59    60   ar
   150    57    55   ar
   151    50    44   am
   152    50    51    1
   153    44    45    2
   154    12    14   ar
   155    12    10   ar
   156    60    58   ar
   157    14    13   ar
   158     9    10   ar
   159     9     7   ar
   160    10     8   ar
   161    55    54    1
   162    55    56   ar
   163    54    51    1
   164    51    52    1
   165    52    53    2
   166    13    11   ar
   167     7     6   ar
   168     8    11   ar
   169     8     6   ar
   170     6     5    1
   171    58    56   ar
   172     5     2    1
   173     2     1    1
   174     2     3    1
   175     3     4    2
