@<TRIPOS>MOLECULE
tmp/4rkuP03.pdb
 133 126 0 0 0
SMALL
GASTEIGER

@<TRIPOS>ATOM
      1  N         20.0040   15.9060  126.7390 N.3    19  TYR19      -0.1241
      2  CA        21.2480   16.5620  127.1180 C.3    19  TYR19       0.1605
      3  C         21.1250   18.0490  126.8420 C.2    19  TYR19       0.2264
      4  O         21.3710   18.8750  127.7190 O.2    19  TYR19      -0.2867
      5  CB        22.4270   15.9580  126.3490 C.3    19  TYR19       0.0534
      6  CG        23.7360   16.6910  126.5020 C.ar   19  TYR19      -0.0201
      7  CD1       24.5950   16.4010  127.5490 C.ar   19  TYR19      -0.0009
      8  CD2       24.1210   17.6600  125.5860 C.ar   19  TYR19      -0.0009
      9  CE1       25.7930   17.0630  127.6830 C.ar   19  TYR19       0.0417
     10  CE2       25.3180   18.3250  125.7120 C.ar   19  TYR19       0.0417
     11  CZ        26.1470   18.0270  126.7650 C.ar   19  TYR19       0.1957
     12  OH        27.3410   18.6960  126.8890 O.3    19  TYR19      -0.2866
     13  N         20.7900   21.9290  129.0360 N.3    23  ILE23      -0.1245
     14  CA        21.5760   23.1580  128.8460 C.3    23  ILE23       0.1561
     15  C         20.7660   24.3570  128.3300 C.2    23  ILE23       0.2260
     16  O         21.1290   25.5160  128.5750 O.2    23  ILE23      -0.2867
     17  CB        22.7620   22.8940  127.9000 C.3    23  ILE23       0.0252
     18  CG1       23.7230   21.9030  128.5510 C.3    23  ILE23       0.0019
     19  CG2       23.5010   24.1860  127.5420 C.3    23  ILE23       0.0019
     20  CD1       23.9490   20.6570  127.7430 C.3    23  ILE23       0.0001
     21  N         19.5680   26.6690  130.8820 N.3    26  ARG26      -0.1231
     22  CA        20.4190   27.7860  131.2830 C.3    26  ARG26       0.1694
     23  C         20.3850   29.1020  130.5150 C.2    26  ARG26       0.2592
     24  O         20.6110   30.1630  131.0820 O.2    26  ARG26      -0.2718
     25  CB        21.8710   27.3020  131.3330 C.3    26  ARG26       0.0321
     26  CG        22.0290   25.8320  131.6960 C.3    26  ARG26       0.0489
     27  CD        23.1150   25.1650  130.8730 C.3    26  ARG26       0.2205
     28  NE        24.2680   24.8100  131.6900 N.pl3  26  ARG26      -0.0865
     29  CZ        24.3830   23.6720  132.3550 C.cat  26  ARG26       0.5346
     30  NH1       24.9580   22.6260  131.7830 N.pl3  26  ARG26       0.1354
     31  NH2       23.9220   23.5820  133.5890 N.pl3  26  ARG26       0.1354
     32  N         20.1400   29.0570  129.2280 N.am   27  PHE27      -0.1976
     33  CA        20.0830   30.2960  128.4580 C.3    27  PHE27       0.1639
     34  C         18.6610   30.7190  128.1260 C.2    27  PHE27       0.2290
     35  O         18.4480   31.7810  127.5440 O.2    27  PHE27      -0.2864
     36  CB        20.9230   30.2030  127.1730 C.3    27  PHE27       0.0560
     37  CG        20.5540   29.0590  126.2470 C.ar   27  PHE27      -0.0200
     38  CD1       19.3340   29.0270  125.5800 C.ar   27  PHE27      -0.0042
     39  CD2       21.4690   28.0500  125.9900 C.ar   27  PHE27      -0.0042
     40  CE1       19.0160   27.9880  124.7120 C.ar   27  PHE27      -0.0003
     41  CE2       21.1540   27.0090  125.1150 C.ar   27  PHE27      -0.0003
     42  CZ        19.9270   26.9840  124.4800 C.ar   27  PHE27      -0.0000
     43  N         30.7670   33.0670  119.5380 N.3    65  MET65      -0.1245
     44  CA        29.9080   31.9710  119.9450 C.3    65  MET65       0.1570
     45  C         30.3730   30.7120  119.2420 C.2    65  MET65       0.2261
     46  O         30.3400   29.6160  119.8000 O.2    65  MET65      -0.2867
     47  CB        28.4680   32.2560  119.5450 C.3    65  MET65       0.0387
     48  CG        27.6800   33.0080  120.5830 C.3    65  MET65       0.0595
     49  SD        27.8540   32.1300  122.1230 S.3    65  MET65      -0.1393
     50  CE        29.4540   32.7280  122.6540 C.3    65  MET65       0.0692
     51  N         33.5960   30.0670  117.9400 N.3    67  PHE67      -0.1227
     52  CA        34.8400   29.7670  118.6280 C.3    67  PHE67       0.1736
     53  C         34.6030   29.2710  120.0260 C.2    67  PHE67       0.2595
     54  O         35.4500   28.6450  120.6250 O.2    67  PHE67      -0.2718
     55  CB        35.6440   31.0320  118.7290 C.3    67  PHE67       0.0547
     56  CG        37.0690   30.8670  118.3630 C.ar   67  PHE67      -0.0202
     57  CD1       37.9730   30.4180  119.2790 C.ar   67  PHE67      -0.0042
     58  CD2       37.5030   31.1930  117.1030 C.ar   67  PHE67      -0.0042
     59  CE1       39.2920   30.2900  118.9430 C.ar   67  PHE67      -0.0003
     60  CE2       38.8190   31.0590  116.7540 C.ar   67  PHE67      -0.0003
     61  CZ        39.7170   30.6070  117.6760 C.ar   67  PHE67      -0.0000
     62  N         33.4330   29.5710  120.5480 N.am   68  ALA68      -0.1980
     63  CA        33.0750   29.1440  121.8650 C.3    68  ALA68       0.1597
     64  C         32.3190   27.8520  121.7520 C.2    68  ALA68       0.2287
     65  O         32.9080   26.7890  121.7690 O.2    68  ALA68      -0.2864
     66  CB        32.2300   30.2000  122.5420 C.3    68  ALA68       0.0319
     67  N         34.1590   24.1860  120.5030 N.3    71  ARG71      -0.1231
     68  CA        34.9380   23.4140  121.4780 C.3    71  ARG71       0.1694
     69  C         34.1070   22.6000  122.4610 C.2    71  ARG71       0.2591
     70  O         34.3310   21.4020  122.6390 O.2    71  ARG71      -0.2718
     71  CB        35.8430   24.3480  122.2770 C.3    71  ARG71       0.0321
     72  CG        37.1290   24.7390  121.5770 C.3    71  ARG71       0.0489
     73  CD        37.6010   26.1050  122.0410 C.3    71  ARG71       0.2205
     74  NE        38.9900   26.0800  122.4650 N.pl3  71  ARG71      -0.0865
     75  CZ        39.5080   25.1460  123.2480 C.cat  71  ARG71       0.5346
     76  NH1       38.7480   24.1570  123.6950 N.pl3  71  ARG71       0.1354
     77  NH2       40.7880   25.2020  123.5780 N.pl3  71  ARG71       0.1354
     78  N         33.1390   23.2700  123.0770 N.am   72  ARG72      -0.1980
     79  CA        32.2450   22.6570  124.0490 C.3    72  ARG72       0.1597
     80  C         31.8150   21.2860  123.6070 C.2    72  ARG72       0.2287
     81  O         31.6240   20.4020  124.4260 O.2    72  ARG72      -0.2864
     82  CB        30.9970   23.5120  124.2840 C.3    72  ARG72       0.0334
     83  CG        30.8960   24.7720  123.4390 C.3    72  ARG72       0.0492
     84  CD        30.7950   26.0170  124.3080 C.3    72  ARG72       0.2205
     85  NE        32.0220   26.8020  124.2540 N.pl3  72  ARG72      -0.0865
     86  CZ        32.2010   27.9690  124.8570 C.cat  72  ARG72       0.5346
     87  NH1       31.2290   28.4920  125.5850 N.pl3  72  ARG72       0.1354
     88  NH2       33.3580   28.6080  124.7380 N.pl3  72  ARG72       0.1354
     89  N         34.7840   18.6530  123.7880 N.3    75  ASP75      -0.1239
     90  CA        34.9260   17.9600  125.0510 C.3    75  ASP75       0.1674
     91  C         34.0290   16.7470  125.0220 C.2    75  ASP75       0.2266
     92  O         34.4740   15.6210  125.2060 O.2    75  ASP75      -0.2867
     93  CB        34.5290   18.8450  126.2180 C.3    75  ASP75       0.1410
     94  CG        34.4510   18.0780  127.5060 C.2    75  ASP75       0.3668
     95  OD1       33.5290   17.2630  127.6580 O.co2  75  ASP75      -0.2456
     96  OD2       35.3330   18.2600  128.3500 O.co2  75  ASP75      -0.2456
     97  N         40.5150   18.9220  124.5680 N.3    81  SER81      -0.1217
     98  CA        40.4390   19.9480  123.5590 C.3    81  SER81       0.1889
     99  C         41.9410   20.2200  123.4360 C.2    81  SER81       0.2288
    100  O         42.6130   19.5970  122.6260 O.2    81  SER81      -0.2866
    101  CB        39.6900   21.1670  124.0780 C.3    81  SER81       0.2089
    102  OG        39.2670   22.0080  123.0240 O.3    81  SER81      -0.2183
    103  N         43.6840   26.4460  129.4720 N.3    86  ASN86      -0.1240
    104  CA        42.4210   26.0060  128.9070 C.3    86  ASN86       0.1653
    105  C         41.7130   24.8840  129.6700 C.2    86  ASN86       0.2266
    106  O         40.5060   24.7270  129.5410 O.2    86  ASN86      -0.2867
    107  CB        42.6800   25.5400  127.4840 C.3    86  ASN86       0.1155
    108  CG        43.7350   24.4600  127.4180 C.2    86  ASN86       0.2627
    109  OD1       44.7230   24.5810  126.7010 O.2    86  ASN86      -0.2716
    110  ND2       43.5300   23.3990  128.1770 N.am   86  ASN86      -0.0877
    111  N         40.0580   21.4470  130.9650 N.3    88  ALA88      -0.1245
    112  CA        38.6740   20.9880  130.9640 C.3    88  ALA88       0.1562
    113  C         38.5960   19.5210  131.3890 C.2    88  ALA88       0.2260
    114  O         38.0360   18.6860  130.6820 O.2    88  ALA88      -0.2867
    115  CB        38.0580   21.1770  129.5870 C.3    88  ALA88       0.0290
    116  N         29.1160   15.9790  131.1090 N.3    93  PRO93      -0.2116
    117  CA        27.8510   16.6540  131.4500 C.3    93  PRO93       0.1372
    118  C         28.0970   18.0280  132.0710 C.2    93  PRO93       0.2244
    119  O         27.3980   18.9800  131.7280 O.2    93  PRO93      -0.2868
    120  CB        27.2070   15.7220  132.4850 C.3    93  PRO93       0.0268
    121  CG        27.7500   14.3770  132.1800 C.3    93  PRO93       0.0207
    122  CD        29.1860   14.6810  131.9160 C.3    93  PRO93       0.0892
    123  N         31.3620   20.8370  133.6650 N.3    95  PHE95      -0.1241
    124  CA        32.7760   21.1420  133.8740 C.3    95  PHE95       0.1605
    125  C         32.9430   22.3920  134.7290 C.2    95  PHE95       0.2264
    126  O         33.3710   23.4380  134.2440 O.2    95  PHE95      -0.2867
    127  CB        33.4750   21.3410  132.5330 C.3    95  PHE95       0.0534
    128  CG        32.9780   20.4270  131.4510 C.ar   95  PHE95      -0.0203
    129  CD1       31.7690   20.6760  130.8220 C.ar   95  PHE95      -0.0042
    130  CD2       33.7140   19.3190  131.0660 C.ar   95  PHE95      -0.0042
    131  CE1       31.3050   19.8390  129.8260 C.ar   95  PHE95      -0.0003
    132  CE2       33.2570   18.4780  130.0690 C.ar   95  PHE95      -0.0003
    133  CZ        32.0500   18.7390  129.4480 C.ar   95  PHE95      -0.0000
@<TRIPOS>BOND
     1    60    58   ar
     2    60    61   ar
     3    58    56   ar
     4    61    59   ar
     5    51    52    1
     6    56    55    1
     7    56    57   ar
     8    52    55    1
     9    52    53    1
    10    59    57   ar
    11    45    46    2
    12    45    44    1
    13    43    44    1
    14    47    44    1
    15    47    48    1
    16    53    62   am
    17    53    54    2
    18    67    68    1
    19    62    63    1
    20    48    49    1
    21    68    71    1
    22    68    69    1
    23    72    73    1
    24    72    71    1
    25    64    65    2
    26    64    63    1
    27    63    66    1
    28    73    74    1
    29    49    50    1
    30    69    70    2
    31    69    78   am
    32    74    75    2
    33   100    99    2
    34   102   101    1
    35    78    79    1
    36    75    77    1
    37    75    76    1
    38    99    98    1
    39    83    82    1
    40    83    84    1
    41    98   101    1
    42    98    97    1
    43    80    79    1
    44    80    81    2
    45    89    90    1
    46    79    82    1
    47    85    84    1
    48    85    86    2
    49    42    40   ar
    50    42    41   ar
    51    40    38   ar
    52    88    86    1
    53    86    87    1
    54    91    90    1
    55    91    92    2
    56    90    93    1
    57    41    39   ar
    58    38    37   ar
    59     8    10   ar
    60     8     6   ar
    61    10    11   ar
    62    39    37   ar
    63    93    94    1
    64    37    36    1
    65     5     6    1
    66     5     2    1
    67     6     7   ar
    68   109   108    2
    69     1     2    1
    70    11    12    1
    71    11     9   ar
    72     3     2    1
    73     3     4    2
    74    36    33    1
    75   108   107    1
    76   108   110   am
    77   107   104    1
    78    94    95   ar
    79    94    96   ar
    80    19    17    1
    81    35    34    2
    82     7     9   ar
    83    20    18    1
    84    17    18    1
    85    17    14    1
    86    34    33    1
    87    15    16    2
    88    15    14    1
    89    33    32    1
    90    14    13    1
    91   104   103    1
    92   104   105    1
    93    32    23   am
    94   133   131   ar
    95   133   132   ar
    96   106   105    2
    97   115   112    1
    98   131   129   ar
    99   132   130   ar
   100    23    24    2
   101    23    22    1
   102   114   113    2
   103   129   128   ar
   104    27    28    1
   105    27    26    1
   106    21    22    1
   107   112   111    1
   108   112   113    1
   109   130   128   ar
   110   116   117    1
   111   116   122    1
   112    22    25    1
   113    25    26    1
   114   117   118    1
   115   117   120    1
   116   128   127    1
   117    28    29    2
   118   119   118    2
   119    30    29    1
   120   122   121    1
   121   121   120    1
   122    29    31    1
   123   127   124    1
   124   123   124    1
   125   124   125    1
   126   126   125    2
