@<TRIPOS>MOLECULE
tmp/4rkuB37.pdb
 111 108 0 0 0
SMALL
GASTEIGER

@<TRIPOS>ATOM
      1  N         15.2750  -15.3210   45.5430 N.3   385  PHE385     -0.1241
      2  CA        16.1460  -15.3310   46.7090 C.3   385  PHE385      0.1605
      3  C         15.6530  -16.3010   47.7790 C.2   385  PHE385      0.2264
      4  O         16.3000  -16.4700   48.8090 O.2   385  PHE385     -0.2867
      5  CB        16.2590  -13.9280   47.3060 C.3   385  PHE385      0.0534
      6  CG        17.3970  -13.1170   46.7570 C.ar  385  PHE385     -0.0203
      7  CD1       18.7050  -13.5510   46.8950 C.ar  385  PHE385     -0.0042
      8  CD2       17.1630  -11.9030   46.1280 C.ar  385  PHE385     -0.0042
      9  CE1       19.7560  -12.8010   46.3970 C.ar  385  PHE385     -0.0003
     10  CE2       18.2110  -11.1470   45.6310 C.ar  385  PHE385     -0.0003
     11  CZ        19.5080  -11.5970   45.7670 C.ar  385  PHE385     -0.0000
     12  N         30.6890  -11.1380   52.1230 N.3   416  ILE416     -0.1245
     13  CA        29.5740  -10.6310   51.3330 C.3   416  ILE416      0.1561
     14  C         28.5230   -9.9740   52.2230 C.2   416  ILE416      0.2260
     15  O         27.9990   -8.9100   51.8970 O.2   416  ILE416     -0.2867
     16  CB        28.9120  -11.7550   50.5120 C.3   416  ILE416      0.0252
     17  CG1       29.9650  -12.5290   49.7150 C.3   416  ILE416      0.0019
     18  CG2       27.8430  -11.1900   49.5920 C.3   416  ILE416      0.0019
     19  CD1       29.3920  -13.6670   48.8990 C.3   416  ILE416      0.0001
     20  N         29.7190   -6.4890   54.0320 N.3   419  HIS419     -0.1226
     21  CA        29.8140   -5.3480   53.1290 C.3   419  HIS419      0.1752
     22  C         28.4350   -4.9010   52.6640 C.2   419  HIS419      0.2595
     23  O         28.2150   -3.7220   52.3830 O.2   419  HIS419     -0.2718
     24  CB        30.7000   -5.6860   51.9310 C.3   419  HIS419      0.0759
     25  CG        32.1230   -5.9590   52.3010 C.ar  419  HIS419      0.0818
     26  ND1       32.4880   -7.0030   53.1240 N.ar  419  HIS419     -0.2268
     27  CD2       33.2690   -5.3160   51.9760 C.ar  419  HIS419      0.1154
     28  CE1       33.7990   -6.9960   53.2840 C.ar  419  HIS419      0.1986
     29  NE2       34.2970   -5.9840   52.5990 N.ar  419  HIS419     -0.2212
     30  N         27.5080   -5.8480   52.5800 N.am  420  LEU420     -0.1980
     31  CA        26.1150   -5.5130   52.3290 C.3   420  LEU420      0.1596
     32  C         25.5580   -4.7480   53.5210 C.2   420  LEU420      0.2287
     33  O         24.7530   -3.8310   53.3620 O.2   420  LEU420     -0.2864
     34  CB        25.2900   -6.7700   52.0570 C.3   420  LEU420      0.0297
     35  CG        25.1820   -7.1530   50.5820 C.3   420  LEU420      0.0022
     36  CD1       24.6400   -8.5580   50.4240 C.3   420  LEU420      0.0001
     37  CD2       24.3050   -6.1550   49.8430 C.3   420  LEU420      0.0001
     38  N         27.4920   -2.8780   55.5170 N.3   422  TRP422     -0.1227
     39  CA        28.1360   -1.5750   55.3950 C.3   422  TRP422      0.1737
     40  C         27.4330   -0.6980   54.3640 C.2   422  TRP422      0.2595
     41  O         27.0830    0.4460   54.6520 O.2   422  TRP422     -0.2718
     42  CB        29.6140   -1.7260   55.0210 C.3   422  TRP422      0.0564
     43  CG        30.2820   -0.4140   54.7320 C.ar  422  TRP422      0.0003
     44  CD1       30.8290    0.4440   55.6400 C.ar  422  TRP422      0.0946
     45  CD2       30.4690    0.1910   53.4460 C.ar  422  TRP422      0.0152
     46  NE1       31.3430    1.5460   55.0010 N.ar  422  TRP422     -0.2442
     47  CE2       31.1360    1.4150   53.6520 C.ar  422  TRP422      0.0810
     48  CE3       30.1380   -0.1830   52.1400 C.ar  422  TRP422      0.0012
     49  CZ2       31.4790    2.2660   52.6030 C.ar  422  TRP422      0.0191
     50  CZ3       30.4770    0.6630   51.0990 C.ar  422  TRP422      0.0001
     51  CH2       31.1410    1.8720   51.3370 C.ar  422  TRP422      0.0015
     52  N         27.2290   -1.2410   53.1670 N.am  423  ALA423     -0.1980
     53  CA        26.5820   -0.5020   52.0870 C.3   423  ALA423      0.1597
     54  C         25.1740   -0.0740   52.4830 C.2   423  ALA423      0.2287
     55  O         24.7320    1.0180   52.1340 O.2   423  ALA423     -0.2864
     56  CB        26.5450   -1.3370   50.8200 C.3   423  ALA423      0.0319
     57  N         16.4010    8.2440   44.8720 N.3   518  HIS518     -0.1241
     58  CA        17.1720    7.1990   44.2040 C.3   518  HIS518      0.1621
     59  C         18.1270    6.5090   45.1760 C.2   518  HIS518      0.2264
     60  O         18.4280    5.3260   45.0270 O.2   518  HIS518     -0.2867
     61  CB        17.9510    7.7730   43.0210 C.3   518  HIS518      0.0745
     62  CG        17.1710    7.8070   41.7420 C.ar  518  HIS518      0.0817
     63  ND1       16.1780    8.7310   41.4970 N.ar  518  HIS518     -0.2268
     64  CD2       17.2390    7.0280   40.6370 C.ar  518  HIS518      0.1154
     65  CE1       15.6700    8.5200   40.2960 C.ar  518  HIS518      0.1986
     66  NE2       16.2950    7.4910   39.7540 N.ar  518  HIS518     -0.2212
     67  N         15.9310    4.2500   47.3290 N.3   521  ILE521     -0.1231
     68  CA        15.6780    3.0130   46.6030 C.3   521  ILE521      0.1692
     69  C         16.9170    2.1210   46.6200 C.2   521  ILE521      0.2591
     70  O         16.8160    0.9050   46.7840 O.2   521  ILE521     -0.2718
     71  CB        15.2590    3.2880   45.1470 C.3   521  ILE521      0.0266
     72  CG1       14.0120    4.1740   45.1100 C.3   521  ILE521      0.0019
     73  CG2       15.0060    1.9840   44.4120 C.3   521  ILE521      0.0020
     74  CD1       13.5770    4.5700   43.7160 C.3   521  ILE521      0.0001
     75  N         18.0860    2.7360   46.4540 N.am  522  ALA522     -0.1980
     76  CA        19.3520    2.0160   46.5320 C.3   522  ALA522      0.1597
     77  C         19.5300    1.4150   47.9210 C.2   522  ALA522      0.2287
     78  O         20.0690    0.3180   48.0720 O.2   522  ALA522     -0.2864
     79  CB        20.5130    2.9360   46.1960 C.3   522  ALA522      0.0319
     80  N         17.1510   -1.6250   48.0150 N.3   525  LEU525     -0.1231
     81  CA        17.6950   -2.7710   47.2930 C.3   525  LEU525      0.1693
     82  C         18.7580   -3.4910   48.1160 C.2   525  LEU525      0.2592
     83  O         18.6730   -4.6990   48.3320 O.2   525  LEU525     -0.2718
     84  CB        18.2840   -2.3340   45.9500 C.3   525  LEU525      0.0284
     85  CG        17.2950   -1.7750   44.9260 C.3   525  LEU525      0.0019
     86  CD1       18.0150   -1.3650   43.6550 C.3   525  LEU525      0.0001
     87  CD2       16.2120   -2.7950   44.6220 C.3   525  LEU525      0.0001
     88  N         19.7530   -2.7400   48.5790 N.am  526  HIS526     -0.1976
     89  CA        20.8770   -3.3120   49.3150 C.3   526  HIS526      0.1656
     90  C         20.4430   -4.0300   50.5820 C.2   526  HIS526      0.2291
     91  O         20.9000   -5.1400   50.8590 O.2   526  HIS526     -0.2864
     92  CB        21.8880   -2.2250   49.6720 C.3   526  HIS526      0.0771
     93  CG        22.5860   -1.6430   48.4860 C.ar  526  HIS526      0.0820
     94  ND1       21.9140   -1.0050   47.4670 N.ar  526  HIS526     -0.2267
     95  CD2       23.8980   -1.6070   48.1530 C.ar  526  HIS526      0.1154
     96  CE1       22.7810   -0.5980   46.5590 C.ar  526  HIS526      0.1986
     97  NE2       23.9920   -0.9480   46.9520 N.ar  526  HIS526     -0.2212
     98  N         18.5490   -7.2370   49.7590 N.3   529  THR529     -0.1218
     99  CA        19.5130   -8.2430   49.3180 C.3   529  THR529      0.1862
    100  C         20.3560   -8.7450   50.4810 C.2   529  THR529      0.2287
    101  O         20.7240   -9.9130   50.5270 O.2   529  THR529     -0.2866
    102  CB        20.4550   -7.7030   48.2290 C.3   529  THR529      0.1770
    103  OG1       21.1020   -6.5140   48.7000 O.3   529  THR529     -0.2211
    104  CG2       19.6800   -7.3880   46.9680 C.3   529  THR529      0.0375
    105  N         20.3530  -12.7990   51.0250 N.3   533  VAL533     -0.1245
    106  CA        21.5540  -13.5990   50.8170 C.3   533  VAL533      0.1561
    107  C         22.0640  -14.1460   52.1470 C.2   533  VAL533      0.2260
    108  O         22.6390  -15.2320   52.1940 O.2   533  VAL533     -0.2867
    109  CB        22.6850  -12.8020   50.1150 C.3   533  VAL533      0.0252
    110  CG1       22.1670  -12.1470   48.8470 C.3   533  VAL533      0.0019
    111  CG2       23.2940  -11.7670   51.0480 C.3   533  VAL533      0.0019
@<TRIPOS>BOND
     1    66    65   ar
     2    66    64   ar
     3    65    63   ar
     4    64    62   ar
     5    63    62   ar
     6    62    61    1
     7    61    58    1
     8    86    85    1
     9    74    72    1
    10    58    57    1
    11    58    59    1
    12    73    71    1
    13    87    85    1
    14    85    84    1
    15    60    59    2
    16    72    71    1
    17    71    68    1
    18     1     2    1
    19    10    11   ar
    20    10     8   ar
    21    11     9   ar
    22    84    81    1
    23     8     6   ar
    24    79    76    1
    25     9     7   ar
    26    75    76    1
    27    75    69   am
    28    76    77    1
    29    96    97   ar
    30    96    94   ar
    31    68    69    1
    32    68    67    1
    33    69    70    2
    34     2     5    1
    35     2     3    1
    36     6     7   ar
    37     6     5    1
    38    97    95   ar
    39   104   102    1
    40    81    80    1
    41    81    82    1
    42    94    93   ar
    43     3     4    2
    44    77    78    2
    45    82    83    2
    46    82    88   am
    47    95    93   ar
    48   102   103    1
    49   102    99    1
    50    93    92    1
    51    88    89    1
    52   110   109    1
    53    19    17    1
    54    89    92    1
    55    89    90    1
    56    99    98    1
    57    99   100    1
    58    18    16    1
    59    17    16    1
    60    37    35    1
    61   109   106    1
    62   109   111    1
    63    36    35    1
    64   100   101    2
    65    16    13    1
    66    90    91    2
    67    35    34    1
    68   106   105    1
    69   106   107    1
    70    56    53    1
    71    50    51   ar
    72    50    48   ar
    73    13    12    1
    74    13    14    1
    75    51    49   ar
    76    15    14    2
    77    24    25    1
    78    24    21    1
    79    27    25   ar
    80    27    29   ar
    81    34    31    1
    82    53    54    1
    83    53    52    1
    84    55    54    2
    85    48    45   ar
    86   107   108    2
    87    25    26   ar
    88    31    30    1
    89    31    32    1
    90    23    22    2
    91    30    22   am
    92    29    28   ar
    93    49    47   ar
    94    22    21    1
    95    26    28   ar
    96    21    20    1
    97    52    40   am
    98    33    32    2
    99    45    47   ar
   100    45    43   ar
   101    47    46   ar
   102    40    41    2
   103    40    39    1
   104    43    42    1
   105    43    44   ar
   106    46    44   ar
   107    42    39    1
   108    39    38    1
