@<TRIPOS>MOLECULE
tmp/4rkuO02.pdb
 104 103 0 0 0
SMALL
GASTEIGER

@<TRIPOS>ATOM
      1  N         53.6640   32.0420   94.0510 N.3    54  TRP54      -0.1241
      2  CA        53.1370   33.0890   93.1950 C.3    54  TRP54       0.1605
      3  C         52.3210   34.0680   94.0090 C.2    54  TRP54       0.2264
      4  O         52.5070   35.2630   93.9120 O.2    54  TRP54      -0.2867
      5  CB        52.3020   32.5050   92.0780 C.3    54  TRP54       0.0550
      6  CG        53.0800   31.7810   91.0590 C.ar   54  TRP54       0.0003
      7  CD1       53.1350   30.4450   90.8880 C.ar   54  TRP54       0.0946
      8  CD2       53.9080   32.3500   90.0460 C.ar   54  TRP54       0.0152
      9  NE1       53.9440   30.1350   89.8310 N.ar   54  TRP54      -0.2442
     10  CE2       54.4350   31.2930   89.2990 C.ar   54  TRP54       0.0810
     11  CE3       54.2620   33.6480   89.7060 C.ar   54  TRP54       0.0012
     12  CZ2       55.2930   31.4930   88.2350 C.ar   54  TRP54       0.0191
     13  CZ3       55.1160   33.8400   88.6470 C.ar   54  TRP54       0.0001
     14  CH2       55.6200   32.7710   87.9260 C.ar   54  TRP54       0.0015
     15  N         49.4090   49.0120   80.5350 N.3    70  GLU70      -0.1231
     16  CA        50.6770   48.8960   81.2560 C.3    70  GLU70       0.1699
     17  C         51.7400   48.2160   80.4040 C.2    70  GLU70       0.2592
     18  O         52.3070   47.2190   80.7940 O.2    70  GLU70      -0.2718
     19  CB        50.4870   48.1510   82.5730 C.3    70  GLU70       0.0402
     20  CG        49.5600   48.8450   83.5390 C.3    70  GLU70       0.1161
     21  CD        50.0560   50.1510   84.0720 C.2    70  GLU70       0.3649
     22  OE1       51.2710   50.4640   83.9640 O.co2  70  GLU70      -0.2457
     23  OE2       49.2260   50.8190   84.7060 O.co2  70  GLU70      -0.2457
     24  N         52.0060   48.7720   79.2340 N.am   71  TYR71      -0.1962
     25  CA        52.9850   48.1770   78.3690 C.3    71  TYR71       0.1771
     26  C         53.3470   48.9930   77.1490 C.2    71  TYR71       0.2619
     27  O         52.7000   49.9610   76.7950 O.2    71  TYR71      -0.2715
     28  CB        52.4820   46.8080   77.9410 C.3    71  TYR71       0.0574
     29  CG        53.5770   45.7750   77.9290 C.ar   71  TYR71      -0.0198
     30  CD1       53.9150   45.0820   79.0930 C.ar   71  TYR71      -0.0009
     31  CD2       54.3170   45.5300   76.7740 C.ar   71  TYR71      -0.0009
     32  CE1       54.9650   44.1750   79.1090 C.ar   71  TYR71       0.0417
     33  CE2       55.3690   44.6260   76.7770 C.ar   71  TYR71       0.0417
     34  CZ        55.6900   43.9540   77.9460 C.ar   71  TYR71       0.1957
     35  OH        56.7400   43.0650   77.9430 O.3    71  TYR71      -0.2866
     36  N         54.4130   48.5480   76.5180 N.am   72  PHE72      -0.1974
     37  CA        54.9640   49.1430   75.3410 C.3    72  PHE72       0.1639
     38  C         54.3820   48.4570   74.1130 C.2    72  PHE72       0.2290
     39  O         54.7440   48.7890   72.9990 O.2    72  PHE72      -0.2864
     40  CB        56.4790   48.9760   75.4280 C.3    72  PHE72       0.0560
     41  CG        57.2610   49.8880   74.5310 C.ar   72  PHE72      -0.0200
     42  CD1       56.7260   51.0690   74.0740 C.ar   72  PHE72      -0.0042
     43  CD2       58.5640   49.5900   74.1980 C.ar   72  PHE72      -0.0042
     44  CE1       57.4590   51.9140   73.2630 C.ar   72  PHE72      -0.0003
     45  CE2       59.3010   50.4260   73.3850 C.ar   72  PHE72      -0.0003
     46  CZ        58.7480   51.5930   72.9180 C.ar   72  PHE72      -0.0000
     47  N         51.0480   46.3610   74.8230 N.3    74  ASP74      -0.1225
     48  CA        49.9780   45.6850   75.5770 C.3    74  ASP74       0.1805
     49  C         49.6080   44.2580   75.1750 C.2    74  ASP74       0.2598
     50  O         49.2180   44.0020   74.0360 O.2    74  ASP74      -0.2718
     51  CB        48.7030   46.5410   75.6180 C.3    74  ASP74       0.1424
     52  CG        47.5580   45.8460   76.3450 C.2    74  ASP74       0.3668
     53  OD1       47.8560   44.9620   77.1760 O.co2  74  ASP74      -0.2456
     54  OD2       46.3790   46.1660   76.0750 O.co2  74  ASP74      -0.2456
     55  N         49.7160   43.3420   76.1330 N.am   75  THR75      -0.1953
     56  CA        49.3680   41.9630   75.8840 C.3    75  THR75       0.1897
     57  C         50.0400   41.5000   74.6180 C.2    75  THR75       0.2313
     58  O         51.1040   42.0280   74.2730 O.2    75  THR75      -0.2863
     59  CB        47.8700   41.8840   75.7000 C.3    75  THR75       0.1794
     60  OG1       47.2650   42.6300   76.7560 O.3    75  THR75      -0.2208
     61  CG2       47.3970   40.4380   75.7230 C.3    75  THR75       0.0378
     62  N         53.8210   40.6730   74.7750 N.3    78  LEU78      -0.1245
     63  CA        54.1510   40.5550   76.1840 C.3    78  LEU78       0.1561
     64  C         53.7820   39.2290   76.8060 C.2    78  LEU78       0.2260
     65  O         54.3300   38.8460   77.8340 O.2    78  LEU78      -0.2867
     66  CB        53.5010   41.6760   76.9840 C.3    78  LEU78       0.0270
     67  CG        51.9830   41.7810   77.0100 C.3    78  LEU78       0.0019
     68  CD1       51.2960   40.4800   77.3670 C.3    78  LEU78       0.0001
     69  CD2       51.6100   42.8320   78.0310 C.3    78  LEU78       0.0001
     70  N         55.9880   36.0680   74.7840 N.3    81  VAL81      -0.1231
     71  CA        57.3090   36.0290   75.4050 C.3    81  VAL81       0.1692
     72  C         57.2020   35.4210   76.7900 C.2    81  VAL81       0.2591
     73  O         58.0670   34.6600   77.2250 O.2    81  VAL81      -0.2718
     74  CB        57.9230   37.4220   75.5250 C.3    81  VAL81       0.0266
     75  CG1       59.4390   37.3260   75.6240 C.3    81  VAL81       0.0020
     76  CG2       57.5130   38.2620   74.3500 C.3    81  VAL81       0.0020
     77  N         56.1260   35.7790   77.4800 N.am   82  GLU82      -0.1979
     78  CA        55.8110   35.2010   78.7750 C.3    82  GLU82       0.1602
     79  C         55.5060   33.7130   78.6280 C.2    82  GLU82       0.2287
     80  O         56.0770   32.8850   79.3400 O.2    82  GLU82      -0.2864
     81  CB        54.6350   35.9500   79.4160 C.3    82  GLU82       0.0415
     82  CG        53.7490   35.1270   80.3380 C.3    82  GLU82       0.1163
     83  CD        52.9460   35.9900   81.3010 C.2    82  GLU82       0.3649
     84  OE1       53.1800   37.2180   81.3440 O.co2  82  GLU82      -0.2457
     85  OE2       52.0830   35.4400   82.0180 O.co2  82  GLU82      -0.2457
     86  N         58.5810   32.0250   77.7110 N.3    85  PHE85      -0.1227
     87  CA        59.5750   32.0380   78.7510 C.3    85  PHE85       0.1736
     88  C         59.1810   31.2120   79.9510 C.2    85  PHE85       0.2595
     89  O         59.8840   30.2990   80.3100 O.2    85  PHE85      -0.2718
     90  CB        59.9050   33.4700   79.1190 C.3    85  PHE85       0.0547
     91  CG        60.8920   34.1110   78.1880 C.ar   85  PHE85      -0.0202
     92  CD1       62.0470   33.4470   77.8370 C.ar   85  PHE85      -0.0042
     93  CD2       60.6810   35.3680   77.6780 C.ar   85  PHE85      -0.0042
     94  CE1       62.9710   34.0170   76.9880 C.ar   85  PHE85      -0.0003
     95  CE2       61.6080   35.9460   76.8390 C.ar   85  PHE85      -0.0003
     96  CZ        62.7500   35.2720   76.4900 C.ar   85  PHE85      -0.0000
     97  N         58.0590   31.5210   80.5690 N.am   86  ILE86      -0.1980
     98  CA        57.6280   30.7480   81.7100 C.3    86  ILE86       0.1595
     99  C         57.3140   29.3350   81.2810 C.2    86  ILE86       0.2287
    100  O         57.1810   28.4390   82.0980 O.2    86  ILE86      -0.2864
    101  CB        56.3810   31.3410   82.3260 C.3    86  ILE86       0.0276
    102  CG1       56.6740   32.7520   82.7820 C.3    86  ILE86       0.0022
    103  CG2       55.9400   30.4910   83.4940 C.3    86  ILE86       0.0022
    104  CD1       55.6020   33.7340   82.4190 C.3    86  ILE86       0.0001
@<TRIPOS>BOND
     1    46    44   ar
     2    46    45   ar
     3    39    38    2
     4    44    42   ar
     5    45    43   ar
     6    50    49    2
     7    42    41   ar
     8    38    37    1
     9    43    41   ar
    10    58    57    2
    11    76    74    1
    12    41    40    1
    13    57    56    1
    14    62    63    1
    15    70    71    1
    16    47    48    1
    17    49    48    1
    18    49    55   am
    19    37    40    1
    20    37    36    1
    21    71    74    1
    22    71    72    1
    23    74    75    1
    24    48    51    1
    25    51    52    1
    26    59    61    1
    27    59    56    1
    28    59    60    1
    29    56    55    1
    30    54    52   ar
    31    63    64    1
    32    63    66    1
    33    52    53   ar
    34    96    95   ar
    35    96    94   ar
    36    36    26   am
    37    31    33   ar
    38    31    29   ar
    39    33    34   ar
    40    72    73    2
    41    72    77   am
    42    27    26    2
    43    64    65    2
    44    95    93   ar
    45    66    67    1
    46    94    92   ar
    47    67    68    1
    48    67    69    1
    49    26    25    1
    50    77    78    1
    51    93    91   ar
    52    86    87    1
    53    92    91   ar
    54    29    28    1
    55    29    30   ar
    56    28    25    1
    57    35    34    1
    58    34    32   ar
    59    91    90    1
    60    25    24    1
    61    79    78    1
    62    79    80    2
    63    87    90    1
    64    87    88    1
    65    78    81    1
    66    30    32   ar
    67    24    17   am
    68    81    82    1
    69    88    89    2
    70    88    97   am
    71    82    83    1
    72    17    18    2
    73    17    16    1
    74    15    16    1
    75    97    98    1
    76    16    19    1
    77    99    98    1
    78    99   100    2
    79    83    84   ar
    80    83    85   ar
    81    98   101    1
    82   101   102    1
    83   101   103    1
    84   104   102    1
    85    19    20    1
    86    20    21    1
    87    22    21   ar
    88    21    23   ar
    89    14    12   ar
    90    14    13   ar
    91    12    10   ar
    92    13    11   ar
    93    10     9   ar
    94    10     8   ar
    95    11     8   ar
    96     9     7   ar
    97     8     6   ar
    98     7     6   ar
    99     6     5    1
   100     5     2    1
   101     2     3    1
   102     2     1    1
   103     4     3    2
