@<TRIPOS>MOLECULE
tmp/4rkuF01.pdb
 98 94 0 0 0
SMALL
GASTEIGER

@<TRIPOS>ATOM
      1  N         23.3260   38.0760   55.7390 N.3    49  ARG49      -0.1231
      2  CA        24.7150   37.6400   55.6630 C.3    49  ARG49       0.1694
      3  C         24.8630   36.3000   54.9520 C.2    49  ARG49       0.2591
      4  O         25.7350   36.1410   54.0950 O.2    49  ARG49      -0.2718
      5  CB        25.3220   37.5450   57.0630 C.3    49  ARG49       0.0321
      6  CG        26.6970   36.9080   57.0920 C.3    49  ARG49       0.0489
      7  CD        27.1510   36.6320   58.5130 C.3    49  ARG49       0.2205
      8  NE        28.3610   35.8180   58.5430 N.pl3  49  ARG49      -0.0865
      9  CZ        28.9830   35.4460   59.6570 C.cat  49  ARG49       0.5346
     10  NH1       28.5100   35.8170   60.8380 N.pl3  49  ARG49       0.1354
     11  NH2       30.0790   34.7030   59.5900 N.pl3  49  ARG49       0.1354
     12  N         24.0180   35.3370   55.3090 N.am   50  ARG50      -0.1980
     13  CA        24.1160   34.0020   54.7310 C.3    50  ARG50       0.1597
     14  C         23.7240   34.0250   53.2570 C.2    50  ARG50       0.2287
     15  O         24.2720   33.2750   52.4510 O.2    50  ARG50      -0.2864
     16  CB        23.2520   32.9970   55.5070 C.3    50  ARG50       0.0334
     17  CG        21.8030   32.8870   55.0510 C.3    50  ARG50       0.0492
     18  CD        21.1180   31.6660   55.6480 C.3    50  ARG50       0.2205
     19  NE        20.6980   31.8820   57.0290 N.pl3  50  ARG50      -0.0865
     20  CZ        19.4870   32.3000   57.3820 C.cat  50  ARG50       0.5346
     21  NH1       18.5730   32.5470   56.4530 N.pl3  50  ARG50       0.1354
     22  NH2       19.1880   32.4710   58.6620 N.pl3  50  ARG50       0.1354
     23  N         26.8130   35.6300   51.5600 N.3    53  ASN53      -0.1225
     24  CA        27.9450   34.7130   51.4640 C.3    53  ASN53       0.1785
     25  C         27.7740   33.6540   50.3800 C.2    53  ASN53       0.2597
     26  O         28.7230   33.3340   49.6630 O.2    53  ASN53      -0.2718
     27  CB        28.1850   34.0270   52.8100 C.3    53  ASN53       0.1169
     28  CG        29.1650   34.7830   53.6820 C.2    53  ASN53       0.2627
     29  OD1       30.0830   35.4330   53.1820 O.2    53  ASN53      -0.2716
     30  ND2       28.9790   34.6970   54.9940 N.am   53  ASN53      -0.0877
     31  N         26.5660   33.1110   50.2660 N.am   54  TYR54      -0.1976
     32  CA        26.2920   32.0450   49.3060 C.3    54  TYR54       0.1639
     33  C         26.5170   32.5070   47.8680 C.2    54  TYR54       0.2290
     34  O         26.9570   31.7300   47.0210 O.2    54  TYR54      -0.2864
     35  CB        24.8610   31.5270   49.4670 C.3    54  TYR54       0.0560
     36  CG        24.6100   30.7680   50.7520 C.ar   54  TYR54      -0.0198
     37  CD1       25.6480   30.4730   51.6290 C.ar   54  TYR54      -0.0009
     38  CD2       23.3330   30.3390   51.0850 C.ar   54  TYR54      -0.0009
     39  CE1       25.4180   29.7800   52.8040 C.ar   54  TYR54       0.0417
     40  CE2       23.0950   29.6450   52.2530 C.ar   54  TYR54       0.0417
     41  CZ        24.1400   29.3680   53.1090 C.ar   54  TYR54       0.1957
     42  OH        23.9070   28.6770   54.2750 O.3    54  TYR54      -0.2866
     43  N         30.5960   32.7260   47.2910 N.3    57  GLN57      -0.1245
     44  CA        31.3170   31.4650   47.1500 C.3    57  GLN57       0.1566
     45  C         30.9700   30.6980   45.8780 C.2    57  GLN57       0.2260
     46  O         31.5170   29.6260   45.6250 O.2    57  GLN57      -0.2867
     47  CB        31.0370   30.5760   48.3620 C.3    57  GLN57       0.0367
     48  CG        31.2780   31.2580   49.6960 C.3    57  GLN57       0.0905
     49  CD        30.4990   30.6140   50.8240 C.2    57  GLN57       0.2608
     50  OE1       29.4970   29.9380   50.5930 O.2    57  GLN57      -0.2717
     51  NE2       30.9540   30.8240   52.0530 N.am   57  GLN57      -0.0878
     52  N         24.2540   21.8220   45.3310 N.3    69  LEU69      -0.1245
     53  CA        25.6640   21.4620   45.4080 C.3    69  LEU69       0.1561
     54  C         26.0760   20.5780   44.2350 C.2    69  LEU69       0.2260
     55  O         25.3050   19.7320   43.7830 O.2    69  LEU69      -0.2867
     56  CB        25.9620   20.7550   46.7300 C.3    69  LEU69       0.0270
     57  CG        25.4900   21.4830   47.9900 C.3    69  LEU69       0.0019
     58  CD1       25.9110   20.7320   49.2400 C.3    69  LEU69       0.0001
     59  CD2       26.0210   22.9050   48.0180 C.3    69  LEU69       0.0001
     60  N         34.9170   22.9470   47.0430 N.3    79  GLY79      -0.1210
     61  CA        34.5970   23.2940   48.4140 C.3    79  GLY79       0.1956
     62  C         33.2200   22.8280   48.8440 C.2    79  GLY79       0.2612
     63  O         32.8810   22.8820   50.0260 O.2    79  GLY79      -0.2717
     64  N         32.4240   22.3680   47.8850 N.am   80  GLU80      -0.1965
     65  CA        31.0570   21.9480   48.1650 C.3    80  GLU80       0.1733
     66  C         30.9670   20.4930   48.6220 C.2    80  GLU80       0.2616
     67  O         29.9330   20.0700   49.1400 O.2    80  GLU80      -0.2715
     68  CB        30.1770   22.1560   46.9310 C.3    80  GLU80       0.0429
     69  CG        30.0190   23.6090   46.5250 C.3    80  GLU80       0.1163
     70  CD        29.2620   23.7680   45.2230 C.2    80  GLU80       0.3649
     71  OE1       28.7060   22.7640   44.7310 O.co2  80  GLU80      -0.2457
     72  OE2       29.2260   24.8950   44.6860 O.co2  80  GLU80      -0.2457
     73  N         32.0400   19.7290   48.4350 N.am   81  PHE81      -0.1974
     74  CA        32.0130   18.3170   48.8090 C.3    81  PHE81       0.1639
     75  C         33.3870   17.6970   49.0540 C.2    81  PHE81       0.2290
     76  O         33.6150   17.0980   50.1040 O.2    81  PHE81      -0.2864
     77  CB        31.2840   17.5060   47.7390 C.3    81  PHE81       0.0560
     78  CG        31.2180   16.0390   48.0390 C.ar   81  PHE81      -0.0200
     79  CD1       30.6030   15.5870   49.1940 C.ar   81  PHE81      -0.0042
     80  CD2       31.7680   15.1130   47.1680 C.ar   81  PHE81      -0.0042
     81  CE1       30.5400   14.2390   49.4770 C.ar   81  PHE81      -0.0003
     82  CE2       31.7080   13.7620   47.4450 C.ar   81  PHE81      -0.0003
     83  CZ        31.0960   13.3250   48.6030 C.ar   81  PHE81      -0.0000
     84  N         35.3780   19.4260   52.0520 N.3    84  PRO84      -0.2116
     85  CA        34.7970   18.9740   53.3230 C.3    84  PRO84       0.1372
     86  C         34.8710   17.4570   53.4830 C.2    84  PRO84       0.2244
     87  O         34.9630   16.9620   54.6060 O.2    84  PRO84      -0.2868
     88  CB        33.3390   19.4350   53.2330 C.3    84  PRO84       0.0268
     89  CG        33.3370   20.5240   52.2190 C.3    84  PRO84       0.0207
     90  CD        34.3860   20.1420   51.2280 C.3    84  PRO84       0.0892
     91  N         38.2180   16.4500   54.7270 N.3    87  LEU87      -0.1245
     92  CA        38.2660   16.7980   56.1410 C.3    87  LEU87       0.1561
     93  C         37.5300   15.7610   56.9840 C.2    87  LEU87       0.2260
     94  O         37.9790   15.4210   58.0770 O.2    87  LEU87      -0.2867
     95  CB        37.6770   18.1900   56.3770 C.3    87  LEU87       0.0270
     96  CG        37.7250   18.7010   57.8190 C.3    87  LEU87       0.0019
     97  CD1       39.1360   18.5960   58.3810 C.3    87  LEU87       0.0001
     98  CD2       37.2200   20.1340   57.8970 C.3    87  LEU87       0.0001
@<TRIPOS>BOND
     1    55    54    2
     2    54    53    1
     3    72    70   ar
     4    71    70   ar
     5    70    69    1
     6    52    53    1
     7    53    56    1
     8    46    45    2
     9    45    44    1
    10    69    68    1
    11    56    57    1
    12    68    65    1
    13    34    33    2
    14    60    61    1
    15    44    43    1
    16    44    47    1
    17    80    82   ar
    18    80    78   ar
    19    82    83   ar
    20    77    78    1
    21    77    74    1
    22    33    32    1
    23    64    65    1
    24    64    62   am
    25    57    59    1
    26    57    58    1
    27    78    79   ar
    28    65    66    1
    29    47    48    1
    30    61    62    1
    31    73    66   am
    32    73    74    1
    33    83    81   ar
    34    66    67    2
    35    74    75    1
    36    62    63    2
    37    75    76    2
    38    79    81   ar
    39    32    35    1
    40    32    31    1
    41    35    36    1
    42    26    25    2
    43    48    49    1
    44    31    25   am
    45    25    24    1
    46    50    49    2
    47    36    38   ar
    48    36    37   ar
    49    49    51   am
    50    38    40   ar
    51    90    84    1
    52    90    89    1
    53    24    23    1
    54    24    27    1
    55    37    39   ar
    56    84    85    1
    57    89    88    1
    58    40    41   ar
    59    15    14    2
    60    39    41   ar
    61    27    28    1
    62    41    42    1
    63    29    28    2
    64    88    85    1
    65    14    13    1
    66    85    86    1
    67    86    87    2
    68    28    30   am
    69     4     3    2
    70    91    92    1
    71    13    12    1
    72    13    16    1
    73     3    12   am
    74     3     2    1
    75    17    16    1
    76    17    18    1
    77    18    19    1
    78     2     1    1
    79     2     5    1
    80    92    95    1
    81    92    93    1
    82    95    96    1
    83    21    20    1
    84    93    94    2
    85    19    20    2
    86     5     6    1
    87     6     7    1
    88    20    22    1
    89    96    98    1
    90    96    97    1
    91     7     8    1
    92     8     9    2
    93    11     9    1
    94     9    10    1
