@<TRIPOS>MOLECULE
tmp/4rkuP14.pdb
 132 127 0 0 0
SMALL
GASTEIGER

@<TRIPOS>ATOM
      1  N         14.4020   40.8680  130.6250 N.3    36  ILE36      -0.1245
      2  CA        13.5550   41.7320  131.4400 C.3    36  ILE36       0.1561
      3  C         14.4030   42.8630  132.0380 C.2    36  ILE36       0.2260
      4  O         13.8910   43.9280  132.3980 O.2    36  ILE36      -0.2867
      5  CB        12.8240   40.9280  132.5520 C.3    36  ILE36       0.0252
      6  CG1       11.7400   40.0320  131.9310 C.3    36  ILE36       0.0019
      7  CG2       12.2130   41.8490  133.5960 C.3    36  ILE36       0.0019
      8  CD1       10.3970   40.0160  132.6830 C.3    36  ILE36       0.0001
      9  N         10.7720   25.4840  133.7660 N.3   120  LEU120     -0.1245
     10  CA         9.7760   26.4820  134.1160 C.3   120  LEU120      0.1561
     11  C         10.1790   27.7980  133.4690 C.2   120  LEU120      0.2260
     12  O          9.3250   28.5710  133.0490 O.2   120  LEU120     -0.2867
     13  CB         9.6330   26.6360  135.6300 C.3   120  LEU120      0.0270
     14  CG         8.4850   27.5320  136.1010 C.3   120  LEU120      0.0019
     15  CD1        7.2280   27.2880  135.2650 C.3   120  LEU120      0.0001
     16  CD2        8.2090   27.3010  137.5850 C.3   120  LEU120      0.0001
     17  N          8.9980   27.3950  129.9070 N.3   123  LEU123     -0.1231
     18  CA         7.6190   27.7940  129.7370 C.3   123  LEU123      0.1693
     19  C          7.4320   29.2440  130.1520 C.2   123  LEU123      0.2591
     20  O          6.4820   29.8950  129.7220 O.2   123  LEU123     -0.2718
     21  CB         6.7010   26.8660  130.5240 C.3   123  LEU123      0.0284
     22  CG         6.2690   25.6460  129.7080 C.3   123  LEU123      0.0019
     23  CD1        5.7250   24.5660  130.6200 C.3   123  LEU123      0.0001
     24  CD2        5.2380   26.0360  128.6430 C.3   123  LEU123      0.0001
     25  N          8.3430   29.7580  130.9740 N.am  124  ALA124     -0.1980
     26  CA         8.3200   31.1820  131.2770 C.3   124  ALA124      0.1597
     27  C          8.6600   31.9340  130.0080 C.2   124  ALA124      0.2287
     28  O          7.9160   32.8120  129.5870 O.2   124  ALA124     -0.2864
     29  CB         9.2880   31.5410  132.3930 C.3   124  ALA124      0.0319
     30  N          6.3650   31.3270  127.4750 N.3   127  GLY127     -0.1210
     31  CA         5.3770   32.3440  127.7510 C.3   127  GLY127      0.1956
     32  C          5.5870   33.4730  126.7630 C.2   127  GLY127      0.2611
     33  O          4.8540   33.5670  125.7820 O.2   127  GLY127     -0.2717
     34  N          6.6250   34.2760  127.0060 N.am  128  TYR128     -0.1976
     35  CA         7.0200   35.4360  126.1860 C.3   128  TYR128      0.1639
     36  C          6.6780   35.3380  124.7030 C.2   128  TYR128      0.2290
     37  O          6.2940   36.3320  124.0880 O.2   128  TYR128     -0.2864
     38  CB         8.5320   35.6730  126.2880 C.3   128  TYR128      0.0560
     39  CG         9.0690   36.0810  127.6430 C.ar  128  TYR128     -0.0198
     40  CD1        8.5730   35.5260  128.8110 C.ar  128  TYR128     -0.0009
     41  CD2       10.1050   36.9970  127.7460 C.ar  128  TYR128     -0.0009
     42  CE1        9.0720   35.8790  130.0400 C.ar  128  TYR128      0.0417
     43  CE2       10.6160   37.3580  128.9740 C.ar  128  TYR128      0.0417
     44  CZ        10.0930   36.7950  130.1180 C.ar  128  TYR128      0.1957
     45  OH        10.5900   37.1450  131.3480 O.3   128  TYR128     -0.2866
     46  N          4.3660   33.0230  122.2480 N.3   130  ILE130     -0.1231
     47  CA         2.9360   33.0330  121.9050 C.3   130  ILE130      0.1692
     48  C          2.1720   34.1760  122.5790 C.2   130  ILE130      0.2591
     49  O          1.2370   34.7420  122.0090 O.2   130  ILE130     -0.2718
     50  CB         2.2800   31.6710  122.2680 C.3   130  ILE130      0.0266
     51  CG1        0.7570   31.7330  122.1320 C.3   130  ILE130      0.0019
     52  CG2        2.6810   31.2290  123.6690 C.3   130  ILE130      0.0020
     53  CD1        0.0650   30.4350  122.4870 C.3   130  ILE130      0.0001
     54  N          2.6050   34.5160  123.7880 N.am  131  GLN131     -0.1979
     55  CA         2.2120   35.7420  124.4680 C.3   131  GLN131      0.1601
     56  C          2.1230   36.9690  123.5780 C.2   131  GLN131      0.2287
     57  O          1.0320   37.4070  123.2200 O.2   131  GLN131     -0.2864
     58  CB         3.2020   36.0280  125.5860 C.3   131  GLN131      0.0394
     59  CG         2.6660   35.7900  126.9660 C.3   131  GLN131      0.0908
     60  CD         2.0710   34.4030  127.1930 C.2   131  GLN131      0.2608
     61  OE1        1.1150   33.9870  126.5350 O.2   131  GLN131     -0.2717
     62  NE2        2.6160   33.6990  128.1700 N.am  131  GLN131     -0.0878
     63  N          0.5080   36.3010  118.9840 N.3   134  VAL134     -0.1231
     64  CA        -0.8260   36.2150  118.3990 C.3   134  VAL134      0.1692
     65  C         -1.7420   37.3220  118.9180 C.2   134  VAL134      0.2592
     66  O         -2.7480   37.6530  118.2910 O.2   134  VAL134     -0.2718
     67  CB        -1.4690   34.8330  118.6650 C.3   134  VAL134      0.0266
     68  CG1       -1.9610   34.7270  120.1030 C.3   134  VAL134      0.0020
     69  CG2       -2.6030   34.5670  117.6770 C.3   134  VAL134      0.0020
     70  N         -1.3810   37.9060  120.0540 N.am  135  THR135     -0.1953
     71  CA        -2.1540   38.9990  120.6240 C.3   135  THR135      0.1897
     72  C         -1.8530   40.3150  119.9140 C.2   135  THR135      0.2313
     73  O         -2.7490   40.9530  119.3590 O.2   135  THR135     -0.2863
     74  CB        -1.8700   39.1560  122.1260 C.3   135  THR135      0.1794
     75  OG1       -0.4750   39.4160  122.3270 O.3   135  THR135     -0.2208
     76  CG2       -2.2470   37.8860  122.8600 C.3   135  THR135      0.0378
     77  N          0.3400   42.4400  121.6860 N.3   137  VAL137     -0.1231
     78  CA         0.8960   43.2070  122.7970 C.3   137  VAL137      0.1692
     79  C          1.8810   42.3600  123.6020 C.2   137  VAL137      0.2593
     80  O          1.7810   41.1340  123.6210 O.2   137  VAL137     -0.2718
     81  CB        -0.2150   43.7510  123.7330 C.3   137  VAL137      0.0266
     82  CG1       -1.5250   43.9110  122.9730 C.3   137  VAL137      0.0020
     83  CG2       -0.4110   42.8470  124.9460 C.3   137  VAL137      0.0020
     84  N          2.8270   43.0250  124.2620 N.am  138  GLY138     -0.1943
     85  CA         3.8690   42.3550  125.0300 C.3   138  GLY138      0.1998
     86  C          3.3560   41.4880  126.1680 C.2   138  GLY138      0.2481
     87  O          2.1620   41.4970  126.4660 O.2   138  GLY138     -0.2729
     88  N          4.2610   40.7330  126.8140 N.am  139  PRO139     -0.2715
     89  CA         3.8920   39.7990  127.8880 C.3   139  PRO139      0.1536
     90  C          3.4380   40.4740  129.1850 C.2   139  PRO139      0.2598
     91  O          2.7380   39.8480  129.9730 O.2   139  PRO139     -0.2715
     92  CB         5.1890   39.0120  128.1410 C.3   139  PRO139      0.0310
     93  CG         6.0750   39.3040  126.9720 C.3   139  PRO139      0.0237
     94  CD         5.6990   40.6720  126.5090 C.3   139  PRO139      0.0939
     95  N          3.8330   41.7200  129.4090 N.am  140  TYR140     -0.1974
     96  CA         3.5550   42.3710  130.6820 C.3   140  TYR140      0.1639
     97  C          2.3170   43.2680  130.6140 C.2   140  TYR140      0.2290
     98  O          1.8070   43.7280  131.6390 O.2   140  TYR140     -0.2864
     99  CB         4.7760   43.1750  131.1200 C.3   140  TYR140      0.0560
    100  CG         5.4120   43.9490  129.9860 C.ar  140  TYR140     -0.0198
    101  CD1        4.7080   44.9430  129.3170 C.ar  140  TYR140     -0.0009
    102  CD2        6.7110   43.6890  129.5830 C.ar  140  TYR140     -0.0009
    103  CE1        5.2810   45.6550  128.2720 C.ar  140  TYR140      0.0417
    104  CE2        7.2890   44.3970  128.5490 C.ar  140  TYR140      0.0417
    105  CZ         6.5760   45.3770  127.8920 C.ar  140  TYR140      0.1957
    106  OH         7.1720   46.0720  126.8590 O.3   140  TYR140     -0.2866
    107  N         -0.7400   42.4430  128.7330 N.3   142  ASN142     -0.1225
    108  CA        -1.8980   41.5740  128.8830 C.3   142  ASN142      0.1785
    109  C         -1.9060   40.9020  130.2530 C.2   142  ASN142      0.2597
    110  O         -2.9690   40.6820  130.8260 O.2   142  ASN142     -0.2718
    111  CB        -1.9140   40.5310  127.7670 C.3   142  ASN142      0.1169
    112  CG        -3.2480   39.8250  127.6280 C.2   142  ASN142      0.2627
    113  OD1       -4.0900   39.8430  128.5260 O.2   142  ASN142     -0.2716
    114  ND2       -3.4400   39.1840  126.4860 N.am  142  ASN142     -0.0877
    115  N         -0.7220   40.5920  130.7790 N.am  143  LEU143     -0.1980
    116  CA        -0.6180   40.0030  132.1120 C.3   143  LEU143      0.1596
    117  C         -1.1750   40.9570  133.1610 C.2   143  LEU143      0.2287
    118  O         -1.9740   40.5590  134.0050 O.2   143  LEU143     -0.2864
    119  CB         0.8310   39.6480  132.4520 C.3   143  LEU143      0.0297
    120  CG         0.9780   38.6730  133.6230 C.3   143  LEU143      0.0022
    121  CD1        0.2790   37.3640  133.3000 C.3   143  LEU143      0.0001
    122  CD2        2.4380   38.4220  133.9590 C.3   143  LEU143      0.0001
    123  N         -4.6070   41.1440  132.6860 N.3   146  HIS146     -0.1241
    124  CA        -5.3240   39.8980  132.9670 C.3   146  HIS146      0.1621
    125  C         -5.7340   39.7920  134.4390 C.2   146  HIS146      0.2264
    126  O         -6.7790   39.2190  134.7530 O.2   146  HIS146     -0.2867
    127  CB        -4.4860   38.6820  132.5490 C.3   146  HIS146      0.0745
    128  CG        -3.9640   37.8730  133.6940 C.ar  146  HIS146      0.0817
    129  ND1       -2.7340   38.1050  134.2660 N.ar  146  HIS146     -0.2268
    130  CD2       -4.5030   36.8290  134.3670 C.ar  146  HIS146      0.1154
    131  CE1       -2.5380   37.2390  135.2450 C.ar  146  HIS146      0.1986
    132  NE2       -3.5970   36.4570  135.3300 N.ar  146  HIS146     -0.2212
@<TRIPOS>BOND
     1    69    67    1
     2    66    65    2
     3    64    67    1
     4    64    65    1
     5    64    63    1
     6    67    68    1
     7    65    70   am
     8    73    72    2
     9    72    71    1
    10    70    71    1
    11    71    74    1
    12    77    78    1
    13    47    46    1
    14    47    50    1
    15    47    48    1
    16    49    48    2
    17    74    75    1
    18    74    76    1
    19    51    50    1
    20    51    53    1
    21    50    52    1
    22    48    54   am
    23    78    79    1
    24    78    81    1
    25    82    81    1
    26    57    56    2
    27    56    55    1
    28    79    80    2
    29    79    84   am
    30    81    83    1
    31    54    55    1
    32    37    36    2
    33    84    85    1
    34    55    58    1
    35    36    35    1
    36    85    86    1
    37    58    59    1
    38    33    32    2
    39    86    87    2
    40    86    88   am
    41    35    38    1
    42    35    34    1
    43    38    39    1
    44   114   112   am
    45    94    88    1
    46    94    93    1
    47    61    60    2
    48    32    34   am
    49    32    31    1
    50    88    89    1
    51   106   105    1
    52    59    60    1
    53    93    92    1
    54    60    62   am
    55    30    31    1
    56   112   111    1
    57   112   113    2
    58    39    41   ar
    59    39    40   ar
    60    41    43   ar
    61   111   108    1
    62    89    92    1
    63    89    90    1
    64   105   103   ar
    65   105   104   ar
    66   103   101   ar
    67   104   102   ar
    68    24    22    1
    69   107   108    1
    70    40    42   ar
    71   108   109    1
    72    43    44   ar
    73    90    95   am
    74    90    91    2
    75   101   100   ar
    76    95    96    1
    77   102   100   ar
    78    28    27    2
    79    22    21    1
    80    22    23    1
    81    20    19    2
    82    18    17    1
    83    18    19    1
    84    18    21    1
    85   100    99    1
    86    27    26    1
    87    42    44   ar
    88    44    45    1
    89    19    25   am
    90   109   115   am
    91   109   110    2
    92    97    96    1
    93    97    98    2
    94     1     2    1
    95    96    99    1
    96   115   116    1
    97    25    26    1
    98    26    29    1
    99     2     3    1
   100     2     5    1
   101     6     5    1
   102     6     8    1
   103     3     4    2
   104   116   119    1
   105   116   117    1
   106   119   120    1
   107   127   124    1
   108   127   128    1
   109     5     7    1
   110   123   124    1
   111   124   125    1
   112    12    11    2
   113   117   118    2
   114   121   120    1
   115    11    10    1
   116   120   122    1
   117   128   129   ar
   118   128   130   ar
   119     9    10    1
   120    10    13    1
   121   129   131   ar
   122   130   132   ar
   123   125   126    2
   124   131   132   ar
   125    15    14    1
   126    13    14    1
   127    14    16    1
