@<TRIPOS>MOLECULE
tmp/4rkuN03.pdb
 126 120 0 0 0
SMALL
GASTEIGER

@<TRIPOS>ATOM
      1  N         47.9170    7.1030    6.3890 N.3    60  TRP60      -0.1227
      2  CA        47.2640    5.8020    6.3230 C.3    60  TRP60       0.1737
      3  C         45.7580    5.8490    6.5520 C.2    60  TRP60       0.2595
      4  O         45.0390    4.9290    6.1670 O.2    60  TRP60      -0.2718
      5  CB        47.8780    4.8650    7.3520 C.3    60  TRP60       0.0564
      6  CG        47.7570    5.3540    8.7640 C.ar   60  TRP60       0.0003
      7  CD1       47.9160    6.6360    9.2090 C.ar   60  TRP60       0.0946
      8  CD2       47.4400    4.5690    9.9160 C.ar   60  TRP60       0.0152
      9  NE1       47.7200    6.6950   10.5630 N.ar   60  TRP60      -0.2442
     10  CE2       47.4250    5.4380   11.0240 C.ar   60  TRP60       0.0810
     11  CE3       47.1670    3.2140   10.1210 C.ar   60  TRP60       0.0012
     12  CZ2       47.1480    4.9990   12.3150 C.ar   60  TRP60       0.0191
     13  CZ3       46.8950    2.7780   11.4020 C.ar   60  TRP60       0.0001
     14  CH2       46.8890    3.6680   12.4830 C.ar   60  TRP60       0.0015
     15  N         45.3150    6.8880    7.2930 N.am   61  VAL61      -0.1980
     16  CA        43.8930    7.0310    7.5610 C.3    61  VAL61       0.1595
     17  C         43.1510    7.3750    6.2730 C.2    61  VAL61       0.2287
     18  O         42.1370    6.7550    5.9490 O.2    61  VAL61      -0.2864
     19  CB        43.6160    8.1060    8.6240 C.3    61  VAL61       0.0276
     20  CG1       42.1230    8.2340    8.8650 C.3    61  VAL61       0.0022
     21  CG2       44.3380    7.7640    9.9200 C.3    61  VAL61       0.0022
     22  N         42.6960    4.8310    3.7910 N.3    64  GLN64      -0.1231
     23  CA        41.5700    3.9310    3.9190 C.3    64  GLN64       0.1698
     24  C         40.1800    4.4760    3.6710 C.2    64  GLN64       0.2592
     25  O         39.2250    3.7250    3.6980 O.2    64  GLN64      -0.2718
     26  CB        41.5990    3.3050    5.2880 C.3    64  GLN64       0.0381
     27  CG        42.9280    2.6940    5.6030 C.3    64  GLN64       0.0905
     28  CD        43.0520    2.4100    7.0540 C.2    64  GLN64       0.2608
     29  OE1       44.0870    2.6780    7.6570 O.2    64  GLN64      -0.2717
     30  NE2       42.0050    1.8560    7.6330 N.am   64  GLN64      -0.0878
     31  N         40.0080    5.7960    3.4900 N.am   65  GLU65      -0.1979
     32  CA        38.6870    6.3730    3.2750 C.3    65  GLU65       0.1602
     33  C         38.0520    6.0330    1.9390 C.2    65  GLU65       0.2287
     34  O         36.8720    6.2650    1.7330 O.2    65  GLU65      -0.2864
     35  CB        38.6810    7.8720    3.5430 C.3    65  GLU65       0.0415
     36  CG        38.4420    8.1820    5.0110 C.3    65  GLU65       0.1163
     37  CD        38.3670    9.6570    5.2980 C.2    65  GLU65       0.3649
     38  OE1       38.8880   10.4330    4.4810 O.co2  65  GLU65      -0.2457
     39  OE2       37.7910   10.0290    6.3410 O.co2  65  GLU65      -0.2457
     40  N         37.4150    3.1310    0.5290 N.3    67  ALA67      -0.1231
     41  CA        36.3860    2.1000    0.6240 C.3    67  ALA67       0.1694
     42  C         35.0790    2.6580    1.1240 C.2    67  ALA67       0.2591
     43  O         34.0140    2.3030    0.6740 O.2    67  ALA67      -0.2718
     44  CB        36.8470    0.9870    1.5420 C.3    67  ALA67       0.0304
     45  N         35.1190    3.4850    2.1570 N.am   68  ALA68      -0.1980
     46  CA        34.0140    4.1390    2.8090 C.3    68  ALA68       0.1597
     47  C         33.0470    4.7920    1.8420 C.2    68  ALA68       0.2287
     48  O         31.8370    4.7130    2.0140 O.2    68  ALA68      -0.2864
     49  CB        34.5470    5.1790    3.7680 C.3    68  ALA68       0.0319
     50  N         35.2570   -2.5450   -2.3050 N.3    75  LEU75      -0.1245
     51  CA        35.3420   -3.0610   -0.9530 C.3    75  LEU75       0.1561
     52  C         34.7980   -4.4620   -0.8970 C.2    75  LEU75       0.2260
     53  O         35.3700   -5.3210   -0.2280 O.2    75  LEU75      -0.2867
     54  CB        34.5640   -2.1610   -0.0020 C.3    75  LEU75       0.0270
     55  CG        33.8620   -2.7760    1.2050 C.3    75  LEU75       0.0019
     56  CD1       33.4690   -1.7010    2.2060 C.3    75  LEU75       0.0001
     57  CD2       32.6450   -3.5590    0.7430 C.3    75  LEU75       0.0001
     58  N         37.4250   -6.7370   -2.6360 N.3    78  ILE78      -0.1231
     59  CA        38.6100   -6.8810   -1.8270 C.3    78  ILE78       0.1692
     60  C         38.3690   -7.6290   -0.5270 C.2    78  ILE78       0.2591
     61  O         39.1830   -8.4530   -0.1210 O.2    78  ILE78      -0.2718
     62  CB        39.1270   -5.5150   -1.3960 C.3    78  ILE78       0.0266
     63  CG1       39.1310   -4.5410   -2.5480 C.3    78  ILE78       0.0019
     64  CG2       40.5210   -5.6380   -0.8230 C.3    78  ILE78       0.0020
     65  CD1       39.4430   -3.1490   -2.0750 C.3    78  ILE78       0.0001
     66  N         37.2650   -7.3710    0.0900 N.am   79  LEU79      -0.1980
     67  CA        36.9940   -8.0100    1.3540 C.3    79  LEU79       0.1596
     68  C         36.9760   -9.5110    1.2170 C.2    79  LEU79       0.2287
     69  O         37.5740  -10.2120    2.0340 O.2    79  LEU79      -0.2864
     70  CB        35.6500   -7.5510    1.8860 C.3    79  LEU79       0.0297
     71  CG        35.5710   -6.0870    2.2740 C.3    79  LEU79       0.0022
     72  CD1       34.1310   -5.6320    2.2070 C.3    79  LEU79       0.0001
     73  CD2       36.1470   -5.8620    3.6550 C.3    79  LEU79       0.0001
     74  N         40.3970  -10.6710    0.7170 N.3    82  GLU82      -0.1245
     75  CA        41.1990  -10.5810    1.9070 C.3    82  GLU82       0.1567
     76  C         40.7520  -11.7090    2.7880 C.2    82  GLU82       0.2260
     77  O         41.5470  -12.4440    3.3530 O.2    82  GLU82      -0.2867
     78  CB        40.9350   -9.2560    2.6100 C.3    82  GLU82       0.0388
     79  CG        41.9870   -8.8650    3.6280 C.3    82  GLU82       0.1160
     80  CD        41.4590   -7.9300    4.6910 C.2    82  GLU82       0.3649
     81  OE1       41.9950   -6.8240    4.8370 O.co2  82  GLU82      -0.2457
     82  OE2       40.5100   -8.3050    5.3920 O.co2  82  GLU82      -0.2457
     83  N         53.7340    1.2670   16.4470 N.3   139  PHE139     -0.1241
     84  CA        52.3620    1.1990   16.0100 C.3   139  PHE139      0.1605
     85  C         51.5080    1.8690   17.0250 C.2   139  PHE139      0.2264
     86  O         50.6820    2.6810   16.7100 O.2   139  PHE139     -0.2867
     87  CB        51.9340   -0.2320   15.8950 C.3   139  PHE139      0.0534
     88  CG        50.5680   -0.3930   15.3580 C.ar  139  PHE139     -0.0203
     89  CD1       49.4820   -0.3310   16.1840 C.ar  139  PHE139     -0.0042
     90  CD2       50.3730   -0.5980   14.0280 C.ar  139  PHE139     -0.0042
     91  CE1       48.2200   -0.4830   15.6890 C.ar  139  PHE139     -0.0003
     92  CE2       49.1180   -0.7500   13.5230 C.ar  139  PHE139     -0.0003
     93  CZ        48.0390   -0.6940   14.3540 C.ar  139  PHE139     -0.0000
     94  N         49.2320    4.9980   16.5520 N.3   143  CYS143     -0.1235
     95  CA        47.8140    4.9980   16.8310 C.3   143  CYS143      0.1677
     96  C         47.4200    6.0870   17.7590 C.2   143  CYS143      0.2270
     97  O         46.4640    6.7870   17.5110 O.2   143  CYS143     -0.2867
     98  CB        47.4040    3.6820   17.4460 C.3   143  CYS143      0.0956
     99  SG        47.3580    2.3640   16.2540 S.3   143  CYS143     -0.0801
    100  N         47.7570    9.2990   15.8140 N.3   146  GLN146     -0.1231
    101  CA        46.7590    9.4480   14.7510 C.3   146  GLN146      0.1698
    102  C         45.3400    9.6760   15.2160 C.2   146  GLN146      0.2592
    103  O         44.5060   10.1980   14.4980 O.2   146  GLN146     -0.2718
    104  CB        46.8210    8.2750   13.7830 C.3   146  GLN146      0.0381
    105  CG        48.2210    7.9400   13.2840 C.3   146  GLN146      0.0905
    106  CD        48.9410    9.1250   12.6890 C.2   146  GLN146      0.2608
    107  OE1       48.5770   10.2700   12.9260 O.2   146  GLN146     -0.2717
    108  NE2       49.9780    8.8550   11.9150 N.am  146  GLN146     -0.0878
    109  N         45.0900    9.2650   16.4320 N.am  147  SER147     -0.1952
    110  CA        43.8150    9.4360   17.1090 C.3   147  SER147      0.1924
    111  C         43.4230   10.9140   17.0990 C.2   147  SER147      0.2314
    112  O         42.3020   11.2620   17.4580 O.2   147  SER147     -0.2863
    113  CB        43.8740    8.8980   18.5400 C.3   147  SER147      0.2116
    114  OG        43.5600    9.9110   19.4810 O.3   147  SER147     -0.2180
    115  N         43.9140   12.5580   14.1380 N.3   149  TYR149     -0.1241
    116  CA        43.6540   12.4750   12.6950 C.3   149  TYR149      0.1605
    117  C         44.5280   13.3330   11.7620 C.2   149  TYR149      0.2264
    118  O         44.0350   13.8100   10.7400 O.2   149  TYR149     -0.2867
    119  CB        42.1820   12.8030   12.4160 C.3   149  TYR149      0.0534
    120  CG        41.2550   11.7990   13.0510 C.ar  149  TYR149     -0.0201
    121  CD1       41.2790   10.4670   12.6230 C.ar  149  TYR149     -0.0009
    122  CD2       40.4150   12.1450   14.0960 C.ar  149  TYR149     -0.0009
    123  CE1       40.3970    9.5790   13.1800 C.ar  149  TYR149      0.0417
    124  CE2       39.5600   11.2490   14.6770 C.ar  149  TYR149      0.0417
    125  CZ        39.5660    9.9330   14.2210 C.ar  149  TYR149      0.1957
    126  OH        38.7180    8.9780   14.7420 O.3   149  TYR149     -0.2866
@<TRIPOS>BOND
     1    58    59    1
     2    63    65    1
     3    63    62    1
     4    50    51    1
     5    59    62    1
     6    59    60    1
     7    62    64    1
     8    51    52    1
     9    51    54    1
    10    52    53    2
    11    60    61    2
    12    60    66   am
    13    54    55    1
    14    66    67    1
    15    40    41    1
    16    41    42    1
    17    41    44    1
    18    43    42    2
    19    74    75    1
    20    57    55    1
    21    42    45   am
    22    55    56    1
    23    68    67    1
    24    68    69    2
    25    67    70    1
    26    34    33    2
    27    47    48    2
    28    47    46    1
    29    70    71    1
    30    75    78    1
    31    75    76    1
    32    33    32    1
    33    45    46    1
    34    72    71    1
    35    71    73    1
    36    78    79    1
    37    76    77    2
    38    46    49    1
    39    32    31    1
    40    32    35    1
    41    31    24   am
    42    35    36    1
    43    79    80    1
    44    24    25    2
    45    24    23    1
    46    22    23    1
    47    23    26    1
    48    38    37   ar
    49    80    81   ar
    50    80    82   ar
    51    36    37    1
    52    26    27    1
    53    37    39   ar
    54    27    28    1
    55    18    17    2
    56     4     3    2
    57    17    16    1
    58     2     1    1
    59     2     3    1
    60     2     5    1
    61     3    15   am
    62    28    30   am
    63    28    29    2
    64    15    16    1
    65     5     6    1
    66    16    19    1
    67    19    20    1
    68    19    21    1
    69     6     7   ar
    70     6     8   ar
    71     7     9   ar
    72     8    11   ar
    73     8    10   ar
    74    11    13   ar
    75     9    10   ar
    76   118   117    2
    77    10    12   ar
    78    13    14   ar
    79   117   116    1
    80   108   106   am
    81    12    14   ar
    82   119   116    1
    83   119   120    1
    84   121   120   ar
    85   121   123   ar
    86   106   107    2
    87   106   105    1
    88   116   115    1
    89   120   122   ar
    90   123   125   ar
    91   105   104    1
    92    92    90   ar
    93    92    93   ar
    94   104   101    1
    95    90    88   ar
    96   122   124   ar
    97   125   124   ar
    98   125   126    1
    99    93    91   ar
   100   103   102    2
   101   101   102    1
   102   101   100    1
   103   102   109   am
   104    88    87    1
   105    88    89   ar
   106    91    89   ar
   107    87    84    1
   108    84    83    1
   109    84    85    1
   110    99    98    1
   111   109   110    1
   112    94    95    1
   113    86    85    2
   114    95    98    1
   115    95    96    1
   116   111   110    1
   117   111   112    2
   118   110   113    1
   119    97    96    2
   120   113   114    1
