@<TRIPOS>MOLECULE
tmp/4rkuO15.pdb
 108 110 0 0 0
SMALL
GASTEIGER

@<TRIPOS>ATOM
      1  N         50.7440   15.1360  117.7770 N.3     5  ASP5       -0.1225
      2  CA        50.8040   16.3830  118.5270 C.3     5  ASP5        0.1805
      3  C         50.5640   17.6260  117.6830 C.2     5  ASP5        0.2598
      4  O         50.1990   18.6710  118.2250 O.2     5  ASP5       -0.2718
      5  CB        52.1590   16.4990  119.2190 C.3     5  ASP5        0.1424
      6  CG        52.6010   15.1960  119.8440 C.2     5  ASP5        0.3668
      7  OD1       51.7380   14.4740  120.3860 O.co2   5  ASP5       -0.2456
      8  OD2       53.8090   14.8880  119.7830 O.co2   5  ASP5       -0.2456
      9  N         50.7820   17.5120  116.3720 N.am    6  ARG6       -0.1966
     10  CA        50.6520   18.6430  115.4530 C.3     6  ARG6        0.1714
     11  C         49.3820   19.4330  115.7090 C.2     6  ARG6        0.2458
     12  O         48.3070   18.8530  115.8600 O.2     6  ARG6       -0.2730
     13  CB        50.6540   18.1780  113.9980 C.3     6  ARG6        0.0347
     14  CG        51.6880   17.1380  113.6530 C.3     6  ARG6        0.0492
     15  CD        51.0260   16.0150  112.8890 C.3     6  ARG6        0.2205
     16  NE        50.1620   16.5200  111.8260 N.pl3   6  ARG6       -0.0865
     17  CZ        49.2230   15.7990  111.2250 C.cat   6  ARG6        0.5346
     18  NH1       49.0210   14.5400  111.5840 N.pl3   6  ARG6        0.1354
     19  NH2       48.4820   16.3370  110.2660 N.pl3   6  ARG6        0.1354
     20  N         49.5100   20.7640  115.7800 N.am    7  PRO7       -0.2716
     21  CA        48.3670   21.6650  115.9470 C.3     7  PRO7        0.1536
     22  C         47.3460   21.4440  114.8410 C.2     7  PRO7        0.2598
     23  O         47.4420   22.0610  113.7780 O.2     7  PRO7       -0.2715
     24  CB        48.9980   23.0610  115.8620 C.3     7  PRO7        0.0310
     25  CG        50.3520   22.8420  115.2540 C.3     7  PRO7        0.0237
     26  CD        50.7820   21.4960  115.7070 C.3     7  PRO7        0.0939
     27  N         46.3970   20.5450  115.0920 N.am    8  LEU8       -0.1964
     28  CA        45.3490   20.2350  114.1270 C.3     8  LEU8        0.1728
     29  C         44.4940   21.4710  113.8880 C.2     8  LEU8        0.2616
     30  O         44.4480   22.3690  114.7290 O.2     8  LEU8       -0.2715
     31  CB        44.4780   19.0680  114.6160 C.3     8  LEU8        0.0311
     32  CG        45.0720   17.6550  114.7230 C.3     8  LEU8        0.0022
     33  CD1       46.2590   17.4760  113.7810 C.3     8  LEU8        0.0001
     34  CD2       45.4420   17.2810  116.1640 C.3     8  LEU8        0.0001
     35  N         43.8330   21.5340  112.7370 N.am    9  TRP9       -0.1960
     36  CA        42.9500   22.6570  112.4730 C.3     9  TRP9        0.1771
     37  C         41.7730   22.5540  113.4360 C.2     9  TRP9        0.2620
     38  O         41.5000   23.4800  114.1920 O.2     9  TRP9       -0.2715
     39  CB        42.5000   22.6860  111.0080 C.3     9  TRP9        0.0590
     40  CG        41.6920   21.5190  110.5580 C.ar    9  TRP9        0.0006
     41  CD1       42.1520   20.2770  110.2430 C.ar    9  TRP9        0.0946
     42  CD2       40.2740   21.4860  110.3570 C.ar    9  TRP9        0.0152
     43  NE1       41.1100   19.4710  109.8570 N.ar    9  TRP9       -0.2442
     44  CE2       39.9450   20.1870  109.9250 C.ar    9  TRP9        0.0810
     45  CE3       39.2520   22.4280  110.5020 C.ar    9  TRP9        0.0012
     46  CZ2       38.6370   19.8050  109.6350 C.ar    9  TRP9        0.0191
     47  CZ3       37.9530   22.0470  110.2160 C.ar    9  TRP9        0.0001
     48  CH2       37.6570   20.7470  109.7870 C.ar    9  TRP9        0.0015
     49  N         41.1120   21.4040  113.4460 N.am   10  PHE10      -0.1960
     50  CA        40.0540   21.1570  114.4160 C.3    10  PHE10       0.1756
     51  C         40.5640   20.2450  115.5290 C.2    10  PHE10       0.2461
     52  O         40.8030   19.0610  115.3020 O.2    10  PHE10      -0.2730
     53  CB        38.8280   20.5350  113.7430 C.3    10  PHE10       0.0574
     54  CG        37.5370   20.8170  114.4620 C.ar   10  PHE10      -0.0200
     55  CD1       37.4570   21.8530  115.3770 C.ar   10  PHE10      -0.0042
     56  CD2       36.4080   20.0490  114.2300 C.ar   10  PHE10      -0.0042
     57  CE1       36.2790   22.1230  116.0450 C.ar   10  PHE10      -0.0003
     58  CE2       35.2230   20.3140  114.8980 C.ar   10  PHE10      -0.0003
     59  CZ        35.1610   21.3530  115.8060 C.ar   10  PHE10      -0.0000
     60  N         40.7280   20.7970  116.7410 N.am   11  PRO11      -0.2727
     61  CA        41.2110   20.0470  117.9080 C.3    11  PRO11       0.1402
     62  C         40.3080   18.8830  118.3210 C.2    11  PRO11       0.2269
     63  O         39.0900   19.0480  118.3930 O.2    11  PRO11      -0.2865
     64  CB        41.2420   21.1070  119.0150 C.3    11  PRO11       0.0296
     65  CG        40.2700   22.1450  118.5730 C.3    11  PRO11       0.0237
     66  CD        40.4100   22.1930  117.0840 C.3    11  PRO11       0.0939
     67  N         48.6210   20.7930  109.0040 N.3    27  PHE27      -0.1241
     68  CA        47.7280   21.0780  110.1190 C.3    27  PHE27       0.1605
     69  C         46.5830   20.1060  110.1250 C.2    27  PHE27       0.2264
     70  O         45.5100   20.3950  110.6210 O.2    27  PHE27      -0.2867
     71  CB        47.2130   22.4970  110.0750 C.3    27  PHE27       0.0534
     72  CG        48.2920   23.5180  109.9360 C.ar   27  PHE27      -0.0203
     73  CD1       49.3190   23.5750  110.8430 C.ar   27  PHE27      -0.0042
     74  CD2       48.2690   24.4240  108.9060 C.ar   27  PHE27      -0.0042
     75  CE1       50.3180   24.5130  110.7230 C.ar   27  PHE27      -0.0003
     76  CE2       49.2500   25.3770  108.7840 C.ar   27  PHE27      -0.0003
     77  CZ        50.2830   25.4170  109.6930 C.ar   27  PHE27      -0.0000
     78  N         44.6390   18.8340  107.5760 N.3    29  PHE29      -0.1241
     79  CA        43.4150   19.2360  106.8770 C.3    29  PHE29       0.1605
     80  C         43.0370   18.6110  105.5160 C.2    29  PHE29       0.2264
     81  O         43.7630   18.7730  104.5530 O.2    29  PHE29      -0.2867
     82  CB        43.4010   20.7480  106.7380 C.3    29  PHE29       0.0534
     83  CG        42.0290   21.3170  106.7170 C.ar   29  PHE29      -0.0203
     84  CD1       41.0540   20.7590  105.9370 C.ar   29  PHE29      -0.0042
     85  CD2       41.7200   22.4020  107.5040 C.ar   29  PHE29      -0.0042
     86  CE1       39.7860   21.2690  105.9280 C.ar   29  PHE29      -0.0003
     87  CE2       40.4540   22.9230  107.5030 C.ar   29  PHE29      -0.0003
     88  CZ        39.4840   22.3510  106.7100 C.ar   29  PHE29      -0.0000
     89  N         52.7050   28.3510  105.2710 N.3   112  LYS112     -0.1245
     90  CA        51.6740   29.0700  105.9820 C.3   112  LYS112      0.1561
     91  C         51.5490   30.5120  105.5450 C.2   112  LYS112      0.2260
     92  O         50.4450   30.9960  105.3590 O.2   112  LYS112     -0.2867
     93  CB        51.8480   28.9350  107.4880 C.3   112  LYS112      0.0271
     94  CG        50.9350   29.9180  108.2140 C.3   112  LYS112      0.0035
     95  CD        49.5800   29.2810  108.1570 C.3   112  LYS112      0.0206
     96  CE        48.5940   30.0050  109.0840 C.3   112  LYS112      0.1093
     97  NZ        47.2510   29.8240  108.5350 N.3   112  LYS112     -0.1314
     98  N         50.1230   30.3690  102.3010 N.3   115  ARG115     -0.1245
     99  CA        48.7200   30.0820  102.3750 C.3   115  ARG115      0.1563
    100  C         48.0220   31.3920  102.5540 C.2   115  ARG115      0.2260
    101  O         46.9420   31.5820  102.0830 O.2   115  ARG115     -0.2867
    102  CB        48.4250   29.1940  103.5560 C.3   115  ARG115      0.0307
    103  CG        49.1410   27.8660  103.5320 C.3   115  ARG115      0.0489
    104  CD        48.4100   26.9100  104.4500 C.3   115  ARG115      0.2205
    105  NE        49.1600   25.6880  104.6620 N.pl3 115  ARG115     -0.0865
    106  CZ        48.9930   24.5780  103.9630 C.cat 115  ARG115      0.5346
    107  NH1       48.0980   24.5110  102.9830 N.pl3 115  ARG115      0.1354
    108  NH2       49.7350   23.5310  104.2370 N.pl3 115  ARG115      0.1354
@<TRIPOS>BOND
     1   101   100    2
     2    98    99    1
     3    99   100    1
     4    99   102    1
     5   107   106    1
     6   103   102    1
     7   103   104    1
     8   106   108    1
     9   106   105    2
    10   104   105    1
    11    81    80    2
    12    89    90    1
    13    92    91    2
    14    80    79    1
    15    91    90    1
    16    86    84   ar
    17    86    88   ar
    18    84    83   ar
    19    90    93    1
    20    88    87   ar
    21    83    82    1
    22    83    85   ar
    23    82    79    1
    24    79    78    1
    25    93    94    1
    26    87    85   ar
    27    95    94    1
    28    95    96    1
    29    97    96    1
    30    76    74   ar
    31    76    77   ar
    32    74    72   ar
    33    67    68    1
    34    46    48   ar
    35    46    44   ar
    36    77    75   ar
    37    48    47   ar
    38    43    44   ar
    39    43    41   ar
    40    44    42   ar
    41    72    71    1
    42    72    73   ar
    43    71    68    1
    44    68    69    1
    45    69    70    2
    46    47    45   ar
    47    41    40   ar
    48    19    17    1
    49    42    45   ar
    50    42    40   ar
    51    40    39    1
    52    75    73   ar
    53    39    36    1
    54    17    18    1
    55    17    16    2
    56    16    15    1
    57    36    35    1
    58    36    37    1
    59    35    29   am
    60    15    14    1
    61    37    49   am
    62    37    38    2
    63    49    50    1
    64    14    13    1
    65    53    50    1
    66    53    54    1
    67    23    22    2
    68    33    32    1
    69    29    28    1
    70    29    30    2
    71    13    10    1
    72    28    31    1
    73    28    27    1
    74    56    54   ar
    75    56    58   ar
    76    50    51    1
    77    54    55   ar
    78    31    32    1
    79    32    34    1
    80    22    27   am
    81    22    21    1
    82    58    59   ar
    83    25    26    1
    84    25    24    1
    85    52    51    2
    86    55    57   ar
    87    10    11    1
    88    10     9    1
    89    51    60   am
    90    26    20    1
    91    11    20   am
    92    11    12    2
    93    20    21    1
    94    59    57   ar
    95    24    21    1
    96     9     3   am
    97    60    66    1
    98    60    61    1
    99    66    65    1
   100     3     4    2
   101     3     2    1
   102     1     2    1
   103    61    62    1
   104    61    64    1
   105    62    63    2
   106     2     5    1
   107    65    64    1
   108     5     6    1
   109     8     6   ar
   110     6     7   ar
