@<TRIPOS>MOLECULE
tmp/4rkuQ11.pdb
 130 127 0 0 0
SMALL
GASTEIGER

@<TRIPOS>ATOM
      1  N         65.9380   18.6640   49.4500 N.3    49  TRP49      -0.1241
      2  CA        65.3710   19.6130   48.5210 C.3    49  TRP49       0.1605
      3  C         64.8200   20.8520   49.2020 C.2    49  TRP49       0.2264
      4  O         64.8490   21.8990   48.5780 O.2    49  TRP49      -0.2867
      5  CB        64.2470   18.9460   47.7100 C.3    49  TRP49       0.0550
      6  CG        64.7300   17.8920   46.6850 C.ar   49  TRP49       0.0003
      7  CD1       65.0060   16.5820   46.9230 C.ar   49  TRP49       0.0946
      8  CD2       65.0100   18.1390   45.2960 C.ar   49  TRP49       0.0152
      9  NE1       65.3950   16.0050   45.7510 N.ar   49  TRP49      -0.2442
     10  CE2       65.4080   16.9200   44.7380 C.ar   49  TRP49       0.0810
     11  CE3       64.9160   19.2460   44.4750 C.ar   49  TRP49       0.0012
     12  CZ2       65.7410   16.7880   43.3750 C.ar   49  TRP49       0.0191
     13  CZ3       65.2920   19.1470   43.1620 C.ar   49  TRP49       0.0001
     14  CH2       65.6880   17.9350   42.5980 C.ar   49  TRP49       0.0015
     15  N         59.6080   16.8620   30.1850 N.3    92  ILE92      -0.1231
     16  CA        61.0460   16.6160   30.2440 C.3    92  ILE92       0.1692
     17  C         61.4660   16.3580   31.6850 C.2    92  ILE92       0.2591
     18  O         62.1900   15.4020   31.9740 O.2    92  ILE92      -0.2718
     19  CB        61.8610   17.8000   29.6700 C.3    92  ILE92       0.0266
     20  CG1       62.0060   17.6760   28.1520 C.3    92  ILE92       0.0019
     21  CG2       63.2520   17.8480   30.2850 C.3    92  ILE92       0.0020
     22  CD1       60.7260   17.8620   27.3750 C.3    92  ILE92       0.0001
     23  N         60.9960   17.2130   32.5860 N.am   93  GLU93      -0.1979
     24  CA        61.2750   17.0540   34.0040 C.3    93  GLU93       0.1602
     25  C         60.7370   15.7270   34.5180 C.2    93  GLU93       0.2287
     26  O         61.4100   15.0310   35.2700 O.2    93  GLU93      -0.2864
     27  CB        60.6730   18.2040   34.8070 C.3    93  GLU93       0.0415
     28  CG        60.7160   17.9730   36.3020 C.3    93  GLU93       0.1163
     29  CD        60.0980   19.1060   37.0820 C.2    93  GLU93       0.3649
     30  OE1       59.7270   18.8830   38.2530 O.co2  93  GLU93      -0.2457
     31  OE2       59.9890   20.2200   36.5260 O.co2  93  GLU93      -0.2457
     32  N         62.3730   12.0700   32.7900 N.3    96  LEU96      -0.1231
     33  CA        63.7410   11.7660   33.1790 C.3    96  LEU96       0.1693
     34  C         63.9010   11.6160   34.6930 C.2    96  LEU96       0.2592
     35  O         64.6780   10.7790   35.1540 O.2    96  LEU96      -0.2718
     36  CB        64.6780   12.8430   32.6400 C.3    96  LEU96       0.0284
     37  CG        64.7850   12.9150   31.1150 C.3    96  LEU96       0.0019
     38  CD1       65.4820   14.1940   30.6780 C.3    96  LEU96       0.0001
     39  CD2       65.5030   11.6890   30.5550 C.3    96  LEU96       0.0001
     40  N         63.1780   12.4370   35.4180 N.am   97  PHE97      -0.1976
     41  CA        63.1760   12.3360   36.8440 C.3    97  PHE97       0.1639
     42  C         62.5930   10.9580   37.1450 C.2    97  PHE97       0.2290
     43  O         62.9060   10.3270   38.1440 O.2    97  PHE97      -0.2864
     44  CB        62.2470   13.3840   37.4000 C.3    97  PHE97       0.0560
     45  CG        62.8450   14.2060   38.4810 C.ar   97  PHE97      -0.0200
     46  CD1       63.7640   15.1760   38.1830 C.ar   97  PHE97      -0.0042
     47  CD2       62.4720   14.0200   39.7820 C.ar   97  PHE97      -0.0042
     48  CE1       64.3090   15.9470   39.1670 C.ar   97  PHE97      -0.0003
     49  CE2       63.0080   14.7910   40.7750 C.ar   97  PHE97      -0.0003
     50  CZ        63.9300   15.7540   40.4640 C.ar   97  PHE97      -0.0000
     51  N         63.1400    8.3680   35.5010 N.3    99  TYR99      -0.1227
     52  CA        64.2380    7.4510   35.4220 C.3    99  TYR99       0.1736
     53  C         65.1450    7.4600   36.6170 C.2    99  TYR99       0.2595
     54  O         65.5610    6.4270   37.0720 O.2    99  TYR99      -0.2718
     55  CB        65.0500    7.7970   34.2020 C.3    99  TYR99       0.0548
     56  CG        66.3070    7.0180   34.0550 C.ar   99  TYR99      -0.0200
     57  CD1       67.3850    7.2710   34.8570 C.ar   99  TYR99      -0.0009
     58  CD2       66.4140    6.0450   33.1040 C.ar   99  TYR99      -0.0009
     59  CE1       68.5440    6.5630   34.7220 C.ar   99  TYR99       0.0417
     60  CE2       67.5680    5.3340   32.9520 C.ar   99  TYR99       0.0417
     61  CZ        68.6250    5.5960   33.7660 C.ar   99  TYR99       0.1957
     62  OH        69.7690    4.8760   33.6120 O.3    99  TYR99      -0.2866
     63  N         65.4580    8.6290   37.1220 N.am  100  VAL100     -0.1980
     64  CA        66.3560    8.7260   38.2390 C.3   100  VAL100      0.1595
     65  C         65.7410    8.2330   39.5030 C.2   100  VAL100      0.2287
     66  O         66.3860    7.6100   40.3030 O.2   100  VAL100     -0.2864
     67  CB        66.7860   10.1700   38.4410 C.3   100  VAL100      0.0276
     68  CG1       67.6950   10.3080   39.6400 C.3   100  VAL100      0.0022
     69  CG2       67.4760   10.6560   37.2010 C.3   100  VAL100      0.0022
     70  N         72.3390   -0.4260   42.0060 N.3   113  SER113     -0.1217
     71  CA        72.4680    0.0260   40.6470 C.3   113  SER113      0.1889
     72  C         73.6500    0.9590   40.5470 C.2   113  SER113      0.2288
     73  O         73.6650    1.8750   39.7440 O.2   113  SER113     -0.2866
     74  CB        71.2020    0.7470   40.2210 C.3   113  SER113      0.2089
     75  OG        70.1590   -0.1700   40.0330 O.3   113  SER113     -0.2183
     76  N         76.4240    0.6270   39.2360 N.3   115  ASN115     -0.1225
     77  CA        77.1130    0.6420   37.9500 C.3   115  ASN115      0.1785
     78  C         76.5450    1.5110   36.8260 C.2   115  ASN115      0.2597
     79  O         75.3810    1.7980   36.8120 O.2   115  ASN115     -0.2718
     80  CB        77.2560   -0.7880   37.4370 C.3   115  ASN115      0.1169
     81  CG        78.2920   -1.5920   38.2010 C.2   115  ASN115      0.2627
     82  OD1       78.7130   -1.2220   39.2930 O.2   115  ASN115     -0.2716
     83  ND2       78.7030   -2.7100   37.6280 N.am  115  ASN115     -0.0877
     84  N         77.3940    1.8960   35.8730 N.am  116  GLN116     -0.1965
     85  CA        77.0360    2.7030   34.7000 C.3   116  GLN116      0.1733
     86  C         76.2900    1.7710   33.8220 C.2   116  GLN116      0.2616
     87  O         76.2990    0.5870   34.0460 O.2   116  GLN116     -0.2715
     88  CB        78.2680    3.2330   33.9730 C.3   116  GLN116      0.0408
     89  CG        78.0610    3.9640   32.6500 C.3   116  GLN116      0.0908
     90  CD        77.6450    5.3970   32.8380 C.2   116  GLN116      0.2608
     91  OE1       78.3000    6.3460   32.4430 O.2   116  GLN116     -0.2717
     92  NE2       76.5420    5.5460   33.4350 N.am  116  GLN116     -0.0878
     93  N         75.6110    2.3040   32.8330 N.am  117  ASP117     -0.1958
     94  CA        74.7660    1.4780   32.0060 C.3   117  ASP117      0.1825
     95  C         75.0350    1.3400   30.5470 C.2   117  ASP117      0.2464
     96  O         75.4520    0.2970   30.0890 O.2   117  ASP117     -0.2730
     97  CB        73.3870    2.0680   32.1370 C.3   117  ASP117      0.1450
     98  CG        72.9950    2.1990   33.5400 C.2   117  ASP117      0.3671
     99  OD1       72.4300    1.2460   34.0730 O.co2 117  ASP117     -0.2456
    100  OD2       73.3460    3.2130   34.1360 O.co2 117  ASP117     -0.2456
    101  N         74.7400    2.4600   29.8000 N.am  118  PRO118     -0.2715
    102  CA        74.9620    2.2960   28.3720 C.3   118  PRO118      0.1536
    103  C         76.4080    2.1610   28.1380 C.2   118  PRO118      0.2598
    104  O         76.8210    1.4850   27.2140 O.2   118  PRO118     -0.2715
    105  CB        74.5120    3.6230   27.7960 C.3   118  PRO118      0.0310
    106  CG        75.0110    4.5700   28.7850 C.3   118  PRO118      0.0237
    107  CD        74.4520    3.9460   30.0160 C.3   118  PRO118      0.0939
    108  N         77.1760    2.8100   28.9930 N.am  119  ILE119     -0.1978
    109  CA        78.5880    2.9180   28.7910 C.3   119  ILE119      0.1596
    110  C         79.2270    1.5910   28.4430 C.2   119  ILE119      0.2287
    111  O         79.1420    0.6150   29.1750 O.2   119  ILE119     -0.2864
    112  CB        79.2120    3.6490   29.9920 C.3   119  ILE119      0.0276
    113  CG1       79.9620    4.8750   29.4900 C.3   119  ILE119      0.0022
    114  CG2       79.9830    2.7220   30.9270 C.3   119  ILE119      0.0022
    115  CD1       79.1800    5.6940   28.4880 C.3   119  ILE119      0.0001
    116  N         83.4470    1.1920   30.7930 N.3   122  GLN122     -0.1245
    117  CA        83.8570    2.0570   31.8850 C.3   122  GLN122      0.1566
    118  C         83.3500    1.7290   33.2780 C.2   122  GLN122      0.2260
    119  O         82.4600    0.9160   33.4820 O.2   122  GLN122     -0.2867
    120  CB        83.5350    3.5140   31.5790 C.3   122  GLN122      0.0367
    121  CG        83.9800    4.0200   30.2340 C.3   122  GLN122      0.0905
    122  CD        84.0680    5.5150   30.2160 C.2   122  GLN122      0.2608
    123  OE1       83.9830    6.1610   31.2580 O.2   122  GLN122     -0.2717
    124  NE2       84.2340    6.0790   29.0350 N.am  122  GLN122     -0.0878
    125  N         81.9900    2.2460   37.3030 N.3   124  SER124     -0.1217
    126  CA        80.7380    2.2420   38.0200 C.3   124  SER124      0.1889
    127  C         80.9380    2.8000   39.4090 C.2   124  SER124      0.2288
    128  O         82.0350    2.8390   39.9270 O.2   124  SER124     -0.2866
    129  CB        80.2570    0.8120   38.1630 C.3   124  SER124      0.2089
    130  OG        81.0290    0.1170   39.1330 O.3   124  SER124     -0.2183
@<TRIPOS>BOND
     1   104   103    2
     2    22    20    1
     3   105   102    1
     4   105   106    1
     5   103   102    1
     6   103   108   am
     7    20    19    1
     8   102   101    1
     9   110   109    1
    10   110   111    2
    11   115   113    1
    12   106   107    1
    13   109   108    1
    14   109   112    1
    15   124   122   am
    16   113   112    1
    17    19    16    1
    18    19    21    1
    19   101   107    1
    20   101    95   am
    21   112   114    1
    22    96    95    2
    23    15    16    1
    24   122   121    1
    25   122   123    2
    26   121   120    1
    27    16    17    1
    28    95    94    1
    29    39    37    1
    30    38    37    1
    31   116   117    1
    32    37    36    1
    33   120   117    1
    34    17    18    2
    35    17    23   am
    36   117   118    1
    37    94    97    1
    38    94    93    1
    39    97    98    1
    40    91    90    2
    41    23    24    1
    42    36    33    1
    43    89    90    1
    44    89    88    1
    45    32    33    1
    46    93    86   am
    47    90    92   am
    48    60    58   ar
    49    60    61   ar
    50    58    56   ar
    51    33    34    1
    52   118   119    2
    53    98    99   ar
    54    98   100   ar
    55    62    61    1
    56    61    59   ar
    57    86    87    2
    58    86    85    1
    59    88    85    1
    60    24    25    1
    61    24    27    1
    62    56    55    1
    63    56    57   ar
    64    55    52    1
    65    25    26    2
    66    34    35    2
    67    34    40   am
    68    85    84    1
    69    59    57   ar
    70    27    28    1
    71    40    41    1
    72    52    51    1
    73    52    53    1
    74    84    78   am
    75    28    29    1
    76    31    29   ar
    77    53    54    2
    78    53    63   am
    79    79    78    2
    80    78    77    1
    81    41    42    1
    82    41    44    1
    83    29    30   ar
    84    63    64    1
    85    42    43    2
    86    69    67    1
    87   125   126    1
    88    44    45    1
    89    80    77    1
    90    80    81    1
    91    83    81   am
    92    77    76    1
    93   126   129    1
    94   126   127    1
    95   129   130    1
    96    46    45   ar
    97    46    48   ar
    98    81    82    2
    99    64    67    1
   100    64    65    1
   101    67    68    1
   102    45    47   ar
   103    48    50   ar
   104   127   128    2
   105    65    66    2
   106    73    72    2
   107    47    49   ar
   108    75    74    1
   109    74    71    1
   110    50    49   ar
   111    72    71    1
   112    71    70    1
   113    14    13   ar
   114    14    12   ar
   115    13    11   ar
   116    12    10   ar
   117    11     8   ar
   118    10     8   ar
   119    10     9   ar
   120     8     6   ar
   121     9     7   ar
   122     6     7   ar
   123     6     5    1
   124     5     2    1
   125     2     3    1
   126     2     1    1
   127     4     3    2
