@<TRIPOS>MOLECULE
tmp/4rkuO04.pdb
 157 153 0 0 0
SMALL
GASTEIGER

@<TRIPOS>ATOM
      1  N         44.6390   18.8340  107.5760 N.3    29  PHE29      -0.1227
      2  CA        43.4150   19.2360  106.8770 C.3    29  PHE29       0.1736
      3  C         43.0370   18.6110  105.5160 C.2    29  PHE29       0.2595
      4  O         43.7630   18.7730  104.5530 O.2    29  PHE29      -0.2718
      5  CB        43.4010   20.7480  106.7380 C.3    29  PHE29       0.0547
      6  CG        42.0290   21.3170  106.7170 C.ar   29  PHE29      -0.0202
      7  CD1       41.0540   20.7590  105.9370 C.ar   29  PHE29      -0.0042
      8  CD2       41.7200   22.4020  107.5040 C.ar   29  PHE29      -0.0042
      9  CE1       39.7860   21.2690  105.9280 C.ar   29  PHE29      -0.0003
     10  CE2       40.4540   22.9230  107.5030 C.ar   29  PHE29      -0.0003
     11  CZ        39.4840   22.3510  106.7100 C.ar   29  PHE29      -0.0000
     12  N         41.9020   17.9110  105.4480 N.am   30  ASP30      -0.1960
     13  CA        41.4190   17.3260  104.1940 C.3    30  ASP30       0.1825
     14  C         40.2520   16.3690  104.3780 C.2    30  ASP30       0.2464
     15  O         40.4090   15.1720  104.1790 O.2    30  ASP30      -0.2730
     16  CB        42.5500   16.6310  103.4500 C.3    30  ASP30       0.1450
     17  CG        42.1140   16.0620  102.1390 C.2    30  ASP30       0.3671
     18  OD1       40.9410   16.2010  101.7830 O.co2  30  ASP30      -0.2456
     19  OD2       42.9480   15.4710  101.4470 O.co2  30  ASP30      -0.2456
     20  N         39.0340   16.9370  104.7260 N.am   31  PRO31      -0.2715
     21  CA        37.9460   15.9620  104.9090 C.3    31  PRO31       0.1536
     22  C         37.6330   15.2330  103.6320 C.2    31  PRO31       0.2598
     23  O         37.3570   14.0470  103.6360 O.2    31  PRO31      -0.2715
     24  CB        36.7540   16.8000  105.3710 C.3    31  PRO31       0.0310
     25  CG        36.9850   18.1290  104.8100 C.3    31  PRO31       0.0237
     26  CD        38.4500   18.3310  104.9530 C.3    31  PRO31       0.0939
     27  N         37.6740   15.9620  102.5380 N.am   32  LEU32      -0.1978
     28  CA        37.3900   15.4100  101.2360 C.3    32  LEU32       0.1596
     29  C         38.3970   14.3520  100.8860 C.2    32  LEU32       0.2287
     30  O         38.0860   13.3570  100.2550 O.2    32  LEU32      -0.2864
     31  CB        37.3480   16.5210  100.2040 C.3    32  LEU32       0.0297
     32  CG        36.2980   17.5300  100.6420 C.3    32  LEU32       0.0022
     33  CD1       36.1550   18.6590   99.6580 C.3    32  LEU32       0.0001
     34  CD2       34.9620   16.8540  100.8410 C.3    32  LEU32       0.0001
     35  N         40.9180   15.0510   99.0980 N.3    34  LEU34      -0.1245
     36  CA        41.5000   15.5640   97.8600 C.3    34  LEU34       0.1561
     37  C         42.9690   15.2860   97.7400 C.2    34  LEU34       0.2260
     38  O         43.7830   16.1660   97.5720 O.2    34  LEU34      -0.2867
     39  CB        41.2340   17.0480   97.7000 C.3    34  LEU34       0.0270
     40  CG        39.8030   17.5410   97.8950 C.3    34  LEU34       0.0019
     41  CD1       39.5250   18.6300   96.8800 C.3    34  LEU34       0.0001
     42  CD2       38.7850   16.4300   97.7380 C.3    34  LEU34       0.0001
     43  N         50.1530   23.0750   95.6280 N.3    48  GLU48      -0.1245
     44  CA        49.8870   23.9990   96.7240 C.3    48  GLU48       0.1567
     45  C         51.0760   24.8410   97.0160 C.2    48  GLU48       0.2260
     46  O         50.9820   25.7910   97.7450 O.2    48  GLU48      -0.2867
     47  CB        49.4870   23.2870   98.0050 C.3    48  GLU48       0.0388
     48  CG        49.2670   24.2500   99.1520 C.3    48  GLU48       0.1160
     49  CD        49.5990   23.6610  100.4980 C.2    48  GLU48       0.3649
     50  OE1       50.6930   23.1130  100.6630 O.co2  48  GLU48      -0.2457
     51  OE2       48.7760   23.7590  101.4040 O.co2  48  GLU48      -0.2457
     52  N         51.7090   27.6790   93.8350 N.3    51  HIS51      -0.1241
     53  CA        50.6680   28.6540   93.9780 C.3    51  HIS51       0.1621
     54  C         51.0620   29.7060   94.9510 C.2    51  HIS51       0.2264
     55  O         50.9900   30.8920   94.6780 O.2    51  HIS51      -0.2867
     56  CB        49.4630   27.9750   94.5700 C.3    51  HIS51       0.0745
     57  CG        48.4250   27.6210   93.5700 C.ar   51  HIS51       0.0817
     58  ND1       47.1170   28.0100   93.7060 N.ar   51  HIS51      -0.2268
     59  CD2       48.4980   26.9370   92.4100 C.ar   51  HIS51       0.1154
     60  CE1       46.4180   27.5580   92.6890 C.ar   51  HIS51       0.1986
     61  NE2       47.2340   26.9120   91.8810 N.ar   51  HIS51      -0.2212
     62  N         53.6640   32.0420   94.0510 N.3    54  TRP54      -0.1227
     63  CA        53.1370   33.0890   93.1950 C.3    54  TRP54       0.1737
     64  C         52.3210   34.0680   94.0090 C.2    54  TRP54       0.2595
     65  O         52.5070   35.2630   93.9120 O.2    54  TRP54      -0.2718
     66  CB        52.3020   32.5050   92.0780 C.3    54  TRP54       0.0564
     67  CG        53.0800   31.7810   91.0590 C.ar   54  TRP54       0.0003
     68  CD1       53.1350   30.4450   90.8880 C.ar   54  TRP54       0.0946
     69  CD2       53.9080   32.3500   90.0460 C.ar   54  TRP54       0.0152
     70  NE1       53.9440   30.1350   89.8310 N.ar   54  TRP54      -0.2442
     71  CE2       54.4350   31.2930   89.2990 C.ar   54  TRP54       0.0810
     72  CE3       54.2620   33.6480   89.7060 C.ar   54  TRP54       0.0012
     73  CZ2       55.2930   31.4930   88.2350 C.ar   54  TRP54       0.0191
     74  CZ3       55.1160   33.8400   88.6470 C.ar   54  TRP54       0.0001
     75  CH2       55.6200   32.7710   87.9260 C.ar   54  TRP54       0.0015
     76  N         51.4140   33.5590   94.8220 N.am   55  ALA55      -0.1980
     77  CA        50.5730   34.4390   95.6150 C.3    55  ALA55       0.1597
     78  C         51.3720   35.4210   96.4080 C.2    55  ALA55       0.2287
     79  O         50.9460   36.5480   96.5720 O.2    55  ALA55      -0.2864
     80  CB        49.6570   33.6620   96.5350 C.3    55  ALA55       0.0319
     81  N         54.2170   36.9200   95.6830 N.3    57  LEU57      -0.1231
     82  CA        54.4790   38.0100   94.7640 C.3    57  LEU57       0.1693
     83  C         53.2100   38.8170   94.5490 C.2    57  LEU57       0.2592
     84  O         53.2370   40.0370   94.6750 O.2    57  LEU57      -0.2718
     85  CB        55.0560   37.4920   93.4590 C.3    57  LEU57       0.0284
     86  CG        56.5440   37.1970   93.5470 C.3    57  LEU57       0.0019
     87  CD1       56.8290   36.3930   94.7840 C.3    57  LEU57       0.0001
     88  CD2       57.0240   36.4470   92.3270 C.3    57  LEU57       0.0001
     89  N         52.0890   38.1630   94.3060 N.am   58  GLY58      -0.1957
     90  CA        50.8440   38.8890   94.1250 C.3    58  GLY58       0.1869
     91  C         50.6320   39.8590   95.2660 C.2    58  GLY58       0.2309
     92  O         50.1350   40.9720   95.1130 O.2    58  GLY58      -0.2863
     93  N         52.9950   41.1420   96.7920 N.3    60  ALA60      -0.1231
     94  CA        53.9830   42.1870   96.5540 C.3    60  ALA60       0.1694
     95  C         53.4160   43.1790   95.5460 C.2    60  ALA60       0.2592
     96  O         54.0840   44.1310   95.1410 O.2    60  ALA60      -0.2718
     97  CB        55.2930   41.5980   96.0600 C.3    60  ALA60       0.0304
     98  N         52.1520   42.9940   95.1960 N.am   61  GLY61      -0.1957
     99  CA        51.4650   43.8910   94.2960 C.3    61  GLY61       0.1869
    100  C         50.5610   44.7710   95.1320 C.2    61  GLY61       0.2309
    101  O         50.0590   45.7790   94.6710 O.2    61  GLY61      -0.2863
    102  N         50.1230   30.3690  102.3010 N.3   115  ARG115     -0.1245
    103  CA        48.7200   30.0820  102.3750 C.3   115  ARG115      0.1563
    104  C         48.0220   31.3920  102.5540 C.2   115  ARG115      0.2260
    105  O         46.9420   31.5820  102.0830 O.2   115  ARG115     -0.2867
    106  CB        48.4250   29.1940  103.5560 C.3   115  ARG115      0.0307
    107  CG        49.1410   27.8660  103.5320 C.3   115  ARG115      0.0489
    108  CD        48.4100   26.9100  104.4500 C.3   115  ARG115      0.2205
    109  NE        49.1600   25.6880  104.6620 N.pl3 115  ARG115     -0.0865
    110  CZ        48.9930   24.5780  103.9630 C.cat 115  ARG115      0.5346
    111  NH1       48.0980   24.5110  102.9830 N.pl3 115  ARG115      0.1354
    112  NH2       49.7350   23.5310  104.2370 N.pl3 115  ARG115      0.1354
    113  N         47.2800   33.6390   99.2550 N.3   118  MET118     -0.1230
    114  CA        46.2170   33.1400   98.4260 C.3   118  MET118      0.1702
    115  C         44.9010   33.5310   99.0150 C.2   118  MET118      0.2592
    116  O         44.0570   34.0570   98.3200 O.2   118  MET118     -0.2718
    117  CB        46.2940   31.6260   98.3650 C.3   118  MET118      0.0401
    118  CG        47.5870   31.1240   97.7860 C.3   118  MET118      0.0596
    119  SD        47.4790   29.3690   97.5400 S.3   118  MET118     -0.1393
    120  CE        46.6710   28.8770   99.0430 C.3   118  MET118      0.0692
    121  N         44.7370   33.3210  100.3070 N.am  119  LEU119     -0.1980
    122  CA        43.5000   33.7100  100.9370 C.3   119  LEU119      0.1596
    123  C         43.4390   35.2090  100.7990 C.2   119  LEU119      0.2287
    124  O         42.3830   35.7860  100.6000 O.2   119  LEU119     -0.2864
    125  CB        43.4060   33.2440  102.3770 C.3   119  LEU119      0.0297
    126  CG        42.3080   32.1960  102.5260 C.3   119  LEU119      0.0022
    127  CD1       42.1510   31.7060  103.9500 C.3   119  LEU119      0.0001
    128  CD2       40.9960   32.7710  102.0480 C.3   119  LEU119      0.0001
    129  N         45.2380   37.4100   98.4680 N.3   121  VAL121     -0.1231
    130  CA        45.0980   37.8190   97.0980 C.3   121  VAL121      0.1692
    131  C         43.7180   37.5440   96.6430 C.2   121  VAL121      0.2591
    132  O         43.2120   38.2070   95.7840 O.2   121  VAL121     -0.2718
    133  CB        46.1060   37.1510   96.1970 C.3   121  VAL121      0.0266
    134  CG1       46.2120   37.9330   94.9170 C.3   121  VAL121      0.0020
    135  CG2       47.4490   37.1530   96.8780 C.3   121  VAL121      0.0020
    136  N         43.1010   36.5500   97.2370 N.am  122  MET122     -0.1979
    137  CA        41.7530   36.2090   96.8750 C.3   122  MET122      0.1605
    138  C         40.9080   37.3350   97.4040 C.2   122  MET122      0.2287
    139  O         40.3670   38.1180   96.6690 O.2   122  MET122     -0.2864
    140  CB        41.3650   34.8830   97.5280 C.3   122  MET122      0.0413
    141  CG        39.9570   34.3850   97.2490 C.3   122  MET122      0.0598
    142  SD        39.5820   32.8900   98.1880 S.3   122  MET122     -0.1393
    143  CE        37.8220   32.6930   97.9210 C.3   122  MET122      0.0692
    144  N         39.8900   40.8450   95.8090 N.3   125  TRP125     -0.1241
    145  CA        39.1640   40.9520   94.5450 C.3   125  TRP125      0.1605
    146  C         37.6780   40.6060   94.6540 C.2   125  TRP125      0.2264
    147  O         36.8460   41.2890   94.0640 O.2   125  TRP125     -0.2867
    148  CB        39.8260   40.0760   93.4780 C.3   125  TRP125      0.0550
    149  CG        41.2930   40.3610   93.2930 C.ar  125  TRP125      0.0003
    150  CD1       42.3040   39.4460   93.2410 C.ar  125  TRP125      0.0946
    151  CD2       41.9110   41.6490   93.1500 C.ar  125  TRP125      0.0152
    152  NE1       43.5100   40.0810   93.0680 N.ar  125  TRP125     -0.2442
    153  CE2       43.2960   41.4330   93.0100 C.ar  125  TRP125      0.0810
    154  CE3       41.4270   42.9610   93.1210 C.ar  125  TRP125      0.0012
    155  CZ2       44.2010   42.4790   92.8460 C.ar  125  TRP125      0.0191
    156  CZ3       42.3250   43.9960   92.9600 C.ar  125  TRP125      0.0001
    157  CH2       43.6960   43.7500   92.8240 C.ar  125  TRP125      0.0015
@<TRIPOS>BOND
     1    75    73   ar
     2    75    74   ar
     3    73    71   ar
     4    74    72   ar
     5    71    70   ar
     6    71    69   ar
     7    72    69   ar
     8    70    68   ar
     9    69    67   ar
    10    68    67   ar
    11    67    66    1
    12    61    59   ar
    13    61    60   ar
    14    66    63    1
    15    88    86    1
    16    59    57   ar
    17    60    58   ar
    18   157   155   ar
    19   157   156   ar
    20   155   153   ar
    21   156   154   ar
    22   153   152   ar
    23   153   151   ar
    24   152   150   ar
    25   154   151   ar
    26   151   149   ar
    27    63    64    1
    28    63    62    1
    29   150   149   ar
    30   149   148    1
    31    85    86    1
    32    85    82    1
    33   148   145    1
    34    86    87    1
    35    57    58   ar
    36    57    56    1
    37    52    53    1
    38    65    64    2
    39    53    56    1
    40    53    54    1
    41    64    76   am
    42   147   146    2
    43    90    89    1
    44    90    91    1
    45    99   100    1
    46    99    98    1
    47    89    83   am
    48   145   146    1
    49   145   144    1
    50    83    84    2
    51    83    82    1
    52   101   100    2
    53    55    54    2
    54    82    81    1
    55    76    77    1
    56   134   133    1
    57    92    91    2
    58    96    95    2
    59    98    95   am
    60    95    94    1
    61    77    78    1
    62    77    80    1
    63    43    44    1
    64   132   131    2
    65    97    94    1
    66   133   135    1
    67   133   130    1
    68    78    79    2
    69    94    93    1
    70   131   130    1
    71   131   136   am
    72   139   138    2
    73    44    45    1
    74    44    47    1
    75   137   136    1
    76   137   138    1
    77   137   140    1
    78    41    40    1
    79    45    46    2
    80   130   129    1
    81   141   140    1
    82   141   142    1
    83   119   118    1
    84   119   120    1
    85    38    37    2
    86    39    36    1
    87    39    40    1
    88    42    40    1
    89    37    36    1
    90   118   117    1
    91    36    35    1
    92   143   142    1
    93    47    48    1
    94   116   115    2
    95   117   114    1
    96   114   115    1
    97   114   113    1
    98   115   121   am
    99    48    49    1
   100    33    32    1
   101    31    32    1
   102    31    28    1
   103    30    29    2
   104   121   122    1
   105    49    50   ar
   106    49    51   ar
   107   124   123    2
   108    32    34    1
   109   123   122    1
   110    29    28    1
   111   122   125    1
   112    28    27    1
   113    19    17   ar
   114    18    17   ar
   115   128   126    1
   116   105   104    2
   117    17    16    1
   118   102   103    1
   119   103   104    1
   120   103   106    1
   121   125   126    1
   122   126   127    1
   123    27    22   am
   124   111   110    1
   125    16    13    1
   126   107   106    1
   127   107   108    1
   128    22    23    2
   129    22    21    1
   130   110   112    1
   131   110   109    2
   132    15    14    2
   133    13    14    1
   134    13    12    1
   135    14    20   am
   136   108   109    1
   137     4     3    2
   138    20    21    1
   139    20    26    1
   140    25    26    1
   141    25    24    1
   142    21    24    1
   143    12     3   am
   144     3     2    1
   145     9     7   ar
   146     9    11   ar
   147     7     6   ar
   148    11    10   ar
   149     6     5    1
   150     6     8   ar
   151     5     2    1
   152     2     1    1
   153    10     8   ar
