@<TRIPOS>MOLECULE
tmp/4rkuB33.pdb
 93 90 0 0 0
SMALL
GASTEIGER

@<TRIPOS>ATOM
      1  N         22.3970    5.8990   56.6880 N.3   429  PHE429     -0.1227
      2  CA        22.8890    6.9590   57.5660 C.3   429  PHE429      0.1736
      3  C         22.8320    8.3420   56.9200 C.2   429  PHE429      0.2595
      4  O         22.6270    9.3460   57.6030 O.2   429  PHE429     -0.2718
      5  CB        24.3260    6.6610   58.0040 C.3   429  PHE429      0.0547
      6  CG        24.4240    5.8010   59.2310 C.ar  429  PHE429     -0.0202
      7  CD1       23.4510    5.8580   60.2150 C.ar  429  PHE429     -0.0042
      8  CD2       25.4930    4.9390   59.4020 C.ar  429  PHE429     -0.0042
      9  CE1       23.5400    5.0700   61.3460 C.ar  429  PHE429     -0.0003
     10  CE2       25.5880    4.1470   60.5290 C.ar  429  PHE429     -0.0003
     11  CZ        24.6100    4.2130   61.5030 C.ar  429  PHE429     -0.0000
     12  N         23.0060    8.3910   55.6050 N.am  430  HIS430     -0.1975
     13  CA        23.1380    9.6650   54.9080 C.3   430  HIS430      0.1656
     14  C         21.8570   10.0940   54.2080 C.2   430  HIS430      0.2291
     15  O         21.4740   11.2620   54.2720 O.2   430  HIS430     -0.2864
     16  CB        24.2800    9.5900   53.8980 C.3   430  HIS430      0.0771
     17  CG        25.5660    9.1060   54.4870 C.ar  430  HIS430      0.0820
     18  ND1       25.8040    7.7770   54.7630 N.ar  430  HIS430     -0.2267
     19  CD2       26.6800    9.7750   54.8690 C.ar  430  HIS430      0.1154
     20  CE1       27.0100    7.6470   55.2820 C.ar  430  HIS430      0.1986
     21  NE2       27.5640    8.8430   55.3550 N.ar  430  HIS430     -0.2212
     22  N         19.8660   11.0720   56.7860 N.3   433  GLY433     -0.1210
     23  CA        20.5380   12.2380   57.3290 C.3   433  GLY433      0.1956
     24  C         20.2610   13.4910   56.5240 C.2   433  GLY433      0.2611
     25  O         19.9120   14.5320   57.0830 O.2   433  GLY433     -0.2717
     26  N         20.4110   13.3890   55.2070 N.am  434  LEU434     -0.1979
     27  CA        20.1760   14.5230   54.3220 C.3   434  LEU434      0.1596
     28  C         18.7200   14.9720   54.3650 C.2   434  LEU434      0.2287
     29  O         18.4310   16.1670   54.2950 O.2   434  LEU434     -0.2864
     30  CB        20.5740   14.1800   52.8850 C.3   434  LEU434      0.0297
     31  CG        22.0600   13.9280   52.6240 C.3   434  LEU434      0.0022
     32  CD1       22.3240   13.7720   51.1340 C.3   434  LEU434      0.0001
     33  CD2       22.9130   15.0410   53.2120 C.3   434  LEU434      0.0001
     34  N         16.3280   14.5070   56.9810 N.3   436  VAL436     -0.1231
     35  CA        16.0240   15.1240   58.2700 C.3   436  VAL436      0.1692
     36  C         16.6090   16.5270   58.3640 C.2   436  VAL436      0.2592
     37  O         15.9350   17.4570   58.8040 O.2   436  VAL436     -0.2718
     38  CB        16.5490   14.2740   59.4430 C.3   436  VAL436      0.0266
     39  CG1       16.3220   14.9930   60.7630 C.3   436  VAL436      0.0020
     40  CG2       15.8690   12.9130   59.4560 C.3   436  VAL436      0.0020
     41  N         17.8560   16.6690   57.9260 N.am  437  HIS437     -0.1976
     42  CA        18.5210   17.9670   57.8670 C.3   437  HIS437      0.1656
     43  C         17.6700   19.0010   57.1380 C.2   437  HIS437      0.2291
     44  O         17.4450   20.1010   57.6400 O.2   437  HIS437     -0.2864
     45  CB        19.8790   17.8410   57.1760 C.3   437  HIS437      0.0771
     46  CG        20.5530   19.1530   56.9240 C.ar  437  HIS437      0.0820
     47  ND1       21.2640   19.4160   55.7730 N.ar  437  HIS437     -0.2267
     48  CD2       20.6250   20.2760   57.6760 C.ar  437  HIS437      0.1154
     49  CE1       21.7450   20.6460   55.8270 C.ar  437  HIS437      0.1986
     50  NE2       21.3750   21.1890   56.9730 N.ar  437  HIS437     -0.2212
     51  N         14.6350   20.2280   58.9820 N.3   440  VAL440     -0.1231
     52  CA        14.9850   21.0850   60.1090 C.3   440  VAL440      0.1692
     53  C         14.9280   22.5650   59.7510 C.2   440  VAL440      0.2591
     54  O         14.3160   23.3610   60.4640 O.2   440  VAL440     -0.2718
     55  CB        16.3920   20.7620   60.6330 C.3   440  VAL440      0.0266
     56  CG1       16.8250   21.7900   61.6650 C.3   440  VAL440      0.0020
     57  CG2       16.4260   19.3630   61.2090 C.3   440  VAL440      0.0020
     58  N         15.5690   22.9280   58.6460 N.am  441  MET441     -0.1979
     59  CA        15.6360   24.3250   58.2400 C.3   441  MET441      0.1605
     60  C         14.2980   24.8630   57.7600 C.2   441  MET441      0.2287
     61  O         13.9820   26.0280   57.9910 O.2   441  MET441     -0.2864
     62  CB        16.6830   24.5230   57.1490 C.3   441  MET441      0.0413
     63  CG        18.0860   24.7390   57.6780 C.3   441  MET441      0.0598
     64  SD        19.0060   23.2060   57.7170 S.3   441  MET441     -0.1393
     65  CE        18.6370   22.6030   56.0710 C.3   441  MET441      0.0692
     66  N         12.6760   25.6210   60.6790 N.3   444  PHE444     -0.1241
     67  CA        13.3100   26.8460   61.1490 C.3   444  PHE444      0.1605
     68  C         13.1320   27.9850   60.1510 C.2   444  PHE444      0.2264
     69  O         13.5650   29.1090   60.3990 O.2   444  PHE444     -0.2867
     70  CB        14.7980   26.6110   61.4190 C.3   444  PHE444      0.0534
     71  CG        15.0700   25.8080   62.6600 C.ar  444  PHE444     -0.0203
     72  CD1       14.0510   25.5200   63.5550 C.ar  444  PHE444     -0.0042
     73  CD2       16.3460   25.3490   62.9390 C.ar  444  PHE444     -0.0042
     74  CE1       14.2980   24.7820   64.7020 C.ar  444  PHE444     -0.0003
     75  CE2       16.6010   24.6110   64.0840 C.ar  444  PHE444     -0.0003
     76  CZ        15.5750   24.3280   64.9660 C.ar  444  PHE444     -0.0000
     77  N         19.4240   26.7150   53.3390 N.3   449  LYS449     -0.1245
     78  CA        20.5240   26.0510   54.0280 C.3   449  LYS449      0.1561
     79  C         20.5140   24.5460   53.7780 C.2   449  LYS449      0.2260
     80  O         21.2520   23.7990   54.4190 O.2   449  LYS449     -0.2867
     81  CB        20.4580   26.3250   55.5310 C.3   449  LYS449      0.0271
     82  CG        20.6380   27.7840   55.9130 C.3   449  LYS449      0.0035
     83  CD        20.2550   28.0230   57.3650 C.3   449  LYS449      0.0206
     84  CE        20.9710   27.0570   58.2930 C.3   449  LYS449      0.1093
     85  NZ        20.5740   27.2520   59.7140 N.3   449  LYS449     -0.1314
     86  N         20.8340   20.7710   51.8930 N.3   451  ILE451     -0.1245
     87  CA        21.8070   20.0520   51.0870 C.3   451  ILE451      0.1561
     88  C         21.0950   19.4550   49.8810 C.2   451  ILE451      0.2260
     89  O         20.4720   18.3970   49.9700 O.2   451  ILE451     -0.2867
     90  CB        22.5140   18.9450   51.8900 C.3   451  ILE451      0.0252
     91  CG1       23.2950   19.5570   53.0530 C.3   451  ILE451      0.0019
     92  CG2       23.4500   18.1500   50.9940 C.3   451  ILE451      0.0019
     93  CD1       23.9900   18.5390   53.9270 C.3   451  ILE451      0.0001
@<TRIPOS>BOND
     1    88    89    2
     2    88    87    1
     3    92    90    1
     4    87    90    1
     5    87    86    1
     6    32    31    1
     7    90    91    1
     8    31    30    1
     9    31    33    1
    10    30    27    1
    11    91    93    1
    12    77    78    1
    13    79    78    1
    14    79    80    2
    15    16    17    1
    16    16    13    1
    17    78    81    1
    18    14    15    2
    19    14    13    1
    20    29    28    2
    21    27    28    1
    22    27    26    1
    23    17    18   ar
    24    17    19   ar
    25    18    20   ar
    26    19    21   ar
    27    13    12    1
    28    26    24   am
    29    20    21   ar
    30    81    82    1
    31    12     3   am
    32    47    49   ar
    33    47    46   ar
    34    49    50   ar
    35    82    83    1
    36    65    64    1
    37    24    25    2
    38    24    23    1
    39     1     2    1
    40    22    23    1
    41     3     2    1
    42     3     4    2
    43    46    45    1
    44    46    48   ar
    45    50    48   ar
    46    34    35    1
    47    43    44    2
    48    43    42    1
    49    62    63    1
    50    62    59    1
    51    45    42    1
    52    83    84    1
    53     2     5    1
    54    63    64    1
    55    60    61    2
    56    60    59    1
    57    42    41    1
    58    41    36   am
    59     5     6    1
    60    59    58    1
    61    35    36    1
    62    35    38    1
    63    84    85    1
    64    36    37    2
    65    58    53   am
    66    51    52    1
    67     6     8   ar
    68     6     7   ar
    69     8    10   ar
    70    38    40    1
    71    38    39    1
    72    53    52    1
    73    53    54    2
    74    52    55    1
    75    68    69    2
    76    68    67    1
    77     7     9   ar
    78    10    11   ar
    79    55    57    1
    80    55    56    1
    81    66    67    1
    82    67    70    1
    83     9    11   ar
    84    70    71    1
    85    71    73   ar
    86    71    72   ar
    87    73    75   ar
    88    72    74   ar
    89    75    76   ar
    90    74    76   ar
