@<TRIPOS>MOLECULE
tmp/4rkuB30.pdb
 87 83 0 0 0
SMALL
GASTEIGER

@<TRIPOS>ATOM
      1  N         41.7960  -17.5920   40.4820 N.3   312  ARG312     -0.1231
      2  CA        41.5300  -17.4390   41.8860 C.3   312  ARG312      0.1694
      3  C         40.0880  -17.8500   42.1290 C.2   312  ARG312      0.2591
      4  O         39.4990  -17.5100   43.1310 O.2   312  ARG312     -0.2718
      5  CB        41.7300  -15.9830   42.2760 C.3   312  ARG312      0.0321
      6  CG        42.8110  -15.2660   41.4790 C.3   312  ARG312      0.0489
      7  CD        43.4480  -14.1620   42.3010 C.3   312  ARG312      0.2205
      8  NE        44.3040  -13.2960   41.5090 N.pl3 312  ARG312     -0.0865
      9  CZ        45.6000  -13.4880   41.3190 C.cat 312  ARG312      0.5346
     10  NH1       46.2080  -14.5200   41.8560 N.pl3 312  ARG312      0.1354
     11  NH2       46.2960  -12.6470   40.5870 N.pl3 312  ARG312      0.1354
     12  N         39.5280  -18.6010   41.1990 N.am  313  LEU313     -0.1980
     13  CA        38.1680  -19.0410   41.2820 C.3   313  LEU313      0.1596
     14  C         38.1180  -20.5200   41.5530 C.2   313  LEU313      0.2287
     15  O         37.0590  -21.0970   41.6570 O.2   313  LEU313     -0.2864
     16  CB        37.4580  -18.7300   39.9720 C.3   313  LEU313      0.0297
     17  CG        36.5060  -17.5460   39.8160 C.3   313  LEU313      0.0022
     18  CD1       37.0940  -16.2670   40.3200 C.3   313  LEU313      0.0001
     19  CD2       36.1020  -17.3760   38.3770 C.3   313  LEU313      0.0001
     20  N         33.0700  -22.1390   41.9980 N.3   405  VAL405     -0.1245
     21  CA        32.5710  -20.7890   42.2600 C.3   405  VAL405      0.1561
     22  C         31.3860  -20.7610   43.2260 C.2   405  VAL405      0.2260
     23  O         31.2250  -19.8130   43.9930 O.2   405  VAL405     -0.2867
     24  CB        32.1570  -20.0830   40.9500 C.3   405  VAL405      0.0252
     25  CG1       33.3830  -19.7440   40.1200 C.3   405  VAL405      0.0019
     26  CG2       31.1880  -20.9460   40.1530 C.3   405  VAL405      0.0019
     27  N         32.6100  -21.5100   46.8030 N.3   408  ARG408     -0.1231
     28  CA        33.4950  -20.4880   47.2810 C.3   408  ARG408      0.1694
     29  C         32.6990  -19.3760   47.8900 C.2   408  ARG408      0.2591
     30  O         33.2480  -18.5030   48.5030 O.2   408  ARG408     -0.2718
     31  CB        34.3180  -19.9450   46.1350 C.3   408  ARG408      0.0321
     32  CG        35.0930  -21.0010   45.3780 C.3   408  ARG408      0.0489
     33  CD        36.5460  -21.0360   45.7750 C.3   408  ARG408      0.2205
     34  NE        37.3920  -20.5020   44.7320 N.pl3 408  ARG408     -0.0865
     35  CZ        38.6920  -20.3060   44.8720 C.cat 408  ARG408      0.5346
     36  NH1       39.2780  -20.5800   46.0110 N.pl3 408  ARG408      0.1354
     37  NH2       39.3980  -19.8170   43.8820 N.pl3 408  ARG408      0.1354
     38  N         31.3910  -19.4070   47.7260 N.am  409  MET409     -0.1979
     39  CA        30.5380  -18.3770   48.2720 C.3   409  MET409      0.1605
     40  C         30.2600  -18.6250   49.7160 C.2   409  MET409      0.2287
     41  O         30.0980  -17.7140   50.4600 O.2   409  MET409     -0.2864
     42  CB        29.2350  -18.3150   47.5100 C.3   409  MET409      0.0413
     43  CG        29.3750  -18.0570   46.0310 C.3   409  MET409      0.0598
     44  SD        29.4900  -16.3540   45.5770 S.3   409  MET409     -0.1393
     45  CE        31.0920  -16.3420   44.8620 C.3   409  MET409      0.0692
     46  N         32.3790  -20.1410   51.7350 N.3   411  GLU411     -0.1231
     47  CA        33.6160  -20.1240   52.5060 C.3   411  GLU411      0.1699
     48  C         34.1390  -18.7040   52.7170 C.2   411  GLU411      0.2592
     49  O         35.1070  -18.4980   53.4490 O.2   411  GLU411     -0.2718
     50  CB        34.6840  -20.9960   51.8370 C.3   411  GLU411      0.0402
     51  CG        35.5050  -20.3080   50.7640 C.3   411  GLU411      0.1161
     52  CD        36.6030  -21.2060   50.2190 C.2   411  GLU411      0.3649
     53  OE1       36.4290  -22.4430   50.2510 O.co2 411  GLU411     -0.2457
     54  OE2       37.6420  -20.6810   49.7680 O.co2 411  GLU411     -0.2457
     55  N         33.5010  -17.7260   52.0790 N.am  412  HIS412     -0.1976
     56  CA        33.7670  -16.3250   52.3970 C.3   412  HIS412      0.1656
     57  C         32.4440  -15.5720   52.5220 C.2   412  HIS412      0.2291
     58  O         32.3280  -14.4120   52.1250 O.2   412  HIS412     -0.2864
     59  CB        34.6930  -15.6750   51.3520 C.3   412  HIS412      0.0771
     60  CG        34.0390  -15.3820   50.0350 C.ar  412  HIS412      0.0820
     61  ND1       33.1640  -14.3330   49.8560 N.ar  412  HIS412     -0.2267
     62  CD2       34.1570  -15.9810   48.8270 C.ar  412  HIS412      0.1154
     63  CE1       32.7570  -14.3110   48.6000 C.ar  412  HIS412      0.1986
     64  NE2       33.3450  -15.3000   47.9540 N.ar  412  HIS412     -0.2212
     65  N         32.1260  -12.1780   54.3040 N.3   415  ALA415     -0.1231
     66  CA        32.6150  -11.0110   53.5810 C.3   415  ALA415      0.1694
     67  C         31.4910  -10.3320   52.8090 C.2   415  ALA415      0.2591
     68  O         31.3560   -9.1070   52.8370 O.2   415  ALA415     -0.2718
     69  CB        33.7410  -11.4050   52.6390 C.3   415  ALA415      0.0304
     70  N         30.6890  -11.1380   52.1230 N.am  416  ILE416     -0.1980
     71  CA        29.5740  -10.6310   51.3330 C.3   416  ILE416      0.1595
     72  C         28.5230   -9.9740   52.2230 C.2   416  ILE416      0.2287
     73  O         27.9990   -8.9100   51.8970 O.2   416  ILE416     -0.2864
     74  CB        28.9120  -11.7550   50.5120 C.3   416  ILE416      0.0276
     75  CG1       29.9650  -12.5290   49.7150 C.3   416  ILE416      0.0022
     76  CG2       27.8430  -11.1900   49.5920 C.3   416  ILE416      0.0022
     77  CD1       29.3920  -13.6670   48.8990 C.3   416  ILE416      0.0001
     78  N         29.7190   -6.4890   54.0320 N.3   419  HIS419     -0.1241
     79  CA        29.8140   -5.3480   53.1290 C.3   419  HIS419      0.1621
     80  C         28.4350   -4.9010   52.6640 C.2   419  HIS419      0.2264
     81  O         28.2150   -3.7220   52.3830 O.2   419  HIS419     -0.2867
     82  CB        30.7000   -5.6860   51.9310 C.3   419  HIS419      0.0745
     83  CG        32.1230   -5.9590   52.3010 C.ar  419  HIS419      0.0817
     84  ND1       32.4880   -7.0030   53.1240 N.ar  419  HIS419     -0.2268
     85  CD2       33.2690   -5.3160   51.9760 C.ar  419  HIS419      0.1154
     86  CE1       33.7990   -6.9960   53.2840 C.ar  419  HIS419      0.1986
     87  NE2       34.2970   -5.9840   52.5990 N.ar  419  HIS419     -0.2212
@<TRIPOS>BOND
     1    19    17    1
     2    17    16    1
     3    17    18    1
     4    16    13    1
     5    25    24    1
     6    26    24    1
     7     1     2    1
     8    11     9    1
     9    24    21    1
    10    12    13    1
    11    12     3   am
    12    13    14    1
    13     9     8    2
    14     9    10    1
    15     6     5    1
    16     6     7    1
    17     8     7    1
    18    14    15    2
    19     2     3    1
    20     2     5    1
    21    20    21    1
    22     3     4    2
    23    21    22    1
    24    22    23    2
    25    37    35    1
    26    34    35    2
    27    34    33    1
    28    45    44    1
    29    35    36    1
    30    32    33    1
    31    32    31    1
    32    44    43    1
    33    43    42    1
    34    31    28    1
    35    27    28    1
    36    28    29    1
    37    42    39    1
    38    38    29   am
    39    38    39    1
    40    29    30    2
    41    64    63   ar
    42    64    62   ar
    43    39    40    1
    44    63    61   ar
    45    62    60   ar
    46    77    75    1
    47    76    74    1
    48    75    74    1
    49    40    41    2
    50    54    52   ar
    51    61    60   ar
    52    60    59    1
    53    52    53   ar
    54    52    51    1
    55    74    71    1
    56    51    50    1
    57    71    70    1
    58    71    72    1
    59    59    56    1
    60    46    47    1
    61    50    47    1
    62    73    72    2
    63    82    83    1
    64    82    79    1
    65    85    83   ar
    66    85    87   ar
    67    55    56    1
    68    55    48   am
    69    70    67   am
    70    58    57    2
    71    83    84   ar
    72    81    80    2
    73    56    57    1
    74    47    48    1
    75    87    86   ar
    76    69    66    1
    77    80    79    1
    78    48    49    2
    79    67    68    2
    80    67    66    1
    81    84    86   ar
    82    79    78    1
    83    66    65    1
