@<TRIPOS>MOLECULE
tmp/4rkuO07.pdb
 72 76 0 0 0
SMALL
GASTEIGER

@<TRIPOS>ATOM
      1  N         42.7850   13.2510  112.5080 N.3    15  PRO15      -0.2103
      2  CA        43.8690   12.4570  111.9280 C.3    15  PRO15       0.1489
      3  C         43.4970   11.6910  110.6490 C.2    15  PRO15       0.2418
      4  O         42.9870   10.5770  110.7400 O.2    15  PRO15      -0.2734
      5  CB        44.1830   11.4740  113.0550 C.3    15  PRO15       0.0282
      6  CG        42.8430   11.3440  113.8410 C.3    15  PRO15       0.0208
      7  CD        41.8830   12.3790  113.2760 C.3    15  PRO15       0.0893
      8  N         43.7710   12.2720  109.4720 N.am   16  PRO16      -0.2719
      9  CA        43.6450   11.4740  108.2520 C.3    16  PRO16       0.1520
     10  C         44.9040   10.6450  108.0300 C.2    16  PRO16       0.2440
     11  O         45.9980   11.1590  108.2390 O.2    16  PRO16      -0.2731
     12  CB        43.4650   12.5270  107.1570 C.3    16  PRO16       0.0310
     13  CG        43.9590   13.8270  107.7390 C.3    16  PRO16       0.0237
     14  CD        44.2800   13.6260  109.1980 C.3    16  PRO16       0.0939
     15  N         44.7100    9.2960  107.7700 N.am   17  PRO17      -0.2716
     16  CA        45.9560    8.5350  107.6450 C.3    17  PRO17       0.1536
     17  C         46.9450    9.0840  106.6470 C.2    17  PRO17       0.2598
     18  O         48.1340    8.9390  106.8810 O.2    17  PRO17      -0.2715
     19  CB        45.5120    7.1270  107.2430 C.3    17  PRO17       0.0310
     20  CG        44.0650    7.1690  107.0180 C.3    17  PRO17       0.0237
     21  CD        43.5650    8.2880  107.8300 C.3    17  PRO17       0.0939
     22  N         46.4920    9.6700  105.5520 N.am   18  TRP18      -0.1974
     23  CA        47.4520   10.1820  104.5850 C.3    18  TRP18       0.1640
     24  C         48.2960   11.3260  105.1230 C.2    18  TRP18       0.2290
     25  O         49.4940   11.3900  104.8910 O.2    18  TRP18      -0.2864
     26  CB        46.8060   10.5060  103.2320 C.3    18  TRP18       0.0576
     27  CG        45.6770   11.4080  103.3080 C.ar   18  TRP18       0.0006
     28  CD1       45.6910   12.7320  103.0930 C.ar   18  TRP18       0.0946
     29  CD2       44.3410   11.0600  103.6150 C.ar   18  TRP18       0.0152
     30  NE1       44.4460   13.2430  103.2550 N.ar   18  TRP18      -0.2442
     31  CE2       43.5950   12.2280  103.5830 C.ar   18  TRP18       0.0810
     32  CE3       43.7050    9.8730  103.9270 C.ar   18  TRP18       0.0012
     33  CZ2       42.2520   12.2490  103.8540 C.ar   18  TRP18       0.0191
     34  CZ3       42.3770    9.8980  104.1820 C.ar   18  TRP18       0.0001
     35  CH2       41.6610   11.0720  104.1470 C.ar   18  TRP18       0.0015
     36  N         39.0340   16.9370  104.7260 N.3    31  PRO31      -0.2102
     37  CA        37.9460   15.9620  104.9090 C.3    31  PRO31       0.1504
     38  C         37.6330   15.2330  103.6320 C.2    31  PRO31       0.2576
     39  O         37.3570   14.0470  103.6360 O.2    31  PRO31      -0.2718
     40  CB        36.7540   16.8000  105.3710 C.3    31  PRO31       0.0282
     41  CG        36.9850   18.1290  104.8100 C.3    31  PRO31       0.0208
     42  CD        38.4500   18.3310  104.9530 C.3    31  PRO31       0.0893
     43  N         37.6740   15.9620  102.5380 N.am   32  LEU32      -0.1966
     44  CA        37.3900   15.4100  101.2360 C.3    32  LEU32       0.1728
     45  C         38.3970   14.3520  100.8860 C.2    32  LEU32       0.2617
     46  O         38.0860   13.3570  100.2550 O.2    32  LEU32      -0.2715
     47  CB        37.3480   16.5210  100.2040 C.3    32  LEU32       0.0311
     48  CG        36.2980   17.5300  100.6420 C.3    32  LEU32       0.0022
     49  CD1       36.1550   18.6590   99.6580 C.3    32  LEU32       0.0001
     50  CD2       34.9620   16.8540  100.8410 C.3    32  LEU32       0.0001
     51  N         39.6230   14.5640  101.2990 N.am   33  GLY33      -0.1940
     52  CA        40.6550   13.6080  101.0060 C.3    33  GLY33       0.2014
     53  C         41.3480   13.9640   99.7310 C.2    33  GLY33       0.2639
     54  O         42.2440   13.2520   99.3260 O.2    33  GLY33      -0.2714
     55  N         40.9180   15.0510   99.0980 N.am   34  LEU34      -0.1963
     56  CA        41.5000   15.5640   97.8600 C.3    34  LEU34       0.1728
     57  C         42.9690   15.2860   97.7400 C.2    34  LEU34       0.2617
     58  O         43.7830   16.1660   97.5720 O.2    34  LEU34      -0.2715
     59  CB        41.2340   17.0480   97.7000 C.3    34  LEU34       0.0311
     60  CG        39.8030   17.5410   97.8950 C.3    34  LEU34       0.0022
     61  CD1       39.5250   18.6300   96.8800 C.3    34  LEU34       0.0001
     62  CD2       38.7850   16.4300   97.7380 C.3    34  LEU34       0.0001
     63  N         43.2660   14.0060   97.8120 N.am   35  GLY35      -0.1940
     64  CA        44.5950   13.4410   97.7480 C.3    35  GLY35       0.2014
     65  C         44.8230   12.4740   98.8930 C.2    35  GLY35       0.2639
     66  O         45.2740   12.8180   99.9780 O.2    35  GLY35      -0.2714
     67  N         44.4870   11.2290   98.5800 N.am   36  SER36      -0.1949
     68  CA        44.6340   10.0530   99.4260 C.3    36  SER36       0.1924
     69  C         45.5520    9.0520   98.7260 C.2    36  SER36       0.2314
     70  O         45.8220    7.9650   99.2340 O.2    36  SER36      -0.2863
     71  CB        43.2810    9.3880   99.6390 C.3    36  SER36       0.2116
     72  OG        42.2300   10.3250   99.5650 O.3    36  SER36      -0.2180
@<TRIPOS>BOND
     1    61    60    1
     2    58    57    2
     3    59    56    1
     4    59    60    1
     5    62    60    1
     6    57    63   am
     7    57    56    1
     8    64    63    1
     9    64    65    1
    10    56    55    1
    11    67    65   am
    12    67    68    1
    13    69    70    2
    14    69    68    1
    15    65    66    2
    16    55    53   am
    17    54    53    2
    18    68    71    1
    19    72    71    1
    20    49    48    1
    21    53    52    1
    22    47    48    1
    23    47    44    1
    24    46    45    2
    25    48    50    1
    26    45    44    1
    27    45    51   am
    28    52    51    1
    29    44    43    1
    30    43    38   am
    31    28    30   ar
    32    28    27   ar
    33    26    27    1
    34    26    23    1
    35    30    31   ar
    36    27    29   ar
    37    31    29   ar
    38    31    33   ar
    39    29    32   ar
    40    38    39    2
    41    38    37    1
    42    33    35   ar
    43    32    34   ar
    44    35    34   ar
    45    23    24    1
    46    23    22    1
    47    36    37    1
    48    36    42    1
    49    41    42    1
    50    41    40    1
    51    25    24    2
    52    37    40    1
    53    22    17   am
    54    17    18    2
    55    17    16    1
    56    20    19    1
    57    20    21    1
    58    12    13    1
    59    12     9    1
    60    19    16    1
    61    16    15    1
    62    13    14    1
    63    15    21    1
    64    15    10   am
    65    10    11    2
    66    10     9    1
    67     9     8    1
    68    14     8    1
    69     8     3   am
    70     3     4    2
    71     3     2    1
    72     2     1    1
    73     2     5    1
    74     1     7    1
    75     5     6    1
    76     7     6    1
