@<TRIPOS>MOLECULE
tmp/4rkuA22.pdb
 128 124 0 0 0
SMALL
GASTEIGER

@<TRIPOS>ATOM
      1  N        -11.1100   14.1690  107.1350 N.3   273  PHE273     -0.1241
      2  CA        -9.9250   13.3280  107.1350 C.3   273  PHE273      0.1605
      3  C         -9.2850   13.3170  108.5180 C.2   273  PHE273      0.2264
      4  O         -8.5260   12.4110  108.8540 O.2   273  PHE273     -0.2867
      5  CB        -8.9350   13.8070  106.0750 C.3   273  PHE273      0.0534
      6  CG        -9.1970   13.2390  104.7110 C.ar  273  PHE273     -0.0203
      7  CD1       -9.6080   11.9240  104.5640 C.ar  273  PHE273     -0.0042
      8  CD2       -9.0440   14.0180  103.5770 C.ar  273  PHE273     -0.0042
      9  CE1       -9.8540   11.3940  103.3120 C.ar  273  PHE273     -0.0003
     10  CE2       -9.2900   13.4950  102.3210 C.ar  273  PHE273     -0.0003
     11  CZ        -9.6960   12.1810  102.1880 C.ar  273  PHE273     -0.0000
     12  N         -5.1910    2.0780   91.9300 N.3   327  MET327     -0.1245
     13  CA        -6.1190    3.1400   92.2940 C.3   327  MET327      0.1570
     14  C         -5.5260    4.5320   92.0960 C.2   327  MET327      0.2261
     15  O         -6.2510    5.4700   91.7710 O.2   327  MET327     -0.2867
     16  CB        -6.5750    2.9650   93.7410 C.3   327  MET327      0.0387
     17  CG        -7.2660    1.6380   93.9980 C.3   327  MET327      0.0595
     18  SD        -8.9000    1.8320   94.7270 S.3   327  MET327     -0.1393
     19  CE        -9.7290    2.8260   93.4880 C.3   327  MET327      0.0692
     20  N         -6.2100    4.9370   88.7400 N.3   330  SER330     -0.1202
     21  CA        -7.6470    5.1530   88.6210 C.3   330  SER330      0.2020
     22  C         -8.0300    6.5470   89.1100 C.2   330  SER330      0.2618
     23  O         -8.9620    7.1610   88.5920 O.2   330  SER330     -0.2717
     24  CB        -8.4170    4.0860   89.4020 C.3   330  SER330      0.2103
     25  OG        -8.1500    2.7910   88.8920 O.3   330  SER330     -0.2182
     26  N         -7.3010    7.0400   90.1070 N.am  331  LEU331     -0.1979
     27  CA        -7.5400    8.3740   90.6470 C.3   331  LEU331      0.1596
     28  C         -7.1380    9.4520   89.6480 C.2   331  LEU331      0.2287
     29  O         -7.8130   10.4710   89.5200 O.2   331  LEU331     -0.2864
     30  CB        -6.7790    8.5680   91.9600 C.3   331  LEU331      0.0297
     31  CG        -6.9010    9.9430   92.6190 C.3   331  LEU331      0.0022
     32  CD1       -8.3500   10.2410   92.9730 C.3   331  LEU331      0.0001
     33  CD2       -6.0140   10.0290   93.8490 C.3   331  LEU331      0.0001
     34  N         -9.9620    9.8740   87.0540 N.3   334  VAL334     -0.1245
     35  CA       -11.1350   10.6160   87.5060 C.3   334  VAL334      0.1561
     36  C        -10.7770   12.0780   87.7580 C.2   334  VAL334      0.2260
     37  O        -11.6520   12.9420   87.7870 O.2   334  VAL334     -0.2867
     38  CB       -11.7580   10.0030   88.7840 C.3   334  VAL334      0.0252
     39  CG1      -11.9910    8.5120   88.5980 C.3   334  VAL334      0.0019
     40  CG2      -10.8850   10.2640   89.9990 C.3   334  VAL334      0.0019
     41  N        -11.2740   13.7210   84.4070 N.3   337  GLN337     -0.1231
     42  CA       -12.6790   13.8870   84.0570 C.3   337  GLN337      0.1698
     43  C        -13.4480   14.7410   85.0600 C.2   337  GLN337      0.2592
     44  O        -14.6710   14.8530   84.9780 O.2   337  GLN337     -0.2718
     45  CB       -13.3530   12.5230   83.9170 C.3   337  GLN337      0.0381
     46  CG       -12.7370   11.6460   82.8410 C.3   337  GLN337      0.0905
     47  CD       -13.7800   10.9160   82.0180 C.2   337  GLN337      0.2608
     48  OE1      -14.8290   11.4730   81.6890 O.2   337  GLN337     -0.2717
     49  NE2      -13.5010    9.6610   81.6820 N.am  337  GLN337     -0.0878
     50  N        -12.7320   15.3400   86.0040 N.am  338  HIS338     -0.1976
     51  CA       -13.3540   16.2420   86.9650 C.3   338  HIS338      0.1656
     52  C        -12.8640   17.6700   86.7650 C.2   338  HIS338      0.2291
     53  O        -13.5550   18.6260   87.1160 O.2   338  HIS338     -0.2864
     54  CB       -13.0790   15.7860   88.3990 C.3   338  HIS338      0.0771
     55  CG       -13.9370   14.6420   88.8440 C.ar  338  HIS338      0.0820
     56  ND1      -14.0370   14.2560   90.1640 N.ar  338  HIS338     -0.2267
     57  CD2      -14.7360   13.8010   88.1450 C.ar  338  HIS338      0.1154
     58  CE1      -14.8590   13.2270   90.2580 C.ar  338  HIS338      0.1986
     59  NE2      -15.2960   12.9300   89.0470 N.ar  338  HIS338     -0.2212
     60  N        -12.0260   18.8830   83.7260 N.3   340  TYR340     -0.1227
     61  CA       -12.5690   19.3680   82.4620 C.3   340  TYR340      0.1736
     62  C        -14.0210   19.7990   82.6440 C.2   340  TYR340      0.2596
     63  O        -14.4680   20.7820   82.0540 O.2   340  TYR340     -0.2718
     64  CB       -12.4670   18.2970   81.3670 C.3   340  TYR340      0.0548
     65  CG       -13.7130   17.4470   81.2050 C.ar  340  TYR340     -0.0200
     66  CD1      -13.9260   16.3360   82.0070 C.ar  340  TYR340     -0.0009
     67  CD2      -14.6780   17.7610   80.2530 C.ar  340  TYR340     -0.0009
     68  CE1      -15.0600   15.5600   81.8700 C.ar  340  TYR340      0.0417
     69  CE2      -15.8190   16.9910   80.1120 C.ar  340  TYR340      0.0417
     70  CZ       -16.0020   15.8900   80.9210 C.ar  340  TYR340      0.1957
     71  OH       -17.1330   15.1180   80.7830 O.3   340  TYR340     -0.2866
     72  N        -14.7520   19.0550   83.4690 N.am  341  SER341     -0.1938
     73  CA       -16.1770   19.2860   83.6550 C.3   341  SER341      0.2055
     74  C        -16.4210   20.3630   84.7020 C.2   341  SER341      0.2642
     75  O        -17.4330   21.0600   84.6660 O.2   341  SER341     -0.2714
     76  CB       -16.8800   17.9880   84.0560 C.3   341  SER341      0.2130
     77  OG       -18.2660   18.1990   84.2550 O.3   341  SER341     -0.2179
     78  N        -15.4840   20.4940   85.6340 N.am  342  MET342     -0.1976
     79  CA       -15.5850   21.5030   86.6800 C.3   342  MET342      0.1605
     80  C        -14.2850   22.2850   86.8190 C.2   342  MET342      0.2287
     81  O        -13.5230   22.0520   87.7560 O.2   342  MET342     -0.2864
     82  CB       -15.9460   20.8500   88.0150 C.3   342  MET342      0.0413
     83  CG       -17.3070   20.1800   88.0330 C.3   342  MET342      0.0598
     84  SD       -17.4570   18.9870   89.3720 S.3   342  MET342     -0.1393
     85  CE       -16.2400   17.7760   88.8610 C.3   342  MET342      0.0692
     86  N        -28.2310   12.8860   83.6410 N.3   456  GLN456     -0.1245
     87  CA       -27.9490   14.3020   83.4300 C.3   456  GLN456      0.1566
     88  C        -29.1630   15.1660   83.7360 C.2   456  GLN456      0.2260
     89  O        -29.0330   16.2580   84.2890 O.2   456  GLN456     -0.2867
     90  CB       -27.4860   14.5600   81.9950 C.3   456  GLN456      0.0367
     91  CG       -26.0400   14.2010   81.7460 C.3   456  GLN456      0.0905
     92  CD       -25.4340   14.9790   80.5940 C.2   456  GLN456      0.2608
     93  OE1      -24.2770   15.3940   80.6510 O.2   456  GLN456     -0.2717
     94  NE2      -26.2150   15.1800   79.5400 N.am  456  GLN456     -0.0878
     95  N        -23.8470   21.4990   89.5590 N.3   474  THR474     -0.1203
     96  CA       -22.4980   21.0350   89.8610 C.3   474  THR474      0.1994
     97  C        -21.5410   21.4360   88.7450 C.2   474  THR474      0.2618
     98  O        -20.5520   22.1320   88.9740 O.2   474  THR474     -0.2717
     99  CB       -22.4590   19.5060   90.0430 C.3   474  THR474      0.1784
    100  OG1      -23.1990   19.1400   91.2140 O.3   474  THR474     -0.2211
    101  CG2      -21.0260   19.0150   90.1760 C.3   474  THR474      0.0376
    102  N        -21.8460   20.9790   87.5370 N.am  475  SER475     -0.1951
    103  CA       -21.1030   21.3660   86.3480 C.3   475  SER475      0.1924
    104  C        -22.0850   21.8340   85.2830 C.2   475  SER475      0.2314
    105  O        -23.2210   21.3650   85.2310 O.2   475  SER475     -0.2863
    106  CB       -20.2560   20.2030   85.8330 C.3   475  SER475      0.2116
    107  OG       -21.0340   19.0290   85.6930 O.3   475  SER475     -0.2180
    108  N        -22.1870   21.2630   82.2690 N.3   477  THR477     -0.1203
    109  CA       -22.5370   20.2120   81.3230 C.3   477  THR477      0.1994
    110  C        -23.8240   19.5350   81.7850 C.2   477  THR477      0.2617
    111  O        -24.4430   18.7760   81.0400 O.2   477  THR477     -0.2717
    112  CB       -21.4180   19.1660   81.1780 C.3   477  THR477      0.1784
    113  OG1      -21.8670   18.0970   80.3370 O.3   477  THR477     -0.2211
    114  CG2      -21.0360   18.6060   82.5340 C.3   477  THR477      0.0376
    115  N        -24.2140   19.8230   83.0230 N.am  478  TRP478     -0.1975
    116  CA       -25.4800   19.3590   83.5760 C.3   478  TRP478      0.1640
    117  C        -26.4260   20.5320   83.7920 C.2   478  TRP478      0.2290
    118  O        -27.4900   20.3770   84.3880 O.2   478  TRP478     -0.2864
    119  CB       -25.2600   18.6270   84.9000 C.3   478  TRP478      0.0576
    120  CG       -24.3390   17.4560   84.8080 C.ar  478  TRP478      0.0006
    121  CD1      -24.0960   16.6870   83.7090 C.ar  478  TRP478      0.0946
    122  CD2      -23.5260   16.9230   85.8600 C.ar  478  TRP478      0.0152
    123  NE1      -23.1860   15.7030   84.0120 N.ar  478  TRP478     -0.2442
    124  CE2      -22.8200   15.8270   85.3260 C.ar  478  TRP478      0.0810
    125  CE3      -23.3290   17.2650   87.2010 C.ar  478  TRP478      0.0012
    126  CZ2      -21.9310   15.0720   86.0870 C.ar  478  TRP478      0.0191
    127  CZ3      -22.4460   16.5140   87.9540 C.ar  478  TRP478      0.0001
    128  CH2      -21.7580   15.4300   87.3950 C.ar  478  TRP478      0.0015
@<TRIPOS>BOND
     1    94    92   am
     2    69    67   ar
     3    69    70   ar
     4    67    65   ar
     5   113   112    1
     6    92    93    2
     7    92    91    1
     8    71    70    1
     9    70    68   ar
    10   111   110    2
    11   112   109    1
    12   112   114    1
    13    65    64    1
    14    65    66   ar
    15   109   110    1
    16   109   108    1
    17    64    61    1
    18    49    47   am
    19    48    47    2
    20    91    90    1
    21   110   115   am
    22    68    66   ar
    23    90    87    1
    24    47    46    1
    25    63    62    2
    26    61    62    1
    27    61    60    1
    28    62    72   am
    29    46    45    1
    30   115   116    1
    31    87    86    1
    32    87    88    1
    33    72    73    1
    34   116   117    1
    35   116   119    1
    36    73    76    1
    37    73    74    1
    38   121   123   ar
    39   121   120   ar
    40    88    89    2
    41   117   118    2
    42    45    42    1
    43   123   124   ar
    44    76    77    1
    45    42    41    1
    46    42    43    1
    47    75    74    2
    48    74    78   am
    49   120   119    1
    50   120   122   ar
    51    44    43    2
    52    43    50   am
    53   105   104    2
    54   104   103    1
    55   124   122   ar
    56   124   126   ar
    57    78    79    1
    58   107   106    1
    59   106   103    1
    60   122   125   ar
    61    50    51    1
    62   126   128   ar
    63   103   102    1
    64    79    80    1
    65    79    82    1
    66    52    51    1
    67    52    53    2
    68    80    81    2
    69    51    54    1
    70    34    35    1
    71   125   127   ar
    72   128   127   ar
    73    35    36    1
    74    35    38    1
    75   102    97   am
    76    36    37    2
    77    82    83    1
    78    83    84    1
    79    57    55   ar
    80    57    59   ar
    81    54    55    1
    82    23    22    2
    83    39    38    1
    84    21    20    1
    85    21    22    1
    86    21    24    1
    87    97    98    2
    88    97    96    1
    89    38    40    1
    90    55    56   ar
    91    85    84    1
    92    25    24    1
    93    59    58   ar
    94    22    26   am
    95    29    28    2
    96    95    96    1
    97    28    27    1
    98    96    99    1
    99    99   101    1
   100    99   100    1
   101    26    27    1
   102    56    58   ar
   103    27    30    1
   104    15    14    2
   105    12    13    1
   106    30    31    1
   107    14    13    1
   108    13    16    1
   109    31    32    1
   110    31    33    1
   111    19    18    1
   112    16    17    1
   113    17    18    1
   114    11    10   ar
   115    11     9   ar
   116    10     8   ar
   117     9     7   ar
   118     8     6   ar
   119     7     6   ar
   120     6     5    1
   121     5     2    1
   122     2     1    1
   123     2     3    1
   124     3     4    2
