@<TRIPOS>MOLECULE
tmp/4rkuB16.pdb
 153 150 0 0 0
SMALL
GASTEIGER

@<TRIPOS>ATOM
      1  N         11.6400   -9.5110   -0.5730 N.3   223  LEU223     -0.1245
      2  CA        12.2310  -10.2240    0.5510 C.3   223  LEU223      0.1561
      3  C         13.1620  -11.3290    0.0630 C.2   223  LEU223      0.2260
      4  O         14.3160  -11.4140    0.4830 O.2   223  LEU223     -0.2867
      5  CB        11.1480  -10.8220    1.4460 C.3   223  LEU223      0.0270
      6  CG        11.6280  -11.8780    2.4410 C.3   223  LEU223      0.0019
      7  CD1       12.2540  -11.2400    3.6740 C.3   223  LEU223      0.0001
      8  CD2       10.4840  -12.7940    2.8210 C.3   223  LEU223      0.0001
      9  N         15.3980   -5.4010    0.7100 N.3   228  TRP228     -0.1227
     10  CA        14.3450   -5.3080    1.7150 C.3   228  TRP228      0.1737
     11  C         14.0230   -3.8610    2.0800 C.2   228  TRP228      0.2595
     12  O         13.0950   -3.5960    2.8450 O.2   228  TRP228     -0.2718
     13  CB        14.7480   -6.0940    2.9650 C.3   228  TRP228      0.0564
     14  CG        15.0210   -7.5500    2.6990 C.ar  228  TRP228      0.0003
     15  CD1       14.8250   -8.2220    1.5280 C.ar  228  TRP228      0.0946
     16  CD2       15.5410   -8.5100    3.6250 C.ar  228  TRP228      0.0152
     17  NE1       15.1930   -9.5370    1.6680 N.ar  228  TRP228     -0.2442
     18  CE2       15.6330   -9.7390    2.9480 C.ar  228  TRP228      0.0810
     19  CE3       15.9380   -8.4490    4.9600 C.ar  228  TRP228      0.0012
     20  CZ2       16.0990  -10.8960    3.5660 C.ar  228  TRP228      0.0191
     21  CZ3       16.4020   -9.5990    5.5710 C.ar  228  TRP228      0.0001
     22  CH2       16.4840  -10.8040    4.8730 C.ar  228  TRP228      0.0015
     23  N         14.7940   -2.9290    1.5270 N.am  229  ASN229     -0.1974
     24  CA        14.5580   -1.5040    1.7370 C.3   229  ASN229      0.1688
     25  C         13.2120   -1.0700    1.1750 C.2   229  ASN229      0.2292
     26  O         12.6290   -0.0830    1.6240 O.2   229  ASN229     -0.2864
     27  CB        15.6670   -0.6800    1.0920 C.3   229  ASN229      0.1181
     28  CG        15.7330   -0.8790   -0.4050 C.2   229  ASN229      0.2629
     29  OD1       15.4150   -1.9560   -0.9090 O.2   229  ASN229     -0.2716
     30  ND2       16.1550    0.1530   -1.1250 N.am  229  ASN229     -0.0877
     31  N         10.5710   -2.2420    1.7310 N.3   231  TYR231     -0.1227
     32  CA         9.5970   -2.3340    2.8130 C.3   231  TYR231      0.1736
     33  C          9.6160   -1.1020    3.7130 C.2   231  TYR231      0.2595
     34  O          8.9910   -1.0970    4.7710 O.2   231  TYR231     -0.2718
     35  CB         9.8520   -3.5800    3.6640 C.3   231  TYR231      0.0548
     36  CG         9.6430   -4.8880    2.9390 C.ar  231  TYR231     -0.0200
     37  CD1        8.3840   -5.2570    2.4840 C.ar  231  TYR231     -0.0009
     38  CD2       10.7000   -5.7620    2.7260 C.ar  231  TYR231     -0.0009
     39  CE1        8.1850   -6.4540    1.8270 C.ar  231  TYR231      0.0417
     40  CE2       10.5110   -6.9640    2.0700 C.ar  231  TYR231      0.0417
     41  CZ         9.2510   -7.3040    1.6230 C.ar  231  TYR231      0.1957
     42  OH         9.0510   -8.4960    0.9680 O.3   231  TYR231     -0.2866
     43  N         10.3350   -0.0630    3.2980 N.am  232  ALA232     -0.1980
     44  CA        10.4710    1.1350    4.1200 C.3   232  ALA232      0.1597
     45  C         10.4430    2.4150    3.2910 C.2   232  ALA232      0.2287
     46  O         10.7700    3.4920    3.7900 O.2   232  ALA232     -0.2864
     47  CB        11.7540    1.0670    4.9330 C.3   232  ALA232      0.0319
     48  N          7.7750   -2.2750    7.3460 N.3   253  LEU253     -0.1231
     49  CA         8.9540   -2.4340    8.1980 C.3   253  LEU253      0.1693
     50  C          9.8140   -1.1700    8.2100 C.2   253  LEU253      0.2593
     51  O         10.4350   -0.8320    7.2040 O.2   253  LEU253     -0.2718
     52  CB         9.7970   -3.6240    7.7300 C.3   253  LEU253      0.0284
     53  CG         9.1540   -5.0130    7.7060 C.3   253  LEU253      0.0019
     54  CD1       10.0410   -5.9930    6.9580 C.3   253  LEU253      0.0001
     55  CD2        8.8740   -5.5070    9.1160 C.3   253  LEU253      0.0001
     56  N          9.8490   -0.4710    9.3430 N.am  254  THR254     -0.1939
     57  CA        10.6430    0.7540    9.4610 C.3   254  THR254      0.2028
     58  C         11.4520    0.8080   10.7570 C.2   254  THR254      0.2642
     59  O         11.4450   -0.1350   11.5470 O.2   254  THR254     -0.2714
     60  CB         9.7610    2.0200    9.4000 C.3   254  THR254      0.1808
     61  OG1        8.9640    2.1090   10.5880 O.3   254  THR254     -0.2208
     62  CG2        8.8550    2.0040    8.1760 C.3   254  THR254      0.0379
     63  N         12.1400    1.9280   10.9670 N.am  255  ILE255     -0.1977
     64  CA        12.9490    2.1380   12.1650 C.3   255  ILE255      0.1596
     65  C         12.8440    3.5960   12.6150 C.2   255  ILE255      0.2287
     66  O         13.6760    4.0880   13.3830 O.2   255  ILE255     -0.2864
     67  CB        14.4270    1.7660   11.9150 C.3   255  ILE255      0.0276
     68  CG1       15.1560    1.4430   13.2250 C.3   255  ILE255      0.0022
     69  CG2       15.1380    2.8500   11.0980 C.3   255  ILE255      0.0022
     70  CD1       16.5990    1.0220   13.0300 C.3   255  ILE255      0.0001
     71  N          8.9580   -4.6660   12.6650 N.3   273  HIS273     -0.1241
     72  CA        10.3640   -4.7670   12.3360 C.3   273  HIS273      0.1621
     73  C         11.1730   -5.3020   13.5090 C.2   273  HIS273      0.2264
     74  O         12.1100   -6.0800   13.3300 O.2   273  HIS273     -0.2867
     75  CB        10.9010   -3.4070   11.9130 C.3   273  HIS273      0.0745
     76  CG        12.1600   -3.4950   11.1240 C.ar  273  HIS273      0.0817
     77  ND1       12.6600   -4.6970   10.6800 N.ar  273  HIS273     -0.2268
     78  CD2       13.0220   -2.5430   10.6980 C.ar  273  HIS273      0.1154
     79  CE1       13.7730   -4.4830   10.0070 C.ar  273  HIS273      0.1986
     80  NE2       14.0200   -3.1840   10.0080 N.ar  273  HIS273     -0.2212
     81  N         10.5990   -9.1080   14.0840 N.3   276  LEU276     -0.1231
     82  CA        11.1820   -9.8350   12.9920 C.3   276  LEU276      0.1693
     83  C         12.6680   -9.8700   13.2400 C.2   276  LEU276      0.2591
     84  O         13.3170  -10.8730   13.0150 O.2   276  LEU276     -0.2718
     85  CB        10.8800   -9.1160   11.6940 C.3   276  LEU276      0.0284
     86  CG        11.3620   -9.7290   10.3940 C.3   276  LEU276      0.0019
     87  CD1       10.8680  -11.1510   10.2890 C.3   276  LEU276      0.0001
     88  CD2       10.8300   -8.9130    9.2410 C.3   276  LEU276      0.0001
     89  N         13.2110   -8.7560   13.7000 N.am  277  ALA277     -0.1980
     90  CA        14.6330   -8.6690   13.9590 C.3   277  ALA277      0.1597
     91  C         15.1450   -9.5850   15.0480 C.2   277  ALA277      0.2287
     92  O         16.1450  -10.2530   14.8870 O.2   277  ALA277     -0.2864
     93  CB        14.9630   -7.2470   14.3250 C.3   277  ALA277      0.0319
     94  N         15.2330  -13.6560   14.5940 N.3   280  PHE280     -0.1227
     95  CA        16.4220  -14.2540   14.0310 C.3   280  PHE280      0.1736
     96  C         17.4980  -14.5890   15.0050 C.2   280  PHE280      0.2595
     97  O         18.0910  -15.6540   14.9160 O.2   280  PHE280     -0.2718
     98  CB        17.0430  -13.2650   13.0900 C.3   280  PHE280      0.0547
     99  CG        16.3840  -13.2220   11.7780 C.ar  280  PHE280     -0.0202
    100  CD1       15.0420  -13.4690   11.6700 C.ar  280  PHE280     -0.0042
    101  CD2       17.1070  -12.9250   10.6620 C.ar  280  PHE280     -0.0042
    102  CE1       14.4270  -13.4430   10.4590 C.ar  280  PHE280     -0.0003
    103  CE2       16.5010  -12.8860    9.4400 C.ar  280  PHE280     -0.0003
    104  CZ        15.1560  -13.1460    9.3390 C.ar  280  PHE280     -0.0000
    105  N         17.7670  -13.6860   15.9230 N.am  281  LEU281     -0.1980
    106  CA        18.8120  -13.9440   16.8730 C.3   281  LEU281      0.1596
    107  C         18.3910  -15.1610   17.6410 C.2   281  LEU281      0.2287
    108  O         19.1740  -16.0690   17.8480 O.2   281  LEU281     -0.2864
    109  CB        19.0010  -12.7430   17.7710 C.3   281  LEU281      0.0297
    110  CG        19.3720  -11.4680   17.0220 C.3   281  LEU281      0.0022
    111  CD1       19.9590  -10.4750   18.0030 C.3   281  LEU281      0.0001
    112  CD2       20.3690  -11.7550   15.9170 C.3   281  LEU281      0.0001
    113  N         18.6730  -18.3190   15.2780 N.3   284  ILE284     -0.1245
    114  CA        20.0160  -18.8380   15.1170 C.3   284  ILE284      0.1561
    115  C         20.5510  -19.3290   16.4500 C.2   284  ILE284      0.2260
    116  O         21.1840  -20.3590   16.5430 O.2   284  ILE284     -0.2867
    117  CB        20.9680  -17.8460   14.4590 C.3   284  ILE284      0.0252
    118  CG1       21.3180  -16.7250   15.4190 C.3   284  ILE284      0.0019
    119  CG2       20.3550  -17.3010   13.1870 C.3   284  ILE284      0.0019
    120  CD1       22.4520  -15.8580   14.9170 C.3   284  ILE284      0.0001
    121  N         22.2410    8.5350   11.0230 N.3   488  ARG488     -0.1245
    122  CA        21.9680    8.4580    9.5890 C.3   488  ARG488      0.1563
    123  C         20.4800    8.6210    9.3250 C.2   488  ARG488      0.2260
    124  O         19.8600    7.7770    8.6760 O.2   488  ARG488     -0.2867
    125  CB        22.4700    7.1330    9.0110 C.3   488  ARG488      0.0307
    126  CG        23.9870    7.0720    9.1390 C.3   488  ARG488      0.0489
    127  CD        24.6170    5.9040    8.3350 C.3   488  ARG488      0.2205
    128  NE        24.0000    4.6120    8.5900 N.pl3 488  ARG488     -0.0865
    129  CZ        24.3850    3.8170    9.5550 C.cat 488  ARG488      0.5346
    130  NH1       25.3870    4.1470   10.3370 N.pl3 488  ARG488      0.1354
    131  NH2       23.6780    2.7420    9.8090 N.pl3 488  ARG488      0.1354
    132  N         16.9250    8.0330    9.9860 N.3   490  ILE490     -0.1231
    133  CA        16.2980    6.8300   10.5260 C.3   490  ILE490      0.1692
    134  C         15.6640    7.0700   11.8960 C.2   490  ILE490      0.2592
    135  O         14.6410    7.7460   12.0030 O.2   490  ILE490     -0.2718
    136  CB        17.3090    5.6690   10.6340 C.3   490  ILE490      0.0266
    137  CG1       17.5620    5.1920    9.1870 C.3   490  ILE490      0.0019
    138  CG2       16.9170    4.4520   11.4530 C.3   490  ILE490      0.0020
    139  CD1       18.9790    4.7460    8.9260 C.3   490  ILE490      0.0001
    140  N         16.2760    6.5220   12.9430 N.am  491  TRP491     -0.1976
    141  CA        15.6850    6.5940   14.2740 C.3   491  TRP491      0.1640
    142  C         15.8700    7.9710   14.9090 C.2   491  TRP491      0.2290
    143  O         14.9260    8.5240   15.4660 O.2   491  TRP491     -0.2864
    144  CB        16.2610    5.4970   15.1860 C.3   491  TRP491      0.0576
    145  CG        17.6300    5.7670   15.7590 C.ar  491  TRP491      0.0006
    146  CD1       17.9180    6.4320   16.9180 C.ar  491  TRP491      0.0946
    147  CD2       18.8900    5.3540   15.2130 C.ar  491  TRP491      0.0152
    148  NE1       19.2760    6.4690   17.1190 N.ar  491  TRP491     -0.2442
    149  CE2       19.8960    5.8140   16.0880 C.ar  491  TRP491      0.0810
    150  CE3       19.2650    4.6450   14.0680 C.ar  491  TRP491      0.0012
    151  CZ2       21.2500    5.5880   15.8520 C.ar  491  TRP491      0.0191
    152  CZ3       20.6110    4.4230   13.8360 C.ar  491  TRP491      0.0001
    153  CH2       21.5870    4.8900   14.7260 C.ar  491  TRP491      0.0015
@<TRIPOS>BOND
     1    30    28   am
     2    29    28    2
     3     1     2    1
     4    28    27    1
     5     3     4    2
     6     3     2    1
     7     2     5    1
     8     9    10    1
     9    42    41    1
    10    27    24    1
    11    25    26    2
    12    25    24    1
    13     5     6    1
    14    23    24    1
    15    23    11   am
    16    15    17   ar
    17    15    14   ar
    18    41    39   ar
    19    41    40   ar
    20    17    18   ar
    21    10    11    1
    22    10    13    1
    23    31    32    1
    24    39    37   ar
    25    40    38   ar
    26    11    12    2
    27     6     8    1
    28     6     7    1
    29    37    36   ar
    30    14    13    1
    31    14    16   ar
    32    38    36   ar
    33    32    35    1
    34    32    33    1
    35    36    35    1
    36    18    20   ar
    37    18    16   ar
    38    45    46    2
    39    45    44    1
    40    43    33   am
    41    43    44    1
    42    20    22   ar
    43    16    19   ar
    44    33    34    2
    45    44    47    1
    46    22    21   ar
    47    19    21   ar
    48    54    53    1
    49    51    50    2
    50    48    49    1
    51    53    52    1
    52    53    55    1
    53    52    49    1
    54    62    60    1
    55    49    50    1
    56    50    56   am
    57   127   128    1
    58   127   126    1
    59   128   129    2
    60   124   123    2
    61   139   137    1
    62   125   126    1
    63   125   122    1
    64   137   136    1
    65    88    86    1
    66   123   122    1
    67   104   103   ar
    68   104   102   ar
    69    56    57    1
    70    60    57    1
    71    60    61    1
    72   103   101   ar
    73    57    58    1
    74   129   131    1
    75   129   130    1
    76   122   121    1
    77   132   133    1
    78    79    80   ar
    79    79    77   ar
    80    80    78   ar
    81    87    86    1
    82    86    85    1
    83   102   100   ar
    84   133   136    1
    85   133   134    1
    86   136   138    1
    87   101    99   ar
    88    77    76   ar
    89    78    76   ar
    90    58    63   am
    91    58    59    2
    92    63    64    1
    93    69    67    1
    94    76    75    1
    95   100    99   ar
    96    85    82    1
    97    99    98    1
    98   134   135    2
    99   134   140   am
   100    75    72    1
   101    67    64    1
   102    67    68    1
   103    64    65    1
   104    72    71    1
   105    72    73    1
   106    65    66    2
   107   140   141    1
   108    82    83    1
   109    82    81    1
   110    84    83    2
   111    70    68    1
   112    98    95    1
   113   119   117    1
   114    83    89   am
   115    74    73    2
   116    89    90    1
   117   152   150   ar
   118   152   153   ar
   119    90    93    1
   120    90    91    1
   121    95    94    1
   122    95    96    1
   123   150   147   ar
   124   141   142    1
   125   141   144    1
   126   117   114    1
   127   117   118    1
   128   153   151   ar
   129    92    91    2
   130   142   143    2
   131    97    96    2
   132   120   118    1
   133    96   105   am
   134   114   113    1
   135   114   115    1
   136   144   145    1
   137   147   145   ar
   138   147   149   ar
   139   145   146   ar
   140   151   149   ar
   141   112   110    1
   142   105   106    1
   143   149   148   ar
   144   115   116    2
   145   106   107    1
   146   106   109    1
   147   146   148   ar
   148   110   109    1
   149   110   111    1
   150   107   108    2
