@<TRIPOS>MOLECULE
tmp/4rkuP06.pdb
 124 121 0 0 0
SMALL
GASTEIGER

@<TRIPOS>ATOM
      1  N         16.5510   39.5990  129.5260 N.3    35  ALA35      -0.1231
      2  CA        15.6660   40.3100  128.6120 C.3    35  ALA35       0.1694
      3  C         14.7020   41.2120  129.3780 C.2    35  ALA35       0.2591
      4  O         14.2420   42.2160  128.8490 O.2    35  ALA35      -0.2718
      5  CB        14.9010   39.3320  127.7340 C.3    35  ALA35       0.0304
      6  N         14.4020   40.8680  130.6250 N.am   36  ILE36      -0.1980
      7  CA        13.5550   41.7320  131.4400 C.3    36  ILE36       0.1595
      8  C         14.4030   42.8630  132.0380 C.2    36  ILE36       0.2287
      9  O         13.8910   43.9280  132.3980 O.2    36  ILE36      -0.2864
     10  CB        12.8240   40.9280  132.5520 C.3    36  ILE36       0.0276
     11  CG1       11.7400   40.0320  131.9310 C.3    36  ILE36       0.0022
     12  CG2       12.2130   41.8490  133.5960 C.3    36  ILE36       0.0022
     13  CD1       10.3970   40.0160  132.6830 C.3    36  ILE36       0.0001
     14  N         16.4810   44.9970  130.5650 N.3    38  PRO38      -0.2102
     15  CA        16.2370   46.3000  129.9290 C.3    38  PRO38       0.1504
     16  C         14.7850   46.7690  130.0200 C.2    38  PRO38       0.2575
     17  O         14.4990   47.9310  129.7290 O.2    38  PRO38      -0.2718
     18  CB        16.6260   46.0600  128.4660 C.3    38  PRO38       0.0282
     19  CG        16.5220   44.5940  128.2710 C.3    38  PRO38       0.0208
     20  CD        16.8950   43.9820  129.5810 C.3    38  PRO38       0.0893
     21  N         13.8880   45.8770  130.4220 N.am   39  GLU39      -0.1980
     22  CA        12.4570   46.1620  130.4100 C.3    39  GLU39       0.1602
     23  C         11.9980   46.9320  131.6410 C.2    39  GLU39       0.2287
     24  O         11.0910   47.7610  131.5610 O.2    39  GLU39      -0.2864
     25  CB        11.6610   44.8600  130.2980 C.3    39  GLU39       0.0415
     26  CG        11.7230   44.4370  128.8120 C.3    39  GLU39       0.1163
     27  CD        10.8070   43.2960  128.4410 C.2    39  GLU39       0.3649
     28  OE1       10.0890   42.7170  129.2760 O.co2  39  GLU39      -0.2457
     29  OE2       10.7890   42.9860  127.2140 O.co2  39  GLU39      -0.2457
     30  N          7.2640   45.6840  113.7140 N.3    46  GLY46      -0.1225
     31  CA         8.1630   46.4530  114.5550 C.3    46  GLY46       0.1811
     32  C          9.6230   46.1520  114.2760 C.2    46  GLY46       0.2280
     33  O         10.1570   45.1440  114.7370 O.2    46  GLY46      -0.2866
     34  N         12.6510   48.4310  114.7100 N.3    48  TYR48      -0.1241
     35  CA        13.5350   48.9430  115.7650 C.3    48  TYR48       0.1605
     36  C         15.0140   48.8760  115.3560 C.2    48  TYR48       0.2264
     37  O         15.4720   47.8940  114.7680 O.2    48  TYR48      -0.2867
     38  CB        13.2910   48.1980  117.0860 C.3    48  TYR48       0.0534
     39  CG        11.8770   48.3560  117.6150 C.ar   48  TYR48      -0.0201
     40  CD1       11.1940   49.5590  117.4780 C.ar   48  TYR48      -0.0009
     41  CD2       11.2210   47.3000  118.2380 C.ar   48  TYR48      -0.0009
     42  CE1        9.9010   49.7090  117.9540 C.ar   48  TYR48       0.0417
     43  CE2        9.9260   47.4410  118.7160 C.ar   48  TYR48       0.0417
     44  CZ         9.2720   48.6480  118.5710 C.ar   48  TYR48       0.1957
     45  OH         7.9870   48.7940  119.0440 O.3    48  TYR48      -0.2866
     46  N          9.7770   31.5630  129.3880 N.3   125  ILE125     -0.1245
     47  CA        10.2120   32.2020  128.1530 C.3   125  ILE125      0.1561
     48  C          9.3990   31.7100  126.9540 C.2   125  ILE125      0.2260
     49  O          9.3340   32.3920  125.9350 O.2   125  ILE125     -0.2867
     50  CB        11.7180   31.9670  127.8880 C.3   125  ILE125      0.0252
     51  CG1       12.3090   33.1200  127.0740 C.3   125  ILE125      0.0019
     52  CG2       11.9570   30.6280  127.2050 C.3   125  ILE125      0.0019
     53  CD1       12.4240   34.4110  127.8460 C.3   125  ILE125      0.0001
     54  N          6.6250   34.2760  127.0060 N.3   128  TYR128     -0.1227
     55  CA         7.0200   35.4360  126.1860 C.3   128  TYR128      0.1736
     56  C          6.6780   35.3380  124.7030 C.2   128  TYR128      0.2595
     57  O          6.2940   36.3320  124.0880 O.2   128  TYR128     -0.2718
     58  CB         8.5320   35.6730  126.2880 C.3   128  TYR128      0.0548
     59  CG         9.0690   36.0810  127.6430 C.ar  128  TYR128     -0.0200
     60  CD1        8.5730   35.5260  128.8110 C.ar  128  TYR128     -0.0009
     61  CD2       10.1050   36.9970  127.7460 C.ar  128  TYR128     -0.0009
     62  CE1        9.0720   35.8790  130.0400 C.ar  128  TYR128      0.0417
     63  CE2       10.6160   37.3580  128.9740 C.ar  128  TYR128      0.0417
     64  CZ        10.0930   36.7950  130.1180 C.ar  128  TYR128      0.1957
     65  OH        10.5900   37.1450  131.3480 O.3   128  TYR128     -0.2866
     66  N          6.8540   34.1460  124.1370 N.am  129  PHE129     -0.1976
     67  CA         6.5800   33.8940  122.7240 C.3   129  PHE129      0.1639
     68  C          5.1080   34.1220  122.4010 C.2   129  PHE129      0.2290
     69  O          4.6620   35.2650  122.3130 O.2   129  PHE129     -0.2864
     70  CB         6.9780   32.4640  122.3410 C.3   129  PHE129      0.0560
     71  CG         8.4510   32.2790  122.0870 C.ar  129  PHE129     -0.0200
     72  CD1        9.3930   32.7460  122.9870 C.ar  129  PHE129     -0.0042
     73  CD2        8.8910   31.6120  120.9560 C.ar  129  PHE129     -0.0042
     74  CE1       10.7450   32.5660  122.7580 C.ar  129  PHE129     -0.0003
     75  CE2       10.2430   31.4290  120.7200 C.ar  129  PHE129     -0.0003
     76  CZ        11.1700   31.9050  121.6230 C.ar  129  PHE129     -0.0000
     77  N          3.2830   37.5190  123.2330 N.3   132  GLY132     -0.1210
     78  CA         3.3550   38.7890  122.5370 C.3   132  GLY132      0.1956
     79  C          3.1620   38.6710  121.0430 C.2   132  GLY132      0.2611
     80  O          3.2570   39.6550  120.3090 O.2   132  GLY132     -0.2717
     81  N          2.8780   37.4540  120.5970 N.am  133  LEU133     -0.1979
     82  CA         2.7660   37.1610  119.1770 C.3   133  LEU133      0.1596
     83  C          1.3340   37.2970  118.6790 C.2   133  LEU133      0.2287
     84  O          0.9820   38.2880  118.0400 O.2   133  LEU133     -0.2864
     85  CB         3.2870   35.7520  118.8830 C.3   133  LEU133      0.0297
     86  CG         4.7730   35.5840  118.5580 C.3   133  LEU133      0.0022
     87  CD1        5.6380   36.2340  119.6130 C.3   133  LEU133      0.0001
     88  CD2        5.1150   34.1130  118.4410 C.3   133  LEU133      0.0001
     89  N         -0.5850   40.7080  119.9300 N.3   136  GLY136     -0.1225
     90  CA        -0.1720   41.9780  119.3650 C.3   136  GLY136      0.1811
     91  C          0.4210   42.8780  120.4310 C.2   136  GLY136      0.2280
     92  O          0.9390   43.9530  120.1310 O.2   136  GLY136     -0.2866
     93  N          2.8270   43.0250  124.2620 N.3   138  GLY138     -0.1210
     94  CA         3.8690   42.3550  125.0300 C.3   138  GLY138      0.1940
     95  C          3.3560   41.4880  126.1680 C.2   138  GLY138      0.2454
     96  O          2.1620   41.4970  126.4660 O.2   138  GLY138     -0.2732
     97  N          4.2610   40.7330  126.8140 N.am  139  PRO139     -0.2717
     98  CA         3.8920   39.7990  127.8880 C.3   139  PRO139      0.1535
     99  C          3.4380   40.4740  129.1850 C.2   139  PRO139      0.2599
    100  O          2.7380   39.8480  129.9730 O.2   139  PRO139     -0.2715
    101  CB         5.1890   39.0120  128.1410 C.3   139  PRO139      0.0310
    102  CG         6.0750   39.3040  126.9720 C.3   139  PRO139      0.0237
    103  CD         5.6990   40.6720  126.5090 C.3   139  PRO139      0.0939
    104  N          3.8330   41.7200  129.4090 N.am  140  TYR140     -0.1960
    105  CA         3.5550   42.3710  130.6820 C.3   140  TYR140      0.1771
    106  C          2.3170   43.2680  130.6140 C.2   140  TYR140      0.2619
    107  O          1.8070   43.7280  131.6390 O.2   140  TYR140     -0.2715
    108  CB         4.7760   43.1750  131.1200 C.3   140  TYR140      0.0574
    109  CG         5.4120   43.9490  129.9860 C.ar  140  TYR140     -0.0198
    110  CD1        4.7080   44.9430  129.3170 C.ar  140  TYR140     -0.0009
    111  CD2        6.7110   43.6890  129.5830 C.ar  140  TYR140     -0.0009
    112  CE1        5.2810   45.6550  128.2720 C.ar  140  TYR140      0.0417
    113  CE2        7.2890   44.3970  128.5490 C.ar  140  TYR140      0.0417
    114  CZ         6.5760   45.3770  127.8920 C.ar  140  TYR140      0.1957
    115  OH         7.1720   46.0720  126.8590 O.3   140  TYR140     -0.2866
    116  N          1.8410   43.5100  129.3980 N.am  141  GLN141     -0.1977
    117  CA         0.6710   44.3490  129.1920 C.3   141  GLN141      0.1601
    118  C         -0.5920   43.5470  129.4560 C.2   141  GLN141      0.2287
    119  O         -1.4070   43.9140  130.3000 O.2   141  GLN141     -0.2864
    120  CB         0.6530   44.9180  127.7710 C.3   141  GLN141      0.0394
    121  CG         2.0260   45.0090  127.1350 C.3   141  GLN141      0.0908
    122  CD         2.1830   46.2250  126.2460 C.2   141  GLN141      0.2608
    123  OE1        1.3030   47.0850  126.1850 O.2   141  GLN141     -0.2717
    124  NE2        3.3120   46.3070  125.5530 N.am  141  GLN141     -0.0878
@<TRIPOS>BOND
     1    30    31    1
     2    32    31    1
     3    32    33    2
     4    34    35    1
     5    37    36    2
     6    36    35    1
     7    35    38    1
     8    38    39    1
     9    40    39   ar
    10    40    42   ar
    11    39    41   ar
    12    42    44   ar
    13    84    83    2
    14    41    43   ar
    15    88    86    1
    16    86    85    1
    17    86    87    1
    18    44    43   ar
    19    44    45    1
    20    83    82    1
    21    85    82    1
    22    82    81    1
    23    90    89    1
    24    90    91    1
    25    92    91    2
    26    80    79    2
    27    81    79   am
    28    75    73   ar
    29    75    76   ar
    30    73    71   ar
    31    79    78    1
    32    76    74   ar
    33    71    70    1
    34    71    72   ar
    35    69    68    2
    36    70    67    1
    37    68    67    1
    38    78    77    1
    39    67    66    1
    40    74    72   ar
    41    57    56    2
    42    66    56   am
    43    93    94    1
    44    56    55    1
    45    94    95    1
    46   124   122   am
    47    49    48    2
    48    95    96    2
    49    95    97   am
    50   123   122    2
    51    55    58    1
    52    55    54    1
    53   122   121    1
    54    58    59    1
    55   103    97    1
    56   103   102    1
    57    97    98    1
    58   115   114    1
    59    48    47    1
    60   102   101    1
    61    51    53    1
    62    51    50    1
    63   121   120    1
    64    52    50    1
    65    29    27   ar
    66    59    61   ar
    67    59    60   ar
    68     5     2    1
    69    61    63   ar
    70   120   117    1
    71    98   101    1
    72    98    99    1
    73    50    47    1
    74   114   112   ar
    75   114   113   ar
    76    47    46    1
    77    19    18    1
    78    19    20    1
    79   112   110   ar
    80    27    26    1
    81    27    28   ar
    82    18    15    1
    83   113   111   ar
    84     2     3    1
    85     2     1    1
    86    60    62   ar
    87    26    25    1
    88     4     3    2
    89    63    64   ar
    90    99   104   am
    91    99   100    2
    92   117   116    1
    93   117   118    1
    94   110   109   ar
    95     3     6   am
    96   116   106   am
    97   104   105    1
    98   118   119    2
    99    20    14    1
   100   111   109   ar
   101    17    16    2
   102    15    16    1
   103    15    14    1
   104   109   108    1
   105    16    21   am
   106    62    64   ar
   107    64    65    1
   108    25    22    1
   109    22    21    1
   110    22    23    1
   111   106   105    1
   112   106   107    2
   113     6     7    1
   114   105   108    1
   115     7     8    1
   116     7    10    1
   117    24    23    2
   118    11    10    1
   119    11    13    1
   120     8     9    2
   121    10    12    1
