@<TRIPOS>MOLECULE
tmp/4rkuA54.pdb
 87 88 0 0 0
SMALL
GASTEIGER

@<TRIPOS>ATOM
      1  N        -14.9670  -10.6120  108.4590 N.3   297  HIS297     -0.1226
      2  CA       -15.7090  -10.8580  107.2410 C.3   297  HIS297      0.1752
      3  C        -15.3590  -12.2360  106.7410 C.2   297  HIS297      0.2596
      4  O        -14.2000  -12.5490  106.5840 O.2   297  HIS297     -0.2718
      5  CB       -15.4030   -9.7780  106.2320 C.3   297  HIS297      0.0759
      6  CG       -15.7740   -8.4180  106.7130 C.ar  297  HIS297      0.0818
      7  ND1      -15.1730   -7.8320  107.8010 N.ar  297  HIS297     -0.2268
      8  CD2      -16.7050   -7.5410  106.2810 C.ar  297  HIS297      0.1154
      9  CE1      -15.7070   -6.6450  108.0090 C.ar  297  HIS297      0.1986
     10  NE2      -16.6400   -6.4440  107.1000 N.ar  297  HIS297     -0.2212
     11  N        -16.3890  -13.0450  106.5020 N.am  298  LYS298     -0.1965
     12  CA       -16.2920  -14.4300  106.0520 C.3   298  LYS298      0.1731
     13  C        -17.6000  -14.6690  105.3770 C.2   298  LYS298      0.2656
     14  O        -18.4660  -13.8410  105.4900 O.2   298  LYS298     -0.2711
     15  CB       -16.2210  -15.3820  107.2260 C.3   298  LYS298      0.0312
     16  CG       -14.8780  -15.4940  107.9090 C.3   298  LYS298      0.0038
     17  CD       -14.9620  -16.5690  108.9760 C.3   298  LYS298      0.0206
     18  CE       -13.5960  -17.0220  109.4390 C.3   298  LYS298      0.1093
     19  NZ       -13.6860  -18.3760  110.0300 N.3   298  LYS298     -0.1314
     20  N        -17.7610  -15.7760  104.6620 N.am  299  GLY299     -0.1717
     21  CA       -19.0280  -16.0170  103.9880 C.2   299  GLY299      0.1465
     22  C        -19.3870  -17.3900  103.4480 C.2   299  GLY299      0.2662
     23  O        -18.5250  -18.2080  103.1560 O.2   299  GLY299     -0.2684
     24  N        -20.7770  -17.6090  103.3120 N.am  300  PRO300     -0.2683
     25  CA       -21.0950  -18.9400  102.7810 C.3   300  PRO300      0.1538
     26  C        -20.3740  -19.2190  101.4690 C.2   300  PRO300      0.2599
     27  O        -20.0110  -20.3600  101.1850 O.2   300  PRO300     -0.2715
     28  CB       -22.6110  -18.8810  102.5620 C.3   300  PRO300      0.0310
     29  CG       -23.0870  -17.8010  103.4650 C.3   300  PRO300      0.0237
     30  CD       -21.9860  -16.7870  103.4920 C.3   300  PRO300      0.0942
     31  N        -20.1450  -18.1530  100.7190 N.am  301  PHE301     -0.1960
     32  CA       -19.4590  -18.2380   99.4500 C.3   301  PHE301      0.1771
     33  C        -17.9460  -18.2120   99.5960 C.2   301  PHE301      0.2620
     34  O        -17.2460  -18.9180   98.8900 O.2   301  PHE301     -0.2715
     35  CB       -19.8770  -17.0820   98.5700 C.3   301  PHE301      0.0574
     36  CG       -21.3240  -17.0820   98.2260 C.ar  301  PHE301     -0.0200
     37  CD1      -22.2380  -16.4860   99.0550 C.ar  301  PHE301     -0.0042
     38  CD2      -21.7620  -17.6650   97.0640 C.ar  301  PHE301     -0.0042
     39  CE1      -23.5710  -16.4760   98.7340 C.ar  301  PHE301     -0.0003
     40  CE2      -23.0910  -17.6570   96.7330 C.ar  301  PHE301     -0.0003
     41  CZ       -23.9980  -17.0610   97.5700 C.ar  301  PHE301     -0.0000
     42  N        -17.4360  -17.3850  100.4940 N.am  302  THR302     -0.1951
     43  CA       -15.9980  -17.2980  100.6830 C.3   302  THR302      0.1897
     44  C        -15.3940  -18.1980  101.7430 C.2   302  THR302      0.2313
     45  O        -14.1830  -18.2690  101.8590 O.2   302  THR302     -0.2863
     46  CB       -15.5970  -15.8860  101.1000 C.3   302  THR302      0.1794
     47  OG1      -14.1790  -15.8360  101.2590 O.3   302  THR302     -0.2208
     48  CG2      -16.2160  -15.5520  102.4270 C.3   302  THR302      0.0378
     49  N        -10.3740  -13.2620  103.9860 N.3   306  HIS306     -0.1241
     50  CA        -9.5770  -12.1490  104.4360 C.3   306  HIS306      0.1621
     51  C         -8.7110  -12.5730  105.5750 C.2   306  HIS306      0.2264
     52  O         -7.8460  -11.8200  105.9910 O.2   306  HIS306     -0.2867
     53  CB       -10.4320  -10.9560  104.8470 C.3   306  HIS306      0.0745
     54  CG       -11.5070  -10.6100  103.8680 C.ar  306  HIS306      0.0817
     55  ND1      -11.4510   -9.4950  103.0680 N.ar  306  HIS306     -0.2268
     56  CD2      -12.6740  -11.2200  103.5680 C.ar  306  HIS306      0.1154
     57  CE1      -12.5290   -9.4340  102.3120 C.ar  306  HIS306      0.1986
     58  NE2      -13.2900  -10.4690  102.6000 N.ar  306  HIS306     -0.2212
     59  N         -9.2620  -16.4780   99.9230 N.3   394  LEU394     -0.1245
     60  CA        -9.8960  -15.6180   98.9450 C.3   394  LEU394      0.1561
     61  C         -9.1540  -15.8160   97.6590 C.2   394  LEU394      0.2260
     62  O         -9.7260  -15.8990   96.5940 O.2   394  LEU394     -0.2867
     63  CB        -9.8010  -14.1650   99.3670 C.3   394  LEU394      0.0270
     64  CG       -10.8420  -13.6780  100.3650 C.3   394  LEU394      0.0019
     65  CD1      -12.2300  -13.7370   99.7610 C.3   394  LEU394      0.0001
     66  CD2      -10.7720  -14.5290  101.6130 C.3   394  LEU394      0.0001
     67  N        -11.2750  -21.2940   90.2290 N.3   401  HIS401     -0.1241
     68  CA       -12.1570  -21.1490   89.0810 C.3   401  HIS401      0.1621
     69  C        -11.6010  -20.1130   88.1480 C.2   401  HIS401      0.2264
     70  O        -12.3180  -19.3010   87.6290 O.2   401  HIS401     -0.2867
     71  CB       -13.5670  -20.7600   89.5160 C.3   401  HIS401      0.0745
     72  CG       -13.6270  -19.5340   90.3660 C.ar  401  HIS401      0.0817
     73  ND1      -12.9010  -19.4020   91.5260 N.ar  401  HIS401     -0.2268
     74  CD2      -14.3560  -18.4030   90.2510 C.ar  401  HIS401      0.1154
     75  CE1      -13.1570  -18.2320   92.0730 C.ar  401  HIS401      0.1986
     76  NE2      -14.0370  -17.6090   91.3190 N.ar  401  HIS401     -0.2212
     77  N        -30.2620    6.3200   79.2700 N.3   451  PHE451     -0.1241
     78  CA       -29.8480    6.1790   80.6630 C.3   451  PHE451      0.1605
     79  C        -28.9400    7.3260   81.0910 C.2   451  PHE451      0.2264
     80  O        -29.1480    7.9310   82.1400 O.2   451  PHE451     -0.2867
     81  CB       -29.1440    4.8390   80.8930 C.3   451  PHE451      0.0534
     82  CG       -30.0850    3.6930   81.1390 C.ar  451  PHE451     -0.0203
     83  CD1      -31.4240    3.7890   80.7970 C.ar  451  PHE451     -0.0042
     84  CD2      -29.6320    2.5260   81.7310 C.ar  451  PHE451     -0.0042
     85  CE1      -32.2900    2.7380   81.0280 C.ar  451  PHE451     -0.0003
     86  CE2      -30.4930    1.4710   81.9660 C.ar  451  PHE451     -0.0003
     87  CZ       -31.8230    1.5760   81.6140 C.ar  451  PHE451     -0.0000
@<TRIPOS>BOND
     1    77    78    1
     2    78    81    1
     3    78    79    1
     4    83    85   ar
     5    83    82   ar
     6    81    82    1
     7    85    87   ar
     8    79    80    2
     9    82    84   ar
    10    87    86   ar
    11    84    86   ar
    12    70    69    2
    13    69    68    1
    14    68    71    1
    15    68    67    1
    16    71    72    1
    17    74    72   ar
    18    74    76   ar
    19    72    73   ar
    20    76    75   ar
    21    73    75   ar
    22    62    61    2
    23    40    38   ar
    24    40    41   ar
    25    38    36   ar
    26    41    39   ar
    27    61    60    1
    28    36    35    1
    29    36    37   ar
    30    35    32    1
    31    39    37   ar
    32    34    33    2
    33    60    63    1
    34    60    59    1
    35    63    64    1
    36    32    33    1
    37    32    31    1
    38    33    42   am
    39    65    64    1
    40    64    66    1
    41    42    43    1
    42    43    46    1
    43    43    44    1
    44    31    26   am
    45    46    47    1
    46    46    48    1
    47    27    26    2
    48    26    25    1
    49    44    45    2
    50    57    58   ar
    51    57    55   ar
    52    28    25    1
    53    28    29    1
    54    58    56   ar
    55    25    24    1
    56    55    54   ar
    57    23    22    2
    58    24    22   am
    59    24    30    1
    60    22    21    1
    61    29    30    1
    62    56    54   ar
    63    54    53    1
    64    49    50    1
    65    21    20    2
    66    50    53    1
    67    50    51    1
    68    20    13    1
    69    13    14    2
    70    13    12    1
    71    51    52    2
    72    12    11    1
    73    12    15    1
    74     5     6    1
    75     5     2    1
    76     8     6   ar
    77     8    10   ar
    78    11     3   am
    79     4     3    2
    80     6     7   ar
    81     3     2    1
    82    10     9   ar
    83    15    16    1
    84     2     1    1
    85     7     9   ar
    86    16    17    1
    87    17    18    1
    88    18    19    1
