@<TRIPOS>MOLECULE
tmp/4rkuA05.pdb
 120 119 0 0 0
SMALL
GASTEIGER

@<TRIPOS>ATOM
      1  N         12.3900    2.6370  101.0160 N.3    42  PHE42      -0.1241
      2  CA        12.0220    3.8090  101.8070 C.3    42  PHE42       0.1605
      3  C         12.9320    4.9890  101.4860 C.2    42  PHE42       0.2264
      4  O         12.4680    6.1170  101.3210 O.2    42  PHE42      -0.2867
      5  CB        12.0710    3.5030  103.3050 C.3    42  PHE42       0.0534
      6  CG        11.6570    4.6610  104.1690 C.ar   42  PHE42      -0.0203
      7  CD1       10.4110    5.2450  104.0120 C.ar   42  PHE42      -0.0042
      8  CD2       12.5090    5.1640  105.1380 C.ar   42  PHE42      -0.0042
      9  CE1       10.0250    6.3100  104.8010 C.ar   42  PHE42      -0.0003
     10  CE2       12.1260    6.2280  105.9320 C.ar   42  PHE42      -0.0003
     11  CZ        10.8830    6.8010  105.7620 C.ar   42  PHE42      -0.0000
     12  N         12.5420    8.9500   99.1330 N.3    46  PHE46      -0.1241
     13  CA        13.1520   10.2400   99.4400 C.3    46  PHE46       0.1605
     14  C         13.8420   10.8120   98.2090 C.2    46  PHE46       0.2264
     15  O         13.6530   11.9780   97.8640 O.2    46  PHE46      -0.2867
     16  CB        14.1630   10.1110  100.5820 C.3    46  PHE46       0.0534
     17  CG        13.5630   10.2620  101.9510 C.ar   46  PHE46      -0.0203
     18  CD1       12.8780   11.4150  102.2980 C.ar   46  PHE46      -0.0042
     19  CD2       13.7110    9.2620  102.9000 C.ar   46  PHE46      -0.0042
     20  CE1       12.3320   11.5610  103.5600 C.ar   46  PHE46      -0.0003
     21  CE2       13.1700    9.4020  104.1650 C.ar   46  PHE46      -0.0003
     22  CZ        12.4800   10.5530  104.4960 C.ar   46  PHE46      -0.0000
     23  N         11.2230   12.0680   95.8450 N.3    49  LEU49      -0.1245
     24  CA        10.6690   13.3390   96.3060 C.3    49  LEU49       0.1561
     25  C         11.6070   14.5120   96.0560 C.2    49  LEU49       0.2260
     26  O         11.1580   15.6200   95.7780 O.2    49  LEU49      -0.2867
     27  CB        10.3240   13.2650   97.7950 C.3    49  LEU49       0.0270
     28  CG         9.0860   12.4420   98.1590 C.3    49  LEU49       0.0019
     29  CD1        8.7100   12.6520   99.6170 C.3    49  LEU49       0.0001
     30  CD2        7.9210   12.7940   97.2480 C.3    49  LEU49       0.0001
     31  N         14.0230   22.4020  100.0540 N.3   137  PHE137     -0.1241
     32  CA        13.3550   21.1400  100.3500 C.3   137  PHE137      0.1605
     33  C         14.0040   19.9760   99.6080 C.2   137  PHE137      0.2264
     34  O         14.1250   18.8770  100.1480 O.2   137  PHE137     -0.2867
     35  CB        11.8690   21.2230   99.9940 C.3   137  PHE137      0.0534
     36  CG        10.9790   21.5090  101.1690 C.ar  137  PHE137     -0.0203
     37  CD1       10.7800   22.8080  101.6080 C.ar  137  PHE137     -0.0042
     38  CD2       10.3360   20.4770  101.8330 C.ar  137  PHE137     -0.0042
     39  CE1        9.9600   23.0700  102.6890 C.ar  137  PHE137     -0.0003
     40  CE2        9.5140   20.7320  102.9130 C.ar  137  PHE137     -0.0003
     41  CZ         9.3260   22.0300  103.3420 C.ar  137  PHE137     -0.0000
     42  N         16.9150   18.8370  101.4110 N.3   140  LEU140     -0.1231
     43  CA        16.5090   18.0670  102.5810 C.3   140  LEU140      0.1693
     44  C         16.1960   16.6210  102.2190 C.2   140  LEU140      0.2591
     45  O         16.7630   15.6920  102.7940 O.2   140  LEU140     -0.2718
     46  CB        15.2850   18.6980  103.2480 C.3   140  LEU140      0.0284
     47  CG        15.4790   19.9770  104.0620 C.3   140  LEU140      0.0019
     48  CD1       14.1930   20.3270  104.7940 C.3   140  LEU140      0.0001
     49  CD2       16.6330   19.8220  105.0380 C.3   140  LEU140      0.0001
     50  N         15.2840   16.4490  101.2650 N.am  141  MET141     -0.1979
     51  CA        14.8150   15.1300  100.8510 C.3   141  MET141      0.1605
     52  C         15.9560   14.2120  100.4380 C.2   141  MET141      0.2287
     53  O         16.0000   13.0490  100.8410 O.2   141  MET141     -0.2864
     54  CB        13.8170   15.2610   99.7000 C.3   141  MET141      0.0413
     55  CG        12.5060   15.9040  100.1010 C.3   141  MET141      0.0598
     56  SD        11.6180   14.9230  101.3240 S.3   141  MET141     -0.1393
     57  CE        10.1970   15.9670  101.6230 C.3   141  MET141      0.0692
     58  N         19.1120   14.5330  101.3060 N.3   143  PHE143     -0.1227
     59  CA        19.8700   14.2790  102.5270 C.3   143  PHE143      0.1736
     60  C         19.1760   13.2620  103.4300 C.2   143  PHE143      0.2595
     61  O         19.8350   12.4570  104.0870 O.2   143  PHE143     -0.2718
     62  CB        20.0980   15.5840  103.2940 C.3   143  PHE143      0.0547
     63  CG        20.6460   15.3840  104.6800 C.ar  143  PHE143     -0.0202
     64  CD1       21.9970   15.1530  104.8790 C.ar  143  PHE143     -0.0042
     65  CD2       19.8100   15.4310  105.7830 C.ar  143  PHE143     -0.0042
     66  CE1       22.5020   14.9690  106.1520 C.ar  143  PHE143     -0.0003
     67  CE2       20.3090   15.2460  107.0580 C.ar  143  PHE143     -0.0003
     68  CZ        21.6570   15.0160  107.2420 C.ar  143  PHE143     -0.0000
     69  N         17.8470   13.3040  103.4580 N.am  144  ALA144     -0.1980
     70  CA        17.0650   12.4500  104.3490 C.3   144  ALA144      0.1597
     71  C         17.2100   10.9680  104.0110 C.2   144  ALA144      0.2287
     72  O         17.1860   10.1170  104.9000 O.2   144  ALA144     -0.2864
     73  CB        15.6010   12.8560  104.3100 C.3   144  ALA144      0.0319
     74  N         20.5380    9.6590  105.1970 N.3   147  PHE147     -0.1227
     75  CA        20.5460    9.5620  106.6490 C.3   147  PHE147      0.1736
     76  C         19.8040    8.3230  107.1460 C.2   147  PHE147      0.2595
     77  O         20.1110    7.7970  108.2150 O.2   147  PHE147     -0.2718
     78  CB        19.9330   10.8230  107.2610 C.3   147  PHE147      0.0547
     79  CG        19.9460   10.8380  108.7600 C.ar  147  PHE147     -0.0202
     80  CD1       21.0990   11.1700  109.4520 C.ar  147  PHE147     -0.0042
     81  CD2       18.8050   10.5260  109.4790 C.ar  147  PHE147     -0.0042
     82  CE1       21.1140   11.1860  110.8340 C.ar  147  PHE147     -0.0003
     83  CE2       18.8130   10.5400  110.8590 C.ar  147  PHE147     -0.0003
     84  CZ        19.9700   10.8710  111.5380 C.ar  147  PHE147     -0.0000
     85  N         18.8330    7.8550  106.3690 N.am  148  HIS148     -0.1975
     86  CA        18.0150    6.7200  106.7850 C.3   148  HIS148      0.1656
     87  C         18.4310    5.4090  106.1330 C.2   148  HIS148      0.2291
     88  O         17.6610    4.4490  106.1080 O.2   148  HIS148     -0.2864
     89  CB        16.5420    6.9920  106.4880 C.3   148  HIS148      0.0771
     90  CG        15.8440    7.7500  107.5710 C.ar  148  HIS148      0.0820
     91  ND1       16.5120    8.2960  108.6440 N.ar  148  HIS148     -0.2267
     92  CD2       14.5350    8.0440  107.7510 C.ar  148  HIS148      0.1154
     93  CE1       15.6460    8.9000  109.4380 C.ar  148  HIS148      0.1986
     94  NE2       14.4400    8.7610  108.9180 N.ar  148  HIS148     -0.2212
     95  N         20.7650    5.9850  110.2400 N.3   152  ALA152     -0.1245
     96  CA        19.6840    5.4710  111.0680 C.3   152  ALA152      0.1562
     97  C         18.5510    4.8920  110.2290 C.2   152  ALA152      0.2260
     98  O         17.5790    5.5790  109.9130 O.2   152  ALA152     -0.2867
     99  CB        19.1660    6.5620  111.9760 C.3   152  ALA152      0.0290
    100  N         15.3560    2.4720  109.7650 N.3   154  PRO154     -0.2116
    101  CA        14.2660    1.9330  110.5870 C.3   154  PRO154      0.1372
    102  C         14.2320    0.4080  110.6010 C.2   154  PRO154      0.2244
    103  O         14.6520   -0.2310  109.6350 O.2   154  PRO154     -0.2868
    104  CB        13.0060    2.4900  109.9140 C.3   154  PRO154      0.0268
    105  CG        13.4750    3.6680  109.1260 C.3   154  PRO154      0.0207
    106  CD        14.8520    3.3120  108.6660 C.3   154  PRO154      0.0892
    107  N          9.1600   -1.2420  112.3880 N.3   158  TRP158     -0.1241
    108  CA         8.6990    0.1250  112.1760 C.3   158  TRP158      0.1605
    109  C          7.7340    0.2060  110.9990 C.2   158  TRP158      0.2264
    110  O          6.6560    0.7910  111.1040 O.2   158  TRP158     -0.2867
    111  CB         9.8870    1.0590  111.9360 C.3   158  TRP158      0.0550
    112  CG         9.5270    2.5130  111.9590 C.ar  158  TRP158      0.0003
    113  CD1        8.8110    3.1990  111.0210 C.ar  158  TRP158      0.0946
    114  CD2        9.8790    3.4640  112.9690 C.ar  158  TRP158      0.0152
    115  NE1        8.6880    4.5160  111.3890 N.ar  158  TRP158     -0.2442
    116  CE2        9.3360    4.7040  112.5790 C.ar  158  TRP158      0.0810
    117  CE3       10.5970    3.3870  114.1650 C.ar  158  TRP158      0.0012
    118  CZ2        9.4900    5.8540  113.3440 C.ar  158  TRP158      0.0191
    119  CZ3       10.7490    4.5310  114.9210 C.ar  158  TRP158      0.0001
    120  CH2       10.1990    5.7470  114.5080 C.ar  158  TRP158      0.0015
@<TRIPOS>BOND
     1    26    25    2
     2    23    24    1
     3    25    24    1
     4    24    27    1
     5    30    28    1
     6    27    28    1
     7    15    14    2
     8    28    29    1
     9    14    13    1
    10    12    13    1
    11    13    16    1
    12    33    34    2
    13    33    32    1
    14    54    55    1
    15    54    51    1
    16    35    32    1
    17    35    36    1
    18    31    32    1
    19    55    56    1
    20    52    53    2
    21    52    51    1
    22    16    17    1
    23    51    50    1
    24     1     2    1
    25    36    37   ar
    26    36    38   ar
    27    50    44   am
    28    58    59    1
    29     4     3    2
    30    56    57    1
    31    42    43    1
    32     3     2    1
    33    37    39   ar
    34     2     5    1
    35    38    40   ar
    36    17    18   ar
    37    17    19   ar
    38    44    43    1
    39    44    45    2
    40    18    20   ar
    41    59    62    1
    42    59    60    1
    43    43    46    1
    44    39    41   ar
    45    19    21   ar
    46    40    41   ar
    47    46    47    1
    48    62    63    1
    49     5     6    1
    50    60    69   am
    51    60    61    2
    52    69    70    1
    53    20    22   ar
    54    71    70    1
    55    71    72    2
    56     7     6   ar
    57     7     9   ar
    58    47    48    1
    59    47    49    1
    60    21    22   ar
    61     6     8   ar
    62    73    70    1
    63    63    64   ar
    64    63    65   ar
    65     9    11   ar
    66    64    66   ar
    67     8    10   ar
    68    74    75    1
    69    11    10   ar
    70    65    67   ar
    71    88    87    2
    72    87    86    1
    73    66    68   ar
    74    85    86    1
    75    85    76   am
    76    89    86    1
    77    89    90    1
    78    75    76    1
    79    75    78    1
    80    67    68   ar
    81    76    77    2
    82    78    79    1
    83    90    92   ar
    84    90    91   ar
    85    92    94   ar
    86    91    93   ar
    87   106   105    1
    88   106   100    1
    89    79    80   ar
    90    79    81   ar
    91    94    93   ar
    92   105   104    1
    93    80    82   ar
    94    81    83   ar
    95   103   102    2
    96   100   101    1
    97    98    97    2
    98   104   101    1
    99    97    96    1
   100    95    96    1
   101   101   102    1
   102    82    84   ar
   103    83    84   ar
   104   109   110    2
   105   109   108    1
   106   113   115   ar
   107   113   112   ar
   108    96    99    1
   109   115   116   ar
   110   111   112    1
   111   111   108    1
   112   112   114   ar
   113   108   107    1
   114   116   114   ar
   115   116   118   ar
   116   114   117   ar
   117   118   120   ar
   118   117   119   ar
   119   120   119   ar
