@<TRIPOS>MOLECULE
tmp/4rkuP15.pdb
 121 114 0 0 0
SMALL
GASTEIGER

@<TRIPOS>ATOM
      1  N          6.2740    7.4690  123.2800 N.3     2  LEU2       -0.1231
      2  CA         7.2390    8.4750  122.8530 C.3     2  LEU2        0.1693
      3  C          8.5770    8.3160  123.5670 C.2     2  LEU2        0.2592
      4  O          9.6340    8.5370  122.9790 O.2     2  LEU2       -0.2718
      5  CB         6.6880    9.8830  123.0990 C.3     2  LEU2        0.0284
      6  CG         6.5640   10.8140  121.8920 C.3     2  LEU2        0.0019
      7  CD1        5.9450   12.1420  122.3010 C.3     2  LEU2        0.0001
      8  CD2        7.9190   11.0280  121.2360 C.3     2  LEU2        0.0001
      9  N          8.5220    7.9260  124.8370 N.am    3  SER3       -0.1952
     10  CA         9.7140    7.8840  125.6770 C.3     3  SER3        0.1924
     11  C         10.7400    6.8300  125.2530 C.2     3  SER3        0.2314
     12  O         11.9190    7.1470  125.0950 O.2     3  SER3       -0.2863
     13  CB         9.3170    7.6470  127.1360 C.3     3  SER3        0.2116
     14  OG        10.4540    7.6450  127.9820 O.3     3  SER3       -0.2180
     15  N         13.3280    4.4960  123.6660 N.3     5  PRO5       -0.2116
     16  CA        14.3020    4.6880  122.5850 C.3     5  PRO5        0.1372
     17  C         14.5250    3.4730  121.7030 C.2     5  PRO5        0.2244
     18  O         13.8430    3.2840  120.6950 O.2     5  PRO5       -0.2868
     19  CB        15.6030    5.0000  123.3430 C.3     5  PRO5        0.0268
     20  CG        15.1940    5.3000  124.7470 C.3     5  PRO5        0.0207
     21  CD        13.9960    4.4470  124.9770 C.3     5  PRO5        0.0892
     22  N         17.2480   10.7010  118.0430 N.3    12  ILE12      -0.1231
     23  CA        15.8980   10.9580  118.5450 C.3    12  ILE12       0.1692
     24  C         15.6330   10.0420  119.7440 C.2    12  ILE12       0.2592
     25  O         14.8560   10.3750  120.6390 O.2    12  ILE12      -0.2718
     26  CB        14.8040   10.7300  117.4650 C.3    12  ILE12       0.0266
     27  CG1       13.4540   11.3080  117.9040 C.3    12  ILE12       0.0019
     28  CG2       14.6230    9.2510  117.1710 C.3    12  ILE12       0.0020
     29  CD1       13.4780   12.7730  118.2460 C.3    12  ILE12       0.0001
     30  N         16.3130    8.8990  119.7680 N.am   13  GLU13      -0.1966
     31  CA        16.0110    7.8500  120.7340 C.3    13  GLU13       0.1718
     32  C         16.9450    7.8270  121.9590 C.2    13  GLU13       0.2458
     33  O         16.4450    7.8690  123.0830 O.2    13  GLU13      -0.2730
     34  CB        16.0070    6.4820  120.0360 C.3    13  GLU13       0.0428
     35  CG        14.6770    6.2670  119.3060 C.3    13  GLU13       0.1163
     36  CD        14.7330    5.2220  118.1720 C.2    13  GLU13       0.3649
     37  OE1       15.7570    4.5220  117.9720 O.co2  13  GLU13      -0.2457
     38  OE2       13.7230    5.0830  117.4680 O.co2  13  GLU13      -0.2457
     39  N         18.2910    7.7880  121.7680 N.am   14  PRO14      -0.2716
     40  CA        19.1640    7.6080  122.9480 C.3    14  PRO14       0.1536
     41  C         19.2420    8.7720  123.9440 C.2    14  PRO14       0.2598
     42  O         18.2190    9.3730  124.2220 O.2    14  PRO14      -0.2715
     43  CB        20.5490    7.3770  122.3400 C.3    14  PRO14       0.0310
     44  CG        20.4930    7.8210  120.9700 C.3    14  PRO14       0.0237
     45  CD        19.0680    7.7320  120.5130 C.3    14  PRO14       0.0939
     46  N         20.4220    9.0940  124.4740 N.am   15  ARG15      -0.1978
     47  CA        20.4670    9.9060  125.7070 C.3    15  ARG15       0.1597
     48  C         20.4710   11.4440  125.5920 C.2    15  ARG15       0.2287
     49  O         19.6870   12.1180  126.2750 O.2    15  ARG15      -0.2864
     50  CB        21.6830    9.4980  126.5420 C.3    15  ARG15       0.0334
     51  CG        21.5850    9.9010  127.9830 C.3    15  ARG15       0.0492
     52  CD        22.8910    9.6320  128.7130 C.3    15  ARG15       0.2205
     53  NE        23.9670   10.5150  128.2590 N.pl3  15  ARG15      -0.0865
     54  CZ        24.0910   11.7940  128.6100 C.cat  15  ARG15       0.5346
     55  NH1       23.2230   12.3460  129.4560 N.pl3  15  ARG15       0.1354
     56  NH2       25.0990   12.5110  128.1310 N.pl3  15  ARG15       0.1354
     57  N         19.7830   15.0750  123.4950 N.3    17  LEU17      -0.1231
     58  CA        18.5210   15.7030  123.0740 C.3    17  LEU17       0.1693
     59  C         17.6350   15.8370  124.3030 C.2    17  LEU17       0.2591
     60  O         16.6100   16.5160  124.2770 O.2    17  LEU17      -0.2718
     61  CB        17.8040   14.9330  121.9480 C.3    17  LEU17       0.0284
     62  CG        17.5710   15.7180  120.6500 C.3    17  LEU17       0.0019
     63  CD1       16.4580   15.1070  119.7730 C.3    17  LEU17       0.0001
     64  CD2       17.3090   17.1930  120.9530 C.3    17  LEU17       0.0001
     65  N         18.0450   15.1630  125.3730 N.am   18  ALA18      -0.1980
     66  CA        17.6310   15.4980  126.7220 C.3    18  ALA18       0.1597
     67  C         18.8550   16.1220  127.3750 C.2    18  ALA18       0.2287
     68  O         18.7670   16.7740  128.4150 O.2    18  ALA18      -0.2864
     69  CB        17.1480   14.2730  127.4860 C.3    18  ALA18       0.0319
     70  N         18.3790   19.5430  126.4430 N.3    21  GLU21      -0.1245
     71  CA        17.3190   19.9260  127.3720 C.3    21  GLU21       0.1567
     72  C         17.8950   20.4290  128.6920 C.2    21  GLU21       0.2260
     73  O         17.3990   21.3940  129.2690 O.2    21  GLU21      -0.2867
     74  CB        16.3690   18.7500  127.6200 C.3    21  GLU21       0.0388
     75  CG        15.3400   18.9800  128.7210 C.3    21  GLU21       0.1160
     76  CD        14.5530   17.7250  129.0480 C.2    21  GLU21       0.3649
     77  OE1       14.8360   16.6720  128.4390 O.co2  21  GLU21      -0.2457
     78  OE2       13.6530   17.7900  129.9130 O.co2  21  GLU21      -0.2457
     79  N         19.6520   24.1020  127.6490 N.3    24  ASN24      -0.1240
     80  CA        18.7360   25.2070  127.3990 C.3    24  ASN24       0.1653
     81  C         17.9650   25.4810  128.6810 C.2    24  ASN24       0.2266
     82  O         17.1500   26.3970  128.7450 O.2    24  ASN24      -0.2867
     83  CB        17.7890   24.9470  126.2150 C.3    24  ASN24       0.1155
     84  CG        16.6930   23.9500  126.5190 C.2    24  ASN24       0.2627
     85  OD1       15.6890   24.2860  127.1430 O.2    24  ASN24      -0.2716
     86  ND2       16.8460   22.7380  126.0130 N.am   24  ASN24      -0.0877
     87  N         13.0530   24.1450  133.0740 N.3   119  ARG119     -0.1245
     88  CA        11.9140   24.0530  132.1710 C.3   119  ARG119      0.1563
     89  C         10.6700   24.7960  132.6350 C.2   119  ARG119      0.2260
     90  O          9.6370   24.7570  131.9640 O.2   119  ARG119     -0.2867
     91  CB        11.5790   22.5930  131.8980 C.3   119  ARG119      0.0307
     92  CG        11.3420   21.7380  133.1080 C.3   119  ARG119      0.0489
     93  CD        11.2810   20.3020  132.6450 C.3   119  ARG119      0.2205
     94  NE        10.9700   19.3630  133.7140 N.pl3 119  ARG119     -0.0865
     95  CZ        11.4490   18.1250  133.7690 C.cat 119  ARG119      0.5346
     96  NH1       12.2710   17.6870  132.8230 N.pl3 119  ARG119      0.1354
     97  NH2       11.1130   17.3290  134.7730 N.pl3 119  ARG119      0.1354
     98  N         11.7050   27.6680  130.7170 N.3   122  MET122     -0.1230
     99  CA        11.3400   27.3030  129.3530 C.3   122  MET122      0.1702
    100  C          9.9380   27.8130  129.0740 C.2   122  MET122      0.2592
    101  O          9.7240   28.6110  128.1650 O.2   122  MET122     -0.2718
    102  CB        11.4420   25.7860  129.1300 C.3   122  MET122      0.0401
    103  CG        12.6760   25.4420  128.2990 C.3   122  MET122      0.0596
    104  SD        14.0810   25.8880  129.3510 S.3   122  MET122     -0.1393
    105  CE        14.5890   24.2840  129.9810 C.3   122  MET122      0.0692
    106  N          8.9980   27.3950  129.9070 N.am  123  LEU123     -0.1980
    107  CA         7.6190   27.7940  129.7370 C.3   123  LEU123      0.1596
    108  C          7.4320   29.2440  130.1520 C.2   123  LEU123      0.2287
    109  O          6.4820   29.8950  129.7220 O.2   123  LEU123     -0.2864
    110  CB         6.7010   26.8660  130.5240 C.3   123  LEU123      0.0297
    111  CG         6.2690   25.6460  129.7080 C.3   123  LEU123      0.0022
    112  CD1        5.7250   24.5660  130.6200 C.3   123  LEU123      0.0001
    113  CD2        5.2380   26.0360  128.6430 C.3   123  LEU123      0.0001
    114  N          8.7820   30.5340  127.0690 N.3   126  LEU126     -0.1245
    115  CA         7.8370   30.0830  126.0470 C.3   126  LEU126      0.1561
    116  C          6.5600   30.8690  126.2440 C.2   126  LEU126      0.2260
    117  O          5.7690   31.0450  125.3150 O.2   126  LEU126     -0.2867
    118  CB         7.5700   28.5770  126.1280 C.3   126  LEU126      0.0270
    119  CG         6.4810   27.9960  125.2220 C.3   126  LEU126      0.0019
    120  CD1        6.6620   28.4630  123.7880 C.3   126  LEU126      0.0001
    121  CD2        6.4800   26.4780  125.2880 C.3   126  LEU126      0.0001
@<TRIPOS>BOND
     1    28    26    1
     2    26    27    1
     3    26    23    1
     4    38    36   ar
     5    27    29    1
     6    37    36   ar
     7    22    23    1
     8    36    35    1
     9    23    24    1
    10    35    34    1
    11    24    30   am
    12    24    25    2
    13    30    31    1
    14    63    62    1
    15    34    31    1
    16    45    44    1
    17    45    39    1
    18    62    64    1
    19    62    61    1
    20    18    17    2
    21    31    32    1
    22    44    43    1
    23     8     6    1
    24    17    16    1
    25    39    32   am
    26    39    40    1
    27     6     7    1
    28     6     5    1
    29    61    58    1
    30    32    33    2
    31    43    40    1
    32    16    19    1
    33    16    15    1
    34     2     5    1
    35     2     1    1
    36     2     3    1
    37    40    41    1
    38     4     3    2
    39    58    57    1
    40    58    59    1
    41    19    20    1
    42     3     9   am
    43    15    21    1
    44   120   119    1
    45    41    42    2
    46    41    46   am
    47    60    59    2
    48    59    65   am
    49    46    47    1
    50    20    21    1
    51     9    10    1
    52    12    11    2
    53   119   121    1
    54   119   118    1
    55    11    10    1
    56   117   116    2
    57    65    66    1
    58    48    47    1
    59    48    49    2
    60    10    13    1
    61    47    50    1
    62    86    84   am
    63   115   118    1
    64   115   116    1
    65   115   114    1
    66    83    84    1
    67    83    80    1
    68    70    71    1
    69    84    85    2
    70    50    51    1
    71    66    67    1
    72    66    69    1
    73    13    14    1
    74    71    74    1
    75    71    72    1
    76    67    68    2
    77    80    79    1
    78    80    81    1
    79    74    75    1
    80    51    52    1
    81    56    54    1
    82   101   100    2
    83    53    54    2
    84    53    52    1
    85   103   102    1
    86   103   104    1
    87    77    76   ar
    88    54    55    1
    89   113   111    1
    90    81    82    2
    91    72    73    2
    92    75    76    1
    93    76    78   ar
    94   100    99    1
    95   100   106   am
    96   102    99    1
    97   104   105    1
    98    99    98    1
    99   111   110    1
   100   111   112    1
   101   109   108    2
   102   107   106    1
   103   107   108    1
   104   107   110    1
   105    91    88    1
   106    91    92    1
   107    90    89    2
   108    88    89    1
   109    88    87    1
   110    93    92    1
   111    93    94    1
   112    96    95    1
   113    94    95    2
   114    95    97    1
