@<TRIPOS>MOLECULE
tmp/4rkxA00.pdb
 100 96 0 0 0
SMALL
GASTEIGER

@<TRIPOS>ATOM
      1  N         23.2140  -14.4480  -17.2200 N.3    17  GLN17      -0.1245
      2  CA        22.2380  -15.4730  -17.6070 C.3    17  GLN17       0.1566
      3  C         22.7910  -16.8850  -17.6900 C.2    17  GLN17       0.2260
      4  O         22.0210  -17.8380  -17.8250 O.2    17  GLN17      -0.2867
      5  CB        21.6320  -15.1430  -18.9590 C.3    17  GLN17       0.0367
      6  CG        20.7640  -13.9080  -18.9970 C.3    17  GLN17       0.0905
      7  CD        19.9900  -13.8530  -20.2860 C.2    17  GLN17       0.2608
      8  OE1       19.4300  -14.8660  -20.7210 O.2    17  GLN17      -0.2717
      9  NE2       19.9620  -12.6840  -20.9200 N.am   17  GLN17      -0.0878
     10  N         16.8090  -12.8020  -19.9320 N.3    47  CYS47      -0.1221
     11  CA        17.0650  -11.4330  -19.5170 C.3    47  CYS47       0.1808
     12  C         15.9660  -10.9020  -18.5900 C.2    47  CYS47       0.2601
     13  O         16.2380  -10.1140  -17.6990 O.2    47  CYS47      -0.2717
     14  CB        17.2040  -10.5240  -20.7360 C.3    47  CYS47       0.0970
     15  SG        15.7280  -10.4270  -21.7770 S.3    47  CYS47      -0.0800
     16  N         14.7330  -11.3580  -18.7860 N.am   48  VAL48      -0.1979
     17  CA        13.6370  -10.9160  -17.9250 C.3    48  VAL48       0.1595
     18  C         13.8720  -11.4040  -16.4930 C.2    48  VAL48       0.2287
     19  O         13.6720  -10.6580  -15.5310 O.2    48  VAL48      -0.2864
     20  CB        12.2680  -11.4080  -18.4550 C.3    48  VAL48       0.0276
     21  CG1       11.1610  -11.1160  -17.4590 C.3    48  VAL48       0.0022
     22  CG2       11.9640  -10.7640  -19.7980 C.3    48  VAL48       0.0022
     23  N         19.0500  -19.2000  -25.7580 N.3   134  SER134     -0.1202
     24  CA        18.5510  -17.9310  -25.2720 C.3   134  SER134      0.2020
     25  C         17.1250  -18.1800  -24.7950 C.2   134  SER134      0.2619
     26  O         16.4520  -19.1000  -25.2810 O.2   134  SER134     -0.2717
     27  CB        18.6060  -16.8490  -26.3540 C.3   134  SER134      0.2103
     28  OG        17.9160  -17.2580  -27.5190 O.3   134  SER134     -0.2182
     29  N         16.6800  -17.3800  -23.8360 N.am  135  SER135     -0.1937
     30  CA        15.3800  -17.5940  -23.2040 C.3   135  SER135      0.2055
     31  C         14.5460  -16.3200  -23.1690 C.2   135  SER135      0.2644
     32  O         15.0110  -15.2910  -22.6880 O.2   135  SER135     -0.2714
     33  CB        15.5830  -18.1360  -21.7930 C.3   135  SER135      0.2130
     34  OG        16.2760  -19.3750  -21.8320 O.3   135  SER135     -0.2179
     35  N         13.3140  -16.3990  -23.6670 N.am  136  GLY136     -0.1939
     36  CA        12.4770  -15.2210  -23.8130 C.3   136  GLY136      0.2014
     37  C         11.1850  -15.2570  -23.0170 C.2   136  GLY136      0.2640
     38  O         10.5870  -16.3180  -22.8180 O.2   136  GLY136     -0.2714
     39  N         10.7620  -14.0830  -22.5620 N.am  137  SER137     -0.1935
     40  CA         9.5120  -13.9210  -21.8230 C.3   137  SER137      0.2055
     41  C          8.7800  -12.6790  -22.2970 C.2   137  SER137      0.2642
     42  O          9.3920  -11.7720  -22.8490 O.2   137  SER137     -0.2714
     43  CB         9.7760  -13.8230  -20.3170 C.3   137  SER137      0.2130
     44  OG         8.5980  -13.4230  -19.6250 O.3   137  SER137     -0.2179
     45  N          7.4680  -12.6250  -22.0770 N.am  138  ALA138     -0.1977
     46  CA         6.7140  -11.4140  -22.4020 C.3   138  ALA138      0.1597
     47  C          7.1910  -10.1980  -21.6060 C.2   138  ALA138      0.2287
     48  O          7.0040   -9.0520  -22.0280 O.2   138  ALA138     -0.2864
     49  CB         5.2310  -11.6390  -22.1620 C.3   138  ALA138      0.0319
     50  N         12.1630   -2.5780  -20.3360 N.3   187  GLN187     -0.1231
     51  CA        12.3960   -3.3880  -21.5300 C.3   187  GLN187      0.1698
     52  C         12.0560   -2.6380  -22.8060 C.2   187  GLN187      0.2593
     53  O         11.3180   -1.6560  -22.7820 O.2   187  GLN187     -0.2718
     54  CB        11.5910   -4.6880  -21.4620 C.3   187  GLN187      0.0381
     55  CG        10.0850   -4.4850  -21.5990 C.3   187  GLN187      0.0905
     56  CD         9.3030   -5.7750  -21.4290 C.2   187  GLN187      0.2608
     57  OE1        9.6360   -6.6030  -20.5890 O.2   187  GLN187     -0.2717
     58  NE2        8.2620   -5.9510  -22.2330 N.am  187  GLN187     -0.0878
     59  N         12.5840   -3.1180  -23.9250 N.am  188  GLY188     -0.1942
     60  CA        12.3100   -2.5080  -25.2100 C.3   188  GLY188      0.2014
     61  C         12.7390   -3.4000  -26.3530 C.2   188  GLY188      0.2638
     62  O         13.3620   -4.4340  -26.1330 O.2   188  GLY188     -0.2714
     63  N         12.3920   -2.9990  -27.5700 N.am  189  VAL189     -0.1977
     64  CA        12.6820   -3.7780  -28.7670 C.3   189  VAL189      0.1596
     65  C         13.3100   -2.8920  -29.8280 C.2   189  VAL189      0.2287
     66  O         12.9800   -1.7090  -29.9370 O.2   189  VAL189     -0.2864
     67  CB        11.4070   -4.4220  -29.3770 C.3   189  VAL189      0.0276
     68  CG1       11.7790   -5.5530  -30.3250 C.3   189  VAL189      0.0022
     69  CG2       10.4740   -4.9220  -28.2980 C.3   189  VAL189      0.0022
     70  N         14.8120   -7.9330  -28.7530 N.3   194  GLY194     -0.1210
     71  CA        14.1940   -7.4190  -27.5430 C.3   194  GLY194      0.1956
     72  C         14.9650   -7.8170  -26.2970 C.2   194  GLY194      0.2612
     73  O         15.5280   -8.9140  -26.2330 O.2   194  GLY194     -0.2717
     74  N         14.9750   -6.9360  -25.3000 N.am  195  HIS195     -0.1961
     75  CA        15.7790   -7.1400  -24.0970 C.3   195  HIS195      0.1787
     76  C         15.1420   -6.4570  -22.8950 C.2   195  HIS195      0.2620
     77  O         14.4360   -5.4440  -23.0290 O.2   195  HIS195     -0.2715
     78  CB        17.2070   -6.6140  -24.3220 C.3   195  HIS195      0.0785
     79  CG        18.1920   -6.9890  -23.2530 C.ar  195  HIS195      0.0821
     80  ND1       18.4560   -8.2950  -22.9020 N.ar  195  HIS195     -0.2267
     81  CD2       19.0000   -6.2210  -22.4810 C.ar  195  HIS195      0.1154
     82  CE1       19.3710   -8.3160  -21.9480 C.ar  195  HIS195      0.1986
     83  NE2       19.7150   -7.0710  -21.6730 N.ar  195  HIS195     -0.2212
     84  N         15.3960   -7.0290  -21.7250 N.am  196  ALA196     -0.1977
     85  CA        14.9460   -6.4980  -20.4480 C.3   196  ALA196      0.1597
     86  C         16.1730   -6.1830  -19.6060 C.2   196  ALA196      0.2287
     87  O         17.2010   -6.8710  -19.7060 O.2   196  ALA196     -0.2864
     88  CB        14.0360   -7.4900  -19.7320 C.3   196  ALA196      0.0319
     89  N          8.5620   -0.1010  -28.4650 N.3   244  TYR244     -0.1241
     90  CA         7.6680   -0.8750  -27.5990 C.3   244  TYR244      0.1605
     91  C          8.1620   -0.9190  -26.1570 C.2   244  TYR244      0.2264
     92  O          8.2620   -1.9910  -25.5520 O.2   244  TYR244     -0.2867
     93  CB         7.5020   -2.2990  -28.1370 C.3   244  TYR244      0.0534
     94  CG         7.0330   -2.3310  -29.5900 C.ar  244  TYR244     -0.0201
     95  CD1        5.7410   -1.9670  -29.9070 C.ar  244  TYR244     -0.0009
     96  CD2        7.9160   -2.7020  -30.5870 C.ar  244  TYR244     -0.0009
     97  CE1        5.3260   -1.9660  -31.2250 C.ar  244  TYR244      0.0417
     98  CE2        7.5010   -2.7030  -31.9140 C.ar  244  TYR244      0.0417
     99  CZ         6.2070   -2.3350  -32.2160 C.ar  244  TYR244      0.1957
    100  OH         5.7700   -2.3280  -33.5320 O.3   244  TYR244     -0.2866
@<TRIPOS>BOND
     1   100    99    1
     2    99    98   ar
     3    99    97   ar
     4    98    96   ar
     5    97    95   ar
     6    96    94   ar
     7    68    67    1
     8    66    65    2
     9    95    94   ar
    10    65    64    1
    11    94    93    1
    12    67    64    1
    13    67    69    1
    14    64    63    1
    15    70    71    1
    16    89    90    1
    17    93    90    1
    18    90    91    1
    19    63    61   am
    20    71    72    1
    21    28    27    1
    22    27    24    1
    23    61    62    2
    24    61    60    1
    25    72    73    2
    26    72    74   am
    27    91    92    2
    28    23    24    1
    29    74    75    1
    30    26    25    2
    31    24    25    1
    32    60    59    1
    33    25    29   am
    34    78    75    1
    35    78    79    1
    36    75    76    1
    37    59    52   am
    38    29    30    1
    39    36    35    1
    40    36    37    1
    41    35    31   am
    42    79    80   ar
    43    79    81   ar
    44    30    31    1
    45    30    33    1
    46    31    32    2
    47    77    76    2
    48    37    38    2
    49    37    39   am
    50    80    82   ar
    51    76    84   am
    52    42    41    2
    53    52    53    2
    54    52    51    1
    55    39    40    1
    56    81    83   ar
    57    46    49    1
    58    46    45    1
    59    46    47    1
    60    41    45   am
    61    41    40    1
    62    58    56   am
    63    48    47    2
    64    82    83   ar
    65    34    33    1
    66    40    43    1
    67    15    14    1
    68    84    85    1
    69    55    54    1
    70    55    56    1
    71    51    54    1
    72    51    50    1
    73    56    57    2
    74     9     7   am
    75    14    11    1
    76     8     7    2
    77    85    88    1
    78    85    86    1
    79    43    44    1
    80     7     6    1
    81    10    11    1
    82    22    20    1
    83    87    86    2
    84    11    12    1
    85     6     5    1
    86     5     2    1
    87    16    12   am
    88    16    17    1
    89    12    13    2
    90    20    17    1
    91    20    21    1
    92    17    18    1
    93     4     3    2
    94     3     2    1
    95     2     1    1
    96    18    19    2
