@<TRIPOS>MOLECULE
tmp/4rkzA00.pdb
 126 118 0 0 0
SMALL
GASTEIGER

@<TRIPOS>ATOM
      1  N         32.6990   28.3540    6.6280 N.3    61  PHE61      -0.1227
      2  CA        33.7350   27.8360    7.5200 C.3    61  PHE61       0.1736
      3  C         33.4020   28.1810    8.9600 C.2    61  PHE61       0.2595
      4  O         33.2980   29.3530    9.3100 O.2    61  PHE61      -0.2718
      5  CB        35.1120   28.3980    7.1670 C.3    61  PHE61       0.0547
      6  CG        35.5500   28.0980    5.7650 C.ar   61  PHE61      -0.0202
      7  CD1       35.9230   26.8150    5.3980 C.ar   61  PHE61      -0.0042
      8  CD2       35.5980   29.1040    4.8130 C.ar   61  PHE61      -0.0042
      9  CE1       36.3290   26.5410    4.1050 C.ar   61  PHE61      -0.0003
     10  CE2       36.0050   28.8340    3.5140 C.ar   61  PHE61      -0.0003
     11  CZ        36.3700   27.5510    3.1620 C.ar   61  PHE61      -0.0000
     12  N         33.2330   27.1620    9.7960 N.am   62  ASN62      -0.1974
     13  CA        32.8960   27.3880   11.1930 C.3    62  ASN62       0.1688
     14  C         31.7270   28.3550   11.3300 C.2    62  ASN62       0.2292
     15  O         31.7120   29.2030   12.2180 O.2    62  ASN62      -0.2864
     16  CB        34.1130   27.9190   11.9540 C.3    62  ASN62       0.1181
     17  CG        35.2870   26.9540   11.9190 C.2    62  ASN62       0.2629
     18  OD1       35.1080   25.7370   11.9950 O.2    62  ASN62      -0.2716
     19  ND2       36.4970   27.4950   11.7980 N.am   62  ASN62      -0.0877
     20  N         37.5600   26.4660   -3.2140 N.3    69  VAL69      -0.1245
     21  CA        36.6300   25.3760   -2.9590 C.3    69  VAL69       0.1561
     22  C         35.6220   25.2360   -4.0980 C.2    69  VAL69       0.2260
     23  O         35.2650   24.1200   -4.4870 O.2    69  VAL69      -0.2867
     24  CB        35.8710   25.5800   -1.6360 C.3    69  VAL69       0.0252
     25  CG1       34.8330   24.4920   -1.4440 C.3    69  VAL69       0.0019
     26  CG2       36.8390   25.6090   -0.4690 C.3    69  VAL69       0.0019
     27  N         28.7790   24.2340    0.4570 N.3    91  TYR91      -0.1241
     28  CA        29.7630   23.5600    1.2860 C.3    91  TYR91       0.1605
     29  C         29.7850   24.1730    2.6830 C.2    91  TYR91       0.2264
     30  O         29.8940   25.3850    2.8310 O.2    91  TYR91      -0.2867
     31  CB        31.1430   23.6450    0.6300 C.3    91  TYR91       0.0534
     32  CG        32.3150   23.2330    1.5000 C.ar   91  TYR91      -0.0201
     33  CD1       32.6760   21.8950    1.6400 C.ar   91  TYR91      -0.0009
     34  CD2       33.0860   24.1870    2.1510 C.ar   91  TYR91      -0.0009
     35  CE1       33.7610   21.5240    2.4230 C.ar   91  TYR91       0.0417
     36  CE2       34.1690   23.8260    2.9310 C.ar   91  TYR91       0.0417
     37  CZ        34.5020   22.4970    3.0670 C.ar   91  TYR91       0.1957
     38  OH        35.5800   22.1370    3.8420 O.3    91  TYR91      -0.2866
     39  N         31.6900   23.6100    6.4620 N.3    93  SER93      -0.1217
     40  CA        32.7360   22.9170    7.2000 C.3    93  SER93       0.1889
     41  C         32.8010   23.4040    8.6440 C.2    93  SER93       0.2288
     42  O         32.5940   24.5870    8.9110 O.2    93  SER93      -0.2866
     43  CB        34.0860   23.1220    6.5170 C.3    93  SER93       0.2089
     44  OG        35.0520   22.2150    7.0100 O.3    93  SER93      -0.2183
     45  N         35.4640   22.8500   12.0260 N.3    95  ASN95      -0.1240
     46  CA        36.6920   22.2840   12.5780 C.3    95  ASN95       0.1653
     47  C         36.6520   22.1810   14.0980 C.2    95  ASN95       0.2266
     48  O         36.1130   23.0570   14.7720 O.2    95  ASN95      -0.2867
     49  CB        37.9020   23.1180   12.1550 C.3    95  ASN95       0.1155
     50  CG        38.2590   22.9240   10.6970 C.2    95  ASN95       0.2627
     51  OD1       37.4870   22.3480    9.9280 O.2    95  ASN95      -0.2716
     52  ND2       39.4340   23.4020   10.3060 N.am   95  ASN95      -0.0877
     53  N         45.0010   21.6150   15.7600 N.3    99  LEU99      -0.1231
     54  CA        46.1860   22.4420   15.9400 C.3    99  LEU99       0.1693
     55  C         46.6580   22.9610   14.5880 C.2    99  LEU99       0.2593
     56  O         46.1640   23.9710   14.0910 O.2    99  LEU99      -0.2718
     57  CB        47.2960   21.6520   16.6340 C.3    99  LEU99       0.0284
     58  CG        46.9980   21.2730   18.0820 C.3    99  LEU99       0.0019
     59  CD1       48.1820   20.5620   18.7140 C.3    99  LEU99       0.0001
     60  CD2       46.6180   22.5110   18.8880 C.3    99  LEU99       0.0001
     61  N         47.6150   22.2600   13.9950 N.am  100  SER100     -0.1938
     62  CA        48.0730   22.5700   12.6540 C.3   100  SER100      0.2055
     63  C         47.5030   21.5340   11.6860 C.2   100  SER100      0.2644
     64  O         47.0780   20.4540   12.1060 O.2   100  SER100     -0.2714
     65  CB        49.6040   22.5840   12.5990 C.3   100  SER100      0.2130
     66  OG        50.0720   23.3220   11.4780 O.3   100  SER100     -0.2179
     67  N         47.4720   21.8660   10.3970 N.am  101  GLY101     -0.1939
     68  CA        47.0330   20.9210    9.3830 C.3   101  GLY101      0.2014
     69  C         45.5330   20.8860    9.1490 C.2   101  GLY101      0.2640
     70  O         44.9990   19.8980    8.6470 O.2   101  GLY101     -0.2714
     71  N         44.8530   21.9710    9.5030 N.am  102  SER102     -0.1935
     72  CA        43.4040   22.0710    9.3470 C.3   102  SER102      0.2055
     73  C         42.9410   22.0580    7.8860 C.2   102  SER102      0.2643
     74  O         41.9320   21.4360    7.5470 O.2   102  SER102     -0.2714
     75  CB        42.8970   23.3480   10.0200 C.3   102  SER102      0.2130
     76  OG        43.3870   24.4990    9.3480 O.3   102  SER102     -0.2179
     77  N         43.6670   22.7650    7.0300 N.am  103  SER103     -0.1949
     78  CA        43.2650   22.8990    5.6370 C.3   103  SER103      0.1924
     79  C         43.3470   21.5500    4.9330 C.2   103  SER103      0.2314
     80  O         42.4990   21.2180    4.1070 O.2   103  SER103     -0.2863
     81  CB        44.1300   23.9370    4.9170 C.3   103  SER103      0.2116
     82  OG        45.4490   23.4600    4.7090 O.3   103  SER103     -0.2180
     83  N         40.1250   19.7970    5.7770 N.3   106  GLY106     -0.1225
     84  CA        38.9850   20.3580    5.0790 C.3   106  GLY106      0.1811
     85  C         38.9390   19.8840    3.6360 C.2   106  GLY106      0.2280
     86  O         37.8690   19.6100    3.0870 O.2   106  GLY106     -0.2866
     87  N         42.7970   23.2610   -2.7160 N.3   133  VAL133     -0.1245
     88  CA        42.3150   23.6860   -1.4080 C.3   133  VAL133      0.1561
     89  C         43.4260   23.5690   -0.3650 C.2   133  VAL133      0.2260
     90  O         43.5210   24.3870    0.5450 O.2   133  VAL133     -0.2867
     91  CB        41.0880   22.8700   -0.9660 C.3   133  VAL133      0.0252
     92  CG1       40.6580   23.2670    0.4290 C.3   133  VAL133      0.0019
     93  CG2       39.9430   23.0660   -1.9470 C.3   133  VAL133      0.0019
     94  N         47.6960   21.8740   -0.3700 N.3   135  GLU135     -0.1245
     95  CA        48.7040   21.1210   -1.1100 C.3   135  GLU135      0.1567
     96  C         49.0030   19.7520   -0.4910 C.2   135  GLU135      0.2260
     97  O         49.5430   18.8680   -1.1620 O.2   135  GLU135     -0.2867
     98  CB        49.9990   21.9330   -1.2200 C.3   135  GLU135      0.0388
     99  CG        50.5540   22.4370    0.1110 C.3   135  GLU135      0.1160
    100  CD        49.8110   23.6470    0.6610 C.2   135  GLU135      0.3649
    101  OE1       48.7830   24.0450    0.0720 O.co2 135  GLU135     -0.2457
    102  OE2       50.2590   24.2050    1.6880 O.co2 135  GLU135     -0.2457
    103  N         51.2090   32.8440   14.2520 N.3   180  ARG180     -0.1245
    104  CA        51.9150   32.0080   13.2860 C.3   180  ARG180      0.1563
    105  C         52.0310   32.6620   11.9170 C.2   180  ARG180      0.2260
    106  O         51.1730   33.4420   11.5050 O.2   180  ARG180     -0.2867
    107  CB        51.2280   30.6480   13.1360 C.3   180  ARG180      0.0307
    108  CG        49.9310   30.6890   12.3420 C.3   180  ARG180      0.0489
    109  CD        49.6150   29.3280   11.7440 C.3   180  ARG180      0.2205
    110  NE        50.6190   28.9350   10.7590 N.pl3 180  ARG180     -0.0865
    111  CZ        50.6370   27.7650   10.1280 C.cat 180  ARG180      0.5346
    112  NH1       49.7040   26.8550   10.3790 N.pl3 180  ARG180      0.1354
    113  NH2       51.5950   27.5030    9.2480 N.pl3 180  ARG180      0.1354
    114  N         51.4960   32.6430    8.1860 N.3   182  PRO182     -0.2102
    115  CA        50.6470   31.9190    7.2400 C.3   182  PRO182      0.1504
    116  C         51.4740   30.9080    6.4640 C.2   182  PRO182      0.2576
    117  O         52.6450   31.1670    6.1970 O.2   182  PRO182     -0.2718
    118  CB        50.1190   33.0250    6.3230 C.3   182  PRO182      0.0282
    119  CG        50.1050   34.2360    7.1810 C.3   182  PRO182      0.0208
    120  CD        51.2810   34.0990    8.1240 C.3   182  PRO182      0.0893
    121  N         50.8830   29.7710    6.1160 N.am  183  SER183     -0.1953
    122  CA        51.6070   28.7660    5.3560 C.3   183  SER183      0.1924
    123  C         52.1090   29.3490    4.0340 C.2   183  SER183      0.2314
    124  O         53.2210   29.0540    3.5990 O.2   183  SER183     -0.2863
    125  CB        50.7250   27.5390    5.1060 C.3   183  SER183      0.2116
    126  OG        49.4580   27.9170    4.5980 O.3   183  SER183     -0.2180
@<TRIPOS>BOND
     1    23    22    2
     2    22    21    1
     3    20    21    1
     4    21    24    1
     5    87    88    1
     6    93    91    1
     7    24    25    1
     8    24    26    1
     9    88    91    1
    10    88    89    1
    11    98    95    1
    12    98    99    1
    13    97    96    2
    14    95    96    1
    15    95    94    1
    16    91    92    1
    17    89    90    2
    18   101   100   ar
    19    99   100    1
    20    27    28    1
    21    31    28    1
    22    31    32    1
    23   100   102   ar
    24    28    29    1
    25    32    33   ar
    26    32    34   ar
    27    33    35   ar
    28    34    36   ar
    29    35    37   ar
    30    29    30    2
    31    36    37   ar
    32    37    38    1
    33    86    85    2
    34    11    10   ar
    35    11     9   ar
    36    10     8   ar
    37   124   123    2
    38    85    84    1
    39   123   122    1
    40     9     7   ar
    41    80    79    2
    42   126   125    1
    43    82    81    1
    44     8     6   ar
    45    81    78    1
    46    79    78    1
    47    84    83    1
    48   125   122    1
    49   122   121    1
    50     7     6   ar
    51    78    77    1
    52     6     5    1
    53   121   116   am
    54   117   116    2
    55   118   119    1
    56   118   115    1
    57    39    40    1
    58   116   115    1
    59    43    44    1
    60    43    40    1
    61     1     2    1
    62    77    73   am
    63     5     2    1
    64   119   120    1
    65    40    41    1
    66   115   114    1
    67     2     3    1
    68    74    73    2
    69    73    72    1
    70   120   114    1
    71    41    42    2
    72    70    69    2
    73     3     4    2
    74     3    12   am
    75    69    68    1
    76    69    71   am
    77   113   111    1
    78    72    71    1
    79    72    75    1
    80    76    75    1
    81    68    67    1
    82    12    13    1
    83    51    50    2
    84   111   112    1
    85   111   110    2
    86    52    50   am
    87    67    63   am
    88    50    49    1
    89   110   109    1
    90    13    14    1
    91    13    16    1
    92    14    15    2
    93    66    65    1
    94   106   105    2
    95    63    64    2
    96    63    62    1
    97   109   108    1
    98    19    17   am
    99   105   104    1
   100    17    16    1
   101    17    18    2
   102    45    46    1
   103    49    46    1
   104   108   107    1
   105    46    47    1
   106    65    62    1
   107    62    61    1
   108   107   104    1
   109   104   103    1
   110    61    55   am
   111    56    55    2
   112    47    48    2
   113    55    54    1
   114    53    54    1
   115    54    57    1
   116    57    58    1
   117    58    59    1
   118    58    60    1
