@<TRIPOS>MOLECULE
tmp/4rkzB00.pdb
 141 131 0 0 0
SMALL
GASTEIGER

@<TRIPOS>ATOM
      1  N         21.0630    8.0490   30.8190 N.3    15  THR15      -0.1218
      2  CA        20.9330    8.4910   32.1950 C.3    15  THR15       0.1862
      3  C         20.7040    7.3390   33.1620 C.2    15  THR15       0.2287
      4  O         20.1960    6.2790   32.7830 O.2    15  THR15      -0.2866
      5  CB        19.7850    9.4970   32.3420 C.3    15  THR15       0.1770
      6  OG1       18.5770    8.9180   31.8350 O.3    15  THR15      -0.2211
      7  CG2       20.0980   10.7650   31.5660 C.3    15  THR15       0.0375
      8  N         19.1920    6.4570   37.1960 N.3    17  GLY17      -0.1225
      9  CA        18.3690    6.9400   38.2890 C.3    17  GLY17       0.1811
     10  C         19.1400    7.0980   39.5900 C.2    17  GLY17       0.2280
     11  O         19.9430    6.2390   39.9540 O.2    17  GLY17      -0.2866
     12  N         14.8800    6.7760   42.2280 N.3    20  LEU20      -0.1231
     13  CA        14.2560    5.9580   41.1930 C.3    20  LEU20       0.1693
     14  C         12.7630    6.2310   41.0290 C.2    20  LEU20       0.2591
     15  O         12.0400    6.4140   42.0090 O.2    20  LEU20      -0.2718
     16  CB        14.4930    4.4760   41.4890 C.3    20  LEU20       0.0284
     17  CG        15.9760    4.0950   41.4750 C.3    20  LEU20       0.0019
     18  CD1       16.1670    2.6140   41.7390 C.3    20  LEU20       0.0001
     19  CD2       16.6140    4.4960   40.1480 C.3    20  LEU20       0.0001
     20  N         12.3170    6.2640   39.7740 N.am   21  LEU21      -0.1980
     21  CA        10.9270    6.5630   39.4460 C.3    21  LEU21       0.1596
     22  C         10.0900    5.2970   39.3020 C.2    21  LEU21       0.2287
     23  O         10.5680    4.2730   38.8110 O.2    21  LEU21      -0.2864
     24  CB        10.8440    7.3790   38.1530 C.3    21  LEU21       0.0297
     25  CG         9.4350    7.6940   37.6440 C.3    21  LEU21       0.0022
     26  CD1        8.6650    8.5350   38.6560 C.3    21  LEU21       0.0001
     27  CD2        9.4890    8.3960   36.2930 C.3    21  LEU21       0.0001
     28  N         21.4890    1.4330   30.0610 N.3   105  SER105     -0.1202
     29  CA        20.1680    1.9100   30.4460 C.3   105  SER105      0.2020
     30  C         20.0200    3.3890   30.0880 C.2   105  SER105      0.2619
     31  O         21.0190    4.1030   29.9320 O.2   105  SER105     -0.2717
     32  CB        19.9390    1.6980   31.9500 C.3   105  SER105      0.2103
     33  OG        18.6820    2.2160   32.3660 O.3   105  SER105     -0.2182
     34  N         18.7760    3.8430   29.9480 N.am  106  GLY106     -0.1956
     35  CA        18.5070    5.2410   29.6600 C.3   106  GLY106      0.1869
     36  C         18.5540    5.5760   28.1810 C.2   106  GLY106      0.2309
     37  O         18.5940    6.7470   27.8080 O.2   106  GLY106     -0.2863
     38  N         16.2460    5.3260   25.7470 N.3   108  SER108     -0.1202
     39  CA        15.1120    6.1310   25.3170 C.3   108  SER108      0.2020
     40  C         15.1890    7.5540   25.8650 C.2   108  SER108      0.2618
     41  O         14.7780    8.4980   25.1970 O.2   108  SER108     -0.2717
     42  CB        13.7940    5.4720   25.7350 C.3   108  SER108      0.2103
     43  OG        13.8510    5.0070   27.0720 O.3   108  SER108     -0.2182
     44  N         15.7170    7.7130   27.0770 N.am  109  ASP109     -0.1973
     45  CA        15.8510    9.0470   27.6600 C.3   109  ASP109      0.1709
     46  C         16.7580    9.9310   26.8030 C.2   109  ASP109      0.2293
     47  O         16.4070   11.0690   26.4840 O.2   109  ASP109     -0.2864
     48  CB        16.3900    8.9690   29.0950 C.3   109  ASP109      0.1436
     49  CG        15.3420    8.4940   30.0930 C.2   109  ASP109      0.3671
     50  OD1       14.1330    8.6620   29.8200 O.co2 109  ASP109     -0.2456
     51  OD2       15.7240    7.9590   31.1580 O.co2 109  ASP109     -0.2456
     52  N          9.8100    9.6350   26.3420 N.3   139  SER139     -0.1202
     53  CA        10.4650    8.9930   27.4760 C.3   139  SER139      0.2020
     54  C         10.2410    9.8310   28.7370 C.2   139  SER139      0.2619
     55  O         10.4960   11.0380   28.7330 O.2   139  SER139     -0.2717
     56  CB        11.9580    8.8120   27.1980 C.3   139  SER139      0.2103
     57  OG        12.5700    7.9870   28.1700 O.3   139  SER139     -0.2182
     58  N          9.7560    9.1970   29.8040 N.am  140  GLU140     -0.1965
     59  CA         9.3550    9.9290   31.0060 C.3   140  GLU140      0.1733
     60  C         10.5060   10.6870   31.6720 C.2   140  GLU140      0.2617
     61  O         10.2830   11.7200   32.2960 O.2   140  GLU140     -0.2715
     62  CB         8.7110    8.9830   32.0290 C.3   140  GLU140      0.0429
     63  CG         9.4860    7.7150   32.3090 C.3   140  GLU140      0.1163
     64  CD         9.2890    6.6710   31.2290 C.2   140  GLU140      0.3649
     65  OE1        8.9340    7.0520   30.0910 O.co2 140  GLU140     -0.2457
     66  OE2        9.4790    5.4710   31.5190 O.co2 140  GLU140     -0.2457
     67  N         11.7290   10.1830   31.5390 N.am  141  SER141     -0.1950
     68  CA        12.8720   10.8050   32.2060 C.3   141  SER141      0.1924
     69  C         13.7600   11.5960   31.2430 C.2   141  SER141      0.2314
     70  O         14.9590   11.7460   31.4770 O.2   141  SER141     -0.2863
     71  CB        13.7110    9.7440   32.9210 C.3   141  SER141      0.2116
     72  OG        12.9130    8.9590   33.7900 O.3   141  SER141     -0.2180
     73  N         16.2970   14.2650   32.5930 N.3   144  ARG144     -0.1245
     74  CA        17.6280   13.8930   33.0610 C.3   144  ARG144      0.1563
     75  C         18.6730   14.1580   31.9930 C.2   144  ARG144      0.2260
     76  O         19.6810   14.8190   32.2470 O.2   144  ARG144     -0.2867
     77  CB        17.6760   12.4230   33.4620 C.3   144  ARG144      0.0307
     78  CG        16.7730   12.0620   34.6100 C.3   144  ARG144      0.0489
     79  CD        16.7130   10.5600   34.7810 C.3   144  ARG144      0.2205
     80  NE        15.9980   10.1950   35.9970 N.pl3 144  ARG144     -0.0865
     81  CZ        15.6760    8.9510   36.3280 C.cat 144  ARG144      0.5346
     82  NH1       16.0020    7.9470   35.5240 N.pl3 144  ARG144      0.1354
     83  NH2       15.0260    8.7130   37.4600 N.pl3 144  ARG144      0.1354
     84  N         15.3340   -7.8860   30.6990 N.3   185  ARG185     -0.1245
     85  CA        14.8460   -6.8320   31.5840 C.3   185  ARG185      0.1563
     86  C         13.3290   -6.6660   31.5280 C.2   185  ARG185      0.2260
     87  O         12.6760   -7.1220   30.5920 O.2   185  ARG185     -0.2867
     88  CB        15.5160   -5.4960   31.2460 C.3   185  ARG185      0.0307
     89  CG        15.0050   -4.8350   29.9710 C.3   185  ARG185      0.0489
     90  CD        15.3390   -3.3470   29.9580 C.3   185  ARG185      0.2205
     91  NE        14.6800   -2.6360   31.0510 N.pl3 185  ARG185     -0.0865
     92  CZ        14.9600   -1.3870   31.4130 C.cat 185  ARG185      0.5346
     93  NH1       15.8990   -0.7000   30.7730 N.pl3 185  ARG185      0.1354
     94  NH2       14.3050   -0.8240   32.4200 N.pl3 185  ARG185      0.1354
     95  N          9.8060   -0.6720   31.0230 N.3   188  SER188     -0.1217
     96  CA         9.4780    0.3790   31.9760 C.3   188  SER188      0.1889
     97  C          7.9990    0.3440   32.3480 C.2   188  SER188      0.2288
     98  O          7.6290    0.6410   33.4850 O.2   188  SER188     -0.2866
     99  CB         9.8450    1.7550   31.4120 C.3   188  SER188      0.2089
    100  OG         8.9450    2.1470   30.3910 O.3   188  SER188     -0.2183
    101  N          7.0040   -2.0160   35.1160 N.3   191  ILE191     -0.1231
    102  CA         7.3140   -1.4020   36.3950 C.3   191  ILE191      0.1692
    103  C          6.2690   -0.3540   36.7660 C.2   191  ILE191      0.2592
    104  O          5.7870   -0.3240   37.8960 O.2   191  ILE191     -0.2718
    105  CB         8.7040   -0.7510   36.3720 C.3   191  ILE191      0.0266
    106  CG1        9.7860   -1.8250   36.2340 C.3   191  ILE191      0.0019
    107  CG2        8.9230    0.0760   37.6180 C.3   191  ILE191      0.0020
    108  CD1       11.1950   -1.2710   36.2590 C.3   191  ILE191      0.0001
    109  N          5.9090    0.4890   35.8050 N.am  192  HIS192     -0.1976
    110  CA         4.9510    1.5660   36.0460 C.3   192  HIS192      0.1656
    111  C          3.5570    1.0510   36.4070 C.2   192  HIS192      0.2291
    112  O          2.8850    1.6200   37.2660 O.2   192  HIS192     -0.2864
    113  CB         4.8570    2.4800   34.8180 C.3   192  HIS192      0.0771
    114  CG         6.0990    3.2760   34.5610 C.ar  192  HIS192      0.0820
    115  ND1        6.8560    3.8220   35.5740 N.ar  192  HIS192     -0.2267
    116  CD2        6.7200    3.6100   33.4050 C.ar  192  HIS192      0.1154
    117  CE1        7.8880    4.4620   35.0540 C.ar  192  HIS192      0.1986
    118  NE2        7.8300    4.3470   33.7400 N.ar  192  HIS192     -0.2212
    119  N         13.5100    0.9450   46.5720 N.3   238  TYR238     -0.1241
    120  CA        12.7990    0.9060   45.2980 C.3   238  TYR238      0.1605
    121  C         12.5090   -0.5210   44.8520 C.2   238  TYR238      0.2264
    122  O         11.3770   -0.8570   44.5030 O.2   238  TYR238     -0.2867
    123  CB        13.6160    1.6330   44.2250 C.3   238  TYR238      0.0534
    124  CG        12.9970    1.6650   42.8390 C.ar  238  TYR238     -0.0201
    125  CD1       12.0090    2.5870   42.5180 C.ar  238  TYR238     -0.0009
    126  CD2       13.4300    0.7990   41.8420 C.ar  238  TYR238     -0.0009
    127  CE1       11.4540    2.6330   41.2460 C.ar  238  TYR238      0.0417
    128  CE2       12.8820    0.8380   40.5680 C.ar  238  TYR238      0.0417
    129  CZ        11.8940    1.7570   40.2750 C.ar  238  TYR238      0.1957
    130  OH        11.3430    1.8020   39.0090 O.3   238  TYR238     -0.2866
    131  N         18.8540    0.4470   38.3500 N.3   275  THR275     -0.1203
    132  CA        17.6350    1.0570   37.8370 C.3   275  THR275      0.1994
    133  C         16.6240   -0.0330   37.4940 C.2   275  THR275      0.2618
    134  O         16.4740   -1.0000   38.2410 O.2   275  THR275     -0.2717
    135  CB        17.9140    1.9370   36.6010 C.3   275  THR275      0.1784
    136  OG1       18.5870    1.1660   35.6000 O.3   275  THR275     -0.2211
    137  CG2       18.7890    3.1150   36.9800 C.3   275  THR275      0.0376
    138  N         15.9330    0.1160   36.3680 N.am  276  GLY276     -0.1956
    139  CA        14.9660   -0.8790   35.9470 C.3   276  GLY276      0.1869
    140  C         15.6050   -1.9680   35.1060 C.2   276  GLY276      0.2309
    141  O         14.9600   -2.9580   34.7580 O.2   276  GLY276     -0.2863
@<TRIPOS>BOND
     1    41    40    2
     2    39    42    1
     3    39    38    1
     4    39    40    1
     5    42    43    1
     6    40    44   am
     7    52    53    1
     8    47    46    2
     9    46    45    1
    10    44    45    1
    11    56    53    1
    12    56    57    1
    13    53    54    1
    14    45    48    1
    15    37    36    2
    16    36    35    1
    17    55    54    2
    18    54    58   am
    19    48    49    1
    20    35    34    1
    21    58    59    1
    22    50    49   ar
    23    31    30    2
    24    34    30   am
    25    90    89    1
    26    90    91    1
    27    89    88    1
    28    28    29    1
    29    30    29    1
    30    65    64   ar
    31    49    51   ar
    32   100    99    1
    33    29    32    1
    34    87    86    2
    35    84    85    1
    36    93    92    1
    37     1     2    1
    38    59    60    1
    39    59    62    1
    40    95    96    1
    41    91    92    2
    42    64    66   ar
    43    64    63    1
    44    69    70    2
    45    69    68    1
    46    88    85    1
    47    99    96    1
    48    92    94    1
    49    86    85    1
    50    67    60   am
    51    67    68    1
    52     7     5    1
    53    60    61    2
    54     6     5    1
    55    32    33    1
    56    96    97    1
    57    75    76    2
    58    75    74    1
    59    62    63    1
    60     2     5    1
    61     2     3    1
    62    68    71    1
    63    97    98    2
    64    73    74    1
    65     4     3    2
    66    71    72    1
    67    74    77    1
    68   116   118   ar
    69   116   114   ar
    70    77    78    1
    71   118   117   ar
    72   114   113    1
    73   114   115   ar
    74    78    79    1
    75   141   140    2
    76    79    80    1
    77   113   110    1
    78   117   115   ar
    79   140   139    1
    80   101   102    1
    81    82    81    1
    82   136   135    1
    83   109   110    1
    84   109   103   am
    85   139   138    1
    86    80    81    2
    87   110   111    1
    88   106   108    1
    89   106   105    1
    90    27    25    1
    91    81    83    1
    92   138   133   am
    93   105   102    1
    94   105   107    1
    95   102   103    1
    96   111   112    2
    97   135   137    1
    98   135   132    1
    99   103   104    2
   100     8     9    1
   101   133   132    1
   102   133   134    2
   103    25    24    1
   104    25    26    1
   105   132   131    1
   106    24    21    1
   107     9    10    1
   108    23    22    2
   109   130   129    1
   110    22    21    1
   111    21    20    1
   112    10    11    2
   113    20    14   am
   114    19    17    1
   115   129   128   ar
   116   129   127   ar
   117   128   126   ar
   118    14    13    1
   119    14    15    2
   120    13    16    1
   121    13    12    1
   122   127   125   ar
   123    17    16    1
   124    17    18    1
   125   126   124   ar
   126   125   124   ar
   127   124   123    1
   128   123   120    1
   129   122   121    2
   130   121   120    1
   131   120   119    1
