@<TRIPOS>MOLECULE
tmp/4rl0A00.pdb
 136 128 0 0 0
SMALL
GASTEIGER

@<TRIPOS>ATOM
      1  N          4.6460    8.5100   34.3890 N.3     4  ILE4       -0.1245
      2  CA         5.6020    9.5540   34.7340 C.3     4  ILE4        0.1561
      3  C          6.4520    9.1280   35.9240 C.2     4  ILE4        0.2260
      4  O          5.9310    8.8740   37.0130 O.2     4  ILE4       -0.2867
      5  CB         4.9020   10.8660   35.1170 C.3     4  ILE4        0.0252
      6  CG1        4.2160   11.4910   33.9050 C.3     4  ILE4        0.0019
      7  CG2        5.9000   11.8220   35.7610 C.3     4  ILE4        0.0019
      8  CD1        2.8880   10.8700   33.5920 C.3     4  ILE4        0.0001
      9  N          0.3410    7.6810   41.7880 N.3    27  LEU27      -0.1245
     10  CA        -1.0410    8.0920   41.6240 C.3    27  LEU27       0.1561
     11  C         -1.4970    7.6020   40.2690 C.2    27  LEU27       0.2260
     12  O         -0.9540    8.0210   39.2540 O.2    27  LEU27      -0.2867
     13  CB        -1.1420    9.6130   41.6840 C.3    27  LEU27       0.0270
     14  CG        -2.5250   10.1610   41.3690 C.3    27  LEU27       0.0019
     15  CD1       -3.4780    9.9530   42.5300 C.3    27  LEU27       0.0001
     16  CD2       -2.4280   11.6450   40.9740 C.3    27  LEU27       0.0001
     17  N         -3.8420    7.8590   37.2640 N.3    29  MET29      -0.1245
     18  CA        -4.8170    8.7660   36.6620 C.3    29  MET29       0.1570
     19  C         -5.5330    8.1010   35.4990 C.2    29  MET29       0.2261
     20  O         -4.8980    7.4230   34.7040 O.2    29  MET29      -0.2867
     21  CB        -4.1380   10.0520   36.2010 C.3    29  MET29       0.0387
     22  CG        -3.4920   10.8170   37.3400 C.3    29  MET29       0.0595
     23  SD        -2.5820   12.2750   36.7990 S.3    29  MET29      -0.1393
     24  CE        -3.8840   13.3170   36.1300 C.3    29  MET29       0.0692
     25  N          1.6680    8.2110   38.1290 N.3    33  VAL33      -0.1245
     26  CA         2.6510    9.2710   38.3540 C.3    33  VAL33       0.1561
     27  C          3.4130    9.0140   39.6690 C.2    33  VAL33       0.2260
     28  O          2.7920    8.9140   40.7410 O.2    33  VAL33      -0.2867
     29  CB         1.9520   10.6600   38.3910 C.3    33  VAL33       0.0252
     30  CG1        2.9800   11.7970   38.4860 C.3    33  VAL33       0.0019
     31  CG2        1.0270   10.8440   37.1800 C.3    33  VAL33       0.0019
     32  N          0.8890   10.0320   47.9560 N.3    53  TRP53      -0.1241
     33  CA        -0.2510   10.7140   47.3310 C.3    53  TRP53       0.1605
     34  C         -1.5600   10.5670   48.1210 C.2    53  TRP53       0.2264
     35  O         -2.4440   11.4340   48.0310 O.2    53  TRP53      -0.2867
     36  CB        -0.5160   10.1840   45.9320 C.3    53  TRP53       0.0550
     37  CG         0.5370   10.3560   44.9210 C.ar   53  TRP53       0.0003
     38  CD1        1.5360    9.4720   44.6290 C.ar   53  TRP53       0.0946
     39  CD2        0.6610   11.4380   43.9750 C.ar   53  TRP53       0.0152
     40  NE1        2.2690    9.9350   43.5600 N.ar   53  TRP53      -0.2442
     41  CE2        1.7490   11.1250   43.1280 C.ar   53  TRP53       0.0810
     42  CE3       -0.0780   12.6140   43.7260 C.ar   53  TRP53       0.0012
     43  CZ2        2.1530   11.9600   42.0820 C.ar   53  TRP53       0.0191
     44  CZ3        0.3170   13.4400   42.6680 C.ar   53  TRP53       0.0001
     45  CH2        1.4290   13.1050   41.8620 C.ar   53  TRP53       0.0015
     46  N          0.5090   20.4370   47.7750 N.3    82  HIS82      -0.1226
     47  CA        -0.0120   19.6910   46.6340 C.3    82  HIS82       0.1752
     48  C         -0.1950   18.2310   47.0610 C.2    82  HIS82       0.2596
     49  O          0.3960   17.7800   48.0550 O.2    82  HIS82      -0.2718
     50  CB         0.9360   19.7650   45.4200 C.3    82  HIS82       0.0759
     51  CG         0.7780   21.0090   44.5980 C.ar   82  HIS82       0.0818
     52  ND1        1.6960   21.3820   43.6340 N.ar   82  HIS82      -0.2268
     53  CD2       -0.2020   21.9450   44.5670 C.ar   82  HIS82       0.1154
     54  CE1        1.2960   22.4990   43.0580 C.ar   82  HIS82       0.1986
     55  NE2        0.1430   22.8600   43.5980 N.ar   82  HIS82      -0.2212
     56  N         -0.9800   17.4810   46.2950 N.am   83  GLN83      -0.1965
     57  CA        -1.3310   16.1380   46.6910 C.3    83  GLN83       0.1733
     58  C         -0.1400   15.1980   46.8310 C.2    83  GLN83       0.2616
     59  O         -0.1410   14.3340   47.7180 O.2    83  GLN83      -0.2715
     60  CB        -2.3140   15.5300   45.7240 C.3    83  GLN83       0.0408
     61  CG        -2.8420   14.2090   46.2660 C.3    83  GLN83       0.0908
     62  CD        -3.7930   13.5240   45.3410 C.2    83  GLN83       0.2608
     63  OE1       -4.2740   14.1050   44.3710 O.2    83  GLN83      -0.2717
     64  NE2       -4.0900   12.2780   45.6470 N.am   83  GLN83      -0.0878
     65  N          0.8710   15.3330   45.9740 N.am   84  ASP84      -0.1971
     66  CA         2.0170   14.4430   46.0460 C.3    84  ASP84       0.1709
     67  C          2.7880   14.5870   47.3480 C.2    84  ASP84       0.2293
     68  O          3.4070   13.6310   47.7890 O.2    84  ASP84      -0.2864
     69  CB         2.9600   14.5360   44.8130 C.3    84  ASP84       0.1436
     70  CG         3.3810   15.9570   44.4140 C.2    84  ASP84       0.3671
     71  OD1        2.9220   16.9380   45.0030 O.co2  84  ASP84      -0.2456
     72  OD2        4.1620   16.0780   43.4180 O.co2  84  ASP84      -0.2456
     73  N         -6.1860   23.8440   48.2410 N.3   112  GLU112     -0.1245
     74  CA        -5.5570   22.8450   47.3620 C.3   112  GLU112      0.1567
     75  C         -6.1030   21.4280   47.5870 C.2   112  GLU112      0.2260
     76  O         -5.5910   20.4640   47.0180 O.2   112  GLU112     -0.2867
     77  CB        -4.0280   22.8780   47.5700 C.3   112  GLU112      0.0388
     78  CG        -3.3840   24.1490   47.0600 C.3   112  GLU112      0.1160
     79  CD        -3.5530   24.2780   45.5360 C.2   112  GLU112      0.3649
     80  OE1       -3.3550   23.2700   44.8220 O.co2 112  GLU112     -0.2457
     81  OE2       -3.9250   25.3640   45.0390 O.co2 112  GLU112     -0.2457
     82  N         -6.0930   19.8170   50.5310 N.3   114  MET114     -0.1245
     83  CA        -5.2130   19.1240   51.4770 C.3   114  MET114      0.1570
     84  C         -5.6000   19.4490   52.9110 C.2   114  MET114      0.2261
     85  O         -6.1350   20.4920   53.2110 O.2   114  MET114     -0.2867
     86  CB        -3.7650   19.5770   51.2740 C.3   114  MET114      0.0387
     87  CG        -3.2320   19.2470   49.8990 C.3   114  MET114      0.0595
     88  SD        -3.2560   17.4670   49.5300 S.3   114  MET114     -0.1393
     89  CE        -4.3340   17.4730   48.1030 C.3   114  MET114      0.0692
     90  N          8.3570   26.3870   42.0080 N.3   149  HIS149     -0.1241
     91  CA         7.3170   25.4810   41.5940 C.3   149  HIS149      0.1621
     92  C          5.9810   25.9520   42.1700 C.2   149  HIS149      0.2264
     93  O          4.9720   25.9340   41.4820 O.2   149  HIS149     -0.2867
     94  CB         7.6690   24.0710   42.0640 C.3   149  HIS149      0.0745
     95  CG         6.5280   23.1160   41.9850 C.ar  149  HIS149      0.0817
     96  ND1        6.0470   22.6130   40.7980 N.ar  149  HIS149     -0.2268
     97  CD2        5.7540   22.5830   42.9600 C.ar  149  HIS149      0.1154
     98  CE1        5.0170   21.8180   41.0420 C.ar  149  HIS149      0.1986
     99  NE2        4.8200   21.7750   42.3530 N.ar  149  HIS149     -0.2212
    100  N          9.6160   19.3560   44.6780 N.3   168  CYS168     -0.1235
    101  CA         9.1750   19.5850   43.3070 C.3   168  CYS168      0.1677
    102  C          9.7980   20.8280   42.6600 C.2   168  CYS168      0.2270
    103  O          9.5720   21.1240   41.4820 O.2   168  CYS168     -0.2867
    104  CB         7.6500   19.5530   43.1990 C.3   168  CYS168      0.0956
    105  SG         6.8370   18.1630   43.9020 S.3   168  CYS168     -0.0801
    106  N         14.1510   19.7750   39.1070 N.3   171  LYS171     -0.1245
    107  CA        13.9150   18.7120   38.1550 C.3   171  LYS171      0.1561
    108  C         15.2680   18.1240   37.7320 C.2   171  LYS171      0.2260
    109  O         16.3170   18.7460   37.9480 O.2   171  LYS171     -0.2867
    110  CB        13.1540   19.2510   36.9420 C.3   171  LYS171      0.0271
    111  CG        11.6200   19.0250   37.0320 C.3   171  LYS171      0.0035
    112  CD        10.9390   19.6530   38.2550 C.3   171  LYS171      0.0206
    113  CE         9.4890   19.1690   38.3300 C.3   171  LYS171      0.1093
    114  NZ         8.6130   19.9620   39.2180 N.3   171  LYS171     -0.1314
    115  N          8.0400   20.6250   34.6540 N.3   179  GLY179     -0.1210
    116  CA         6.8560   19.9700   35.1960 C.3   179  GLY179      0.1956
    117  C          5.6580   20.8940   35.2380 C.2   179  GLY179      0.2611
    118  O          5.4700   21.7050   34.3260 O.2   179  GLY179     -0.2717
    119  N          4.8200   20.7660   36.2640 N.am  180  ASN180     -0.1974
    120  CA         3.6390   21.6040   36.3010 C.3   180  ASN180      0.1688
    121  C          3.9920   22.9970   36.7760 C.2   180  ASN180      0.2292
    122  O          4.3470   23.2030   37.9520 O.2   180  ASN180     -0.2864
    123  CB         2.5430   21.0220   37.1850 C.3   180  ASN180      0.1181
    124  CG         1.2110   21.7660   37.0100 C.2   180  ASN180      0.2629
    125  OD1        1.1050   22.6770   36.1920 O.2   180  ASN180     -0.2716
    126  ND2        0.2020   21.3590   37.7560 N.am  180  ASN180     -0.0877
    127  N         10.1590   13.8790   41.3880 N.3   210  HIS210     -0.1241
    128  CA         9.6710   13.1400   40.2110 C.3   210  HIS210      0.1621
    129  C         10.7490   12.5160   39.3350 C.2   210  HIS210      0.2264
    130  O         10.4860   12.1350   38.1860 O.2   210  HIS210     -0.2867
    131  CB         8.7220   14.0250   39.4010 C.3   210  HIS210      0.0745
    132  CG         7.5950   14.5590   40.2260 C.ar  210  HIS210      0.0817
    133  ND1        6.6270   13.7440   40.7800 N.ar  210  HIS210     -0.2268
    134  CD2        7.2910   15.8240   40.6110 C.ar  210  HIS210      0.1154
    135  CE1        5.7730   14.4910   41.4650 C.ar  210  HIS210      0.1986
    136  NE2        6.1740   15.7540   41.4130 N.ar  210  HIS210     -0.2212
@<TRIPOS>BOND
     1     8     6    1
     2     6     5    1
     3   118   117    2
     4     1     2    1
     5   115   116    1
     6    20    19    2
     7     2     5    1
     8     2     3    1
     9     5     7    1
    10   116   117    1
    11   117   119   am
    12    19    18    1
    13     3     4    2
    14    24    23    1
    15   125   124    2
    16    21    18    1
    17    21    22    1
    18   119   120    1
    19   120   121    1
    20   120   123    1
    21    18    17    1
    22   121   122    2
    23    23    22    1
    24   110   111    1
    25   110   107    1
    26   124   123    1
    27   124   126   am
    28   111   112    1
    29    31    29    1
    30   108   109    2
    31   108   107    1
    32    25    26    1
    33   107   106    1
    34   130   129    2
    35   112   113    1
    36   113   114    1
    37    26    29    1
    38    26    27    1
    39    29    30    1
    40    12    11    2
    41   129   128    1
    42   131   128    1
    43   131   132    1
    44    27    28    2
    45   128   127    1
    46   132   134   ar
    47   132   133   ar
    48    11    10    1
    49   134   136   ar
    50   133   135   ar
    51    96    98   ar
    52    96    95   ar
    53    16    14    1
    54    98    99   ar
    55    14    13    1
    56    14    15    1
    57   136   135   ar
    58   103   102    2
    59    93    92    2
    60    91    90    1
    61    91    94    1
    62    91    92    1
    63    10    13    1
    64    10     9    1
    65    45    43   ar
    66    45    44   ar
    67    95    94    1
    68    95    97   ar
    69    43    41   ar
    70    99    97   ar
    71   102   101    1
    72    44    42   ar
    73    54    55   ar
    74    54    52   ar
    75    41    40   ar
    76    41    39   ar
    77   104   101    1
    78   104   105    1
    79   101   100    1
    80    72    70   ar
    81    40    38   ar
    82    55    53   ar
    83    52    51   ar
    84    42    39   ar
    85    39    37   ar
    86    63    62    2
    87    70    69    1
    88    70    71   ar
    89    53    51   ar
    90    51    50    1
    91    38    37   ar
    92    69    66    1
    93    80    79   ar
    94    37    36    1
    95    81    79   ar
    96    62    64   am
    97    62    61    1
    98    50    47    1
    99    79    78    1
   100    60    61    1
   101    60    57    1
   102    36    33    1
   103    65    66    1
   104    65    58   am
   105    66    67    1
   106    56    57    1
   107    56    48   am
   108    47    48    1
   109    47    46    1
   110    57    58    1
   111    58    59    2
   112    76    75    2
   113    78    77    1
   114    48    49    2
   115    33    32    1
   116    33    34    1
   117    67    68    2
   118    74    77    1
   119    74    75    1
   120    74    73    1
   121    35    34    2
   122    89    88    1
   123    88    87    1
   124    87    86    1
   125    82    83    1
   126    86    83    1
   127    83    84    1
   128    84    85    2
