@<TRIPOS>MOLECULE
tmp/4rl2B01.pdb
 119 113 0 0 0
SMALL
GASTEIGER

@<TRIPOS>ATOM
      1  N        -16.9790   17.5110  -36.2690 N.3     6  ILE6       -0.1245
      2  CA       -16.4200   16.5460  -37.2100 C.3     6  ILE6        0.1561
      3  C        -16.5070   17.0880  -38.6160 C.2     6  ILE6        0.2260
      4  O        -17.5860   17.4590  -39.0740 O.2     6  ILE6       -0.2867
      5  CB       -17.1630   15.2280  -37.1660 C.3     6  ILE6        0.0252
      6  CG1      -16.9610   14.5470  -35.8190 C.3     6  ILE6        0.0019
      7  CG2      -16.7070   14.3140  -38.3140 C.3     6  ILE6        0.0019
      8  CD1      -17.8400   13.3350  -35.6640 C.3     6  ILE6        0.0001
      9  N        -24.9260   18.6760  -40.0120 N.3    36  LEU36      -0.1245
     10  CA       -25.9620   18.2100  -39.1110 C.3    36  LEU36       0.1561
     11  C        -25.6000   18.6470  -37.6980 C.2    36  LEU36       0.2260
     12  O        -24.5200   18.3300  -37.1970 O.2    36  LEU36      -0.2867
     13  CB       -26.1040   16.6820  -39.1770 C.3    36  LEU36       0.0270
     14  CG       -27.1610   16.0340  -38.2740 C.3    36  LEU36       0.0019
     15  CD1      -28.5050   15.9820  -38.9740 C.3    36  LEU36       0.0001
     16  CD2      -26.7310   14.6140  -37.8380 C.3    36  LEU36       0.0001
     17  N        -25.6780   18.0590  -34.1150 N.3    38  MET38      -0.1245
     18  CA       -25.9470   17.1210  -33.0210 C.3    38  MET38       0.1570
     19  C        -25.9750   17.8760  -31.6900 C.2    38  MET38       0.2261
     20  O        -24.9520   18.4120  -31.2620 O.2    38  MET38      -0.2867
     21  CB       -24.8910   16.0250  -32.9510 C.3    38  MET38       0.0387
     22  CG       -24.9240   15.0170  -34.0780 C.3    38  MET38       0.0595
     23  SD       -23.6770   13.7310  -33.8120 S.3    38  MET38      -0.1393
     24  CE       -24.2290   13.0000  -32.2470 C.3    38  MET38       0.0692
     25  N        -21.7340   18.1550  -37.6140 N.3    44  VAL44      -0.1245
     26  CA       -21.0560   17.0800  -38.3110 C.3    44  VAL44       0.1561
     27  C        -21.1630   17.3360  -39.8080 C.2    44  VAL44       0.2260
     28  O        -22.2630   17.3590  -40.3680 O.2    44  VAL44      -0.2867
     29  CB       -21.6630   15.7080  -37.9440 C.3    44  VAL44       0.0252
     30  CG1      -20.9730   14.5780  -38.7070 C.3    44  VAL44       0.0019
     31  CG2      -21.5760   15.4840  -36.4300 C.3    44  VAL44       0.0019
     32  N        -27.5060   16.0580  -45.7990 N.3    64  TRP64      -0.1241
     33  CA       -28.1990   15.3640  -44.7080 C.3    64  TRP64       0.1605
     34  C        -29.7110   15.4660  -44.8330 C.2    64  TRP64       0.2264
     35  O        -30.4370   14.5380  -44.4710 O.2    64  TRP64      -0.2867
     36  CB       -27.8240   15.9410  -43.3540 C.3    64  TRP64       0.0550
     37  CG       -26.4120   15.8240  -42.9180 C.ar   64  TRP64       0.0003
     38  CD1      -25.4190   16.7490  -43.0850 C.ar   64  TRP64       0.0946
     39  CD2      -25.8530   14.7680  -42.1280 C.ar   64  TRP64       0.0152
     40  NE1      -24.2630   16.3110  -42.4770 N.ar   64  TRP64      -0.2442
     41  CE2      -24.5040   15.0980  -41.8910 C.ar   64  TRP64       0.0810
     42  CE3      -26.3550   13.5630  -41.6290 C.ar   64  TRP64       0.0012
     43  CZ2      -23.6560   14.2660  -41.1690 C.ar   64  TRP64       0.0191
     44  CZ3      -25.5120   12.7430  -40.9090 C.ar   64  TRP64       0.0001
     45  CH2      -24.1800   13.1000  -40.6800 C.ar   64  TRP64       0.0015
     46  N        -27.6600    5.6170  -45.6600 N.3    93  HIS93      -0.1226
     47  CA       -27.6600    6.3250  -44.3860 C.3    93  HIS93       0.1752
     48  C        -27.9890    7.7970  -44.6650 C.2    93  HIS93       0.2596
     49  O        -27.8640    8.2610  -45.8050 O.2    93  HIS93      -0.2718
     50  CB       -26.3120    6.2040  -43.6710 C.3    93  HIS93       0.0759
     51  CG       -26.1170    4.8990  -42.9410 C.ar   93  HIS93       0.0818
     52  ND1      -24.8770    4.4540  -42.5400 N.ar   93  HIS93      -0.2268
     53  CD2      -27.0050    3.9630  -42.5280 C.ar   93  HIS93       0.1154
     54  CE1      -25.0060    3.2900  -41.9200 C.ar   93  HIS93       0.1986
     55  NE2      -26.2870    2.9710  -41.9000 N.ar   93  HIS93      -0.2212
     56  N        -28.3640    8.5130  -43.6090 N.am   94  GLN94      -0.1965
     57  CA       -28.8610    9.8770  -43.6840 C.3    94  GLN94       0.1733
     58  C        -27.8730   10.8260  -44.3270 C.2    94  GLN94       0.2616
     59  O        -28.2510   11.6220  -45.1810 O.2    94  GLN94      -0.2715
     60  CB       -29.2200   10.3920  -42.2910 C.3    94  GLN94       0.0408
     61  CG       -30.0160   11.7110  -42.3180 C.3    94  GLN94       0.0908
     62  CD       -30.1890   12.3340  -40.9430 C.2    94  GLN94       0.2608
     63  OE1      -29.5590   11.9220  -39.9780 O.2    94  GLN94      -0.2717
     64  NE2      -31.0290   13.3410  -40.8580 N.am   94  GLN94      -0.0878
     65  N        -26.6080   10.7540  -43.9300 N.am   95  ASP95      -0.1971
     66  CA       -25.6420   11.6860  -44.5000 C.3    95  ASP95       0.1709
     67  C        -25.4060   11.5210  -46.0010 C.2    95  ASP95       0.2293
     68  O        -24.9160   12.4550  -46.6350 O.2    95  ASP95      -0.2864
     69  CB       -24.3050   11.6190  -43.7640 C.3    95  ASP95       0.1436
     70  CG       -23.7200   10.2190  -43.6780 C.2    95  ASP95       0.3671
     71  OD1      -24.4320    9.2040  -43.8590 O.co2  95  ASP95      -0.2456
     72  OD2      -22.5110   10.1420  -43.3820 O.co2  95  ASP95      -0.2456
     73  N        -17.8330   -0.2360  -44.3360 N.3   160  HIS160     -0.1241
     74  CA       -18.6100    0.6490  -43.4830 C.3   160  HIS160      0.1621
     75  C        -20.0540    0.1410  -43.3660 C.2   160  HIS160      0.2264
     76  O        -20.6270    0.0810  -42.2700 O.2   160  HIS160     -0.2867
     77  CB       -18.5830    2.0750  -44.0240 C.3   160  HIS160      0.0745
     78  CG       -19.5710    2.9700  -43.3650 C.ar  160  HIS160      0.0817
     79  ND1      -19.4810    3.3180  -42.0310 N.ar  160  HIS160     -0.2268
     80  CD2      -20.6950    3.5590  -43.8360 C.ar  160  HIS160      0.1154
     81  CE1      -20.4870    4.1140  -41.7230 C.ar  160  HIS160      0.1986
     82  NE2      -21.2380    4.2770  -42.7990 N.ar  160  HIS160     -0.2212
     83  N        -18.1840    7.1490  -46.9180 N.3   179  CYS179     -0.1235
     84  CA       -17.9130    6.9310  -45.4960 C.3   179  CYS179      0.1677
     85  C        -17.0470    5.7030  -45.2510 C.2   179  CYS179      0.2270
     86  O        -16.6720    5.4280  -44.1060 O.2   179  CYS179     -0.2867
     87  CB       -19.2000    6.7790  -44.7020 C.3   179  CYS179      0.0956
     88  SG       -20.3420    8.1310  -44.8610 S.3   179  CYS179     -0.0801
     89  N        -11.6080    6.7080  -44.1780 N.3   182  LYS182     -0.1245
     90  CA       -11.3790    7.7580  -43.1920 C.3   182  LYS182      0.1561
     91  C        -10.0170    8.3820  -43.4350 C.2   182  LYS182      0.2260
     92  O         -9.2090    7.8420  -44.1950 O.2   182  LYS182     -0.2867
     93  CB       -11.4860    7.2170  -41.7590 C.3   182  LYS182      0.0271
     94  CG       -12.8490    6.5820  -41.4400 C.3   182  LYS182      0.0035
     95  CD       -13.9750    7.3820  -42.0780 C.3   182  LYS182      0.0206
     96  CE       -15.2370    7.4050  -41.2100 C.3   182  LYS182      0.1093
     97  NZ       -16.2040    6.3310  -41.5470 N.3   182  LYS182     -0.1314
     98  N        -14.9660    5.5660  -37.5010 N.3   190  GLY190     -0.1210
     99  CA       -16.3010    6.1280  -37.3810 C.3   190  GLY190      0.1956
    100  C        -17.3380    5.1150  -36.9060 C.2   190  GLY190      0.2611
    101  O        -17.0100    4.1900  -36.1670 O.2   190  GLY190     -0.2717
    102  N        -18.5940    5.2690  -37.3250 N.am  191  ASN191     -0.1974
    103  CA       -19.6240    4.3560  -36.8380 C.3   191  ASN191      0.1688
    104  C        -19.4560    2.9760  -37.4790 C.2   191  ASN191      0.2292
    105  O        -19.5860    2.8200  -38.7000 O.2   191  ASN191     -0.2864
    106  CB       -21.0220    4.9220  -37.0970 C.3   191  ASN191      0.1181
    107  CG       -22.1210    4.1190  -36.4050 C.2   191  ASN191      0.2629
    108  OD1      -21.8440    3.1530  -35.6990 O.2   191  ASN191     -0.2716
    109  ND2      -23.3730    4.5380  -36.5850 N.am  191  ASN191     -0.0877
    110  N        -16.2440   12.7640  -44.4050 N.3   221  HIS221     -0.1241
    111  CA       -16.1670   13.5500  -43.1770 C.3   221  HIS221      0.1621
    112  C        -14.8000   14.1290  -42.8860 C.2   221  HIS221      0.2264
    113  O        -14.5290   14.4980  -41.7550 O.2   221  HIS221     -0.2867
    114  CB       -16.6420   12.7150  -41.9670 C.3   221  HIS221      0.0745
    115  CG       -17.9770   12.0590  -42.1750 C.ar  221  HIS221      0.0817
    116  ND1      -19.1540   12.7700  -42.2910 N.ar  221  HIS221     -0.2268
    117  CD2      -18.3130   10.7530  -42.2950 C.ar  221  HIS221      0.1154
    118  CE1      -20.1540   11.9330  -42.4840 C.ar  221  HIS221      0.1986
    119  NE2      -19.6700   10.7030  -42.4940 N.ar  221  HIS221     -0.2212
@<TRIPOS>BOND
     1    83    84    1
     2    68    67    2
     3    67    66    1
     4    49    48    2
     5    32    33    1
     6    46    47    1
     7    84    85    1
     8    84    87    1
     9    85    86    2
    10    59    58    2
    11    88    87    1
    12    34    33    1
    13    34    35    2
    14    33    36    1
    15    48    47    1
    16    48    56   am
    17    66    65    1
    18    66    69    1
    19   110   111    1
    20    47    50    1
    21    73    74    1
    22    58    65   am
    23    58    57    1
    24    92    91    2
    25    89    90    1
    26    77    74    1
    27    77    78    1
    28    71    70   ar
    29    80    78   ar
    30    80    82   ar
    31    69    70    1
    32    57    56    1
    33    57    60    1
    34    70    72   ar
    35    50    51    1
    36    74    75    1
    37    91    90    1
    38    75    76    2
    39    78    79   ar
    40    36    37    1
    41    90    93    1
    42   111   112    1
    43   111   114    1
    44    38    37   ar
    45    38    40   ar
    46    51    52   ar
    47    51    53   ar
    48    37    39   ar
    49   112   113    2
    50    82    81   ar
    51    52    54   ar
    52    53    55   ar
    53   119   118   ar
    54   119   117   ar
    55   118   116   ar
    56    40    41   ar
    57    61    60    1
    58    61    62    1
    59   117   115   ar
    60   116   115   ar
    61   115   114    1
    62    39    41   ar
    63    39    42   ar
    64    95    94    1
    65    95    96    1
    66    79    81   ar
    67    54    55   ar
    68    41    43   ar
    69    93    94    1
    70    42    44   ar
    71    97    96    1
    72    43    45   ar
    73    62    64   am
    74    62    63    2
    75    44    45   ar
    76    28    27    2
    77     9    10    1
    78    27    26    1
    79    13    10    1
    80    13    14    1
    81    10    11    1
    82     4     3    2
    83    15    14    1
    84    30    29    1
    85   105   104    2
    86     3     2    1
    87     7     5    1
    88    26    29    1
    89    26    25    1
    90    14    16    1
    91    29    31    1
    92    11    12    2
    93    98    99    1
    94   104   103    1
    95    99   100    1
    96   102   100   am
    97   102   103    1
    98     2     5    1
    99     2     1    1
   100     5     6    1
   101   106   103    1
   102   106   107    1
   103   100   101    2
   104   109   107   am
   105   107   108    2
   106     6     8    1
   107    17    18    1
   108    22    23    1
   109    22    21    1
   110    23    24    1
   111    18    21    1
   112    18    19    1
   113    19    20    2
