@<TRIPOS>MOLECULE
tmp/4rl4A00.pdb
 95 87 0 0 0
SMALL
GASTEIGER

@<TRIPOS>ATOM
      1  N         -6.8120   50.6450  -14.1140 N.3    50  ARG50      -0.1231
      2  CA        -6.7350   49.8490  -15.3250 C.3    50  ARG50       0.1694
      3  C         -7.9150   48.8980  -15.3400 C.2    50  ARG50       0.2591
      4  O         -8.0680   48.0790  -14.4510 O.2    50  ARG50      -0.2718
      5  CB        -5.4080   49.0800  -15.3630 C.3    50  ARG50       0.0321
      6  CG        -5.3510   47.9330  -16.3670 C.3    50  ARG50       0.0489
      7  CD        -5.2810   48.4140  -17.8010 C.3    50  ARG50       0.2205
      8  NE        -5.5770   47.3240  -18.7190 N.pl3  50  ARG50      -0.0865
      9  CZ        -5.6810   47.4560  -20.0350 C.cat  50  ARG50       0.5346
     10  NH1       -5.5050   48.6460  -20.6070 N.pl3  50  ARG50       0.1354
     11  NH2       -5.9630   46.3920  -20.7830 N.pl3  50  ARG50       0.1354
     12  N         -8.7670   49.0300  -16.3450 N.am   51  LEU51      -0.1980
     13  CA        -9.8750   48.1080  -16.5300 C.3    51  LEU51       0.1596
     14  C         -9.4440   47.0270  -17.5260 C.2    51  LEU51       0.2287
     15  O         -9.3650   47.2700  -18.7330 O.2    51  LEU51      -0.2864
     16  CB       -11.0990   48.8600  -17.0330 C.3    51  LEU51       0.0297
     17  CG       -12.3390   48.0240  -17.3300 C.3    51  LEU51       0.0022
     18  CD1      -12.7430   47.2290  -16.1040 C.3    51  LEU51       0.0001
     19  CD2      -13.4730   48.9360  -17.7710 C.3    51  LEU51       0.0001
     20  N         -9.7180   43.3790  -19.4220 N.3    53  SER53      -0.1217
     21  CA       -10.5020   42.2060  -19.8420 C.3    53  SER53       0.1889
     22  C         -9.6080   40.9920  -19.8740 C.2    53  SER53       0.2288
     23  O         -8.5590   41.0240  -20.5040 O.2    53  SER53      -0.2866
     24  CB       -11.1000   42.4050  -21.2240 C.3    53  SER53       0.2089
     25  OG       -11.9510   43.5230  -21.2120 O.3    53  SER53      -0.2183
     26  N         -2.1070   41.6250  -29.3360 N.3    67  ASP67      -0.1239
     27  CA        -3.5010   41.7560  -28.9010 C.3    67  ASP67       0.1674
     28  C         -3.6100   42.0820  -27.4040 C.2    67  ASP67       0.2266
     29  O         -4.3200   43.0040  -27.0330 O.2    67  ASP67      -0.2867
     30  CB        -4.3820   40.5590  -29.3040 C.3    67  ASP67       0.1410
     31  CG        -3.9360   39.2320  -28.7050 C.2    67  ASP67       0.3668
     32  OD1       -2.8540   39.1610  -28.0910 O.co2  67  ASP67      -0.2456
     33  OD2       -4.6960   38.2490  -28.8630 O.co2  67  ASP67      -0.2456
     34  N        -13.3680   39.6440  -26.0330 N.3    94  ARG94      -0.1245
     35  CA       -14.4450   40.6300  -26.2140 C.3    94  ARG94       0.1563
     36  C        -15.8350   40.0320  -25.9730 C.2    94  ARG94       0.2260
     37  O        -16.7940   40.3460  -26.6870 O.2    94  ARG94      -0.2867
     38  CB       -14.3870   41.2470  -27.6190 C.3    94  ARG94       0.0307
     39  CG       -13.1760   42.1280  -27.8730 C.3    94  ARG94       0.0489
     40  CD       -13.2930   42.8640  -29.2040 C.3    94  ARG94       0.2205
     41  NE       -12.3910   44.0120  -29.2560 N.pl3  94  ARG94      -0.0865
     42  CZ       -11.0860   43.9470  -29.5150 C.cat  94  ARG94       0.5346
     43  NH1      -10.4970   42.7820  -29.7670 N.pl3  94  ARG94       0.1354
     44  NH2      -10.3580   45.0580  -29.5210 N.pl3  94  ARG94       0.1354
     45  N        -18.7740   43.3750  -24.9860 N.3   128  ARG128     -0.1245
     46  CA       -18.3980   43.6500  -23.5860 C.3   128  ARG128      0.1563
     47  C        -19.2460   44.7350  -22.9400 C.2   128  ARG128      0.2260
     48  O        -19.4530   45.7990  -23.5160 O.2   128  ARG128     -0.2867
     49  CB       -16.9250   44.0450  -23.4720 C.3   128  ARG128      0.0307
     50  CG       -15.9790   42.8550  -23.5350 C.3   128  ARG128      0.0489
     51  CD       -14.5280   43.3010  -23.4940 C.3   128  ARG128      0.2205
     52  NE       -14.1600   44.0730  -24.6800 N.pl3 128  ARG128     -0.0865
     53  CZ       -12.9880   44.6790  -24.8520 C.cat 128  ARG128      0.5346
     54  NH1      -12.0420   44.6210  -23.9150 N.pl3 128  ARG128      0.1354
     55  NH2      -12.7540   45.3490  -25.9730 N.pl3 128  ARG128      0.1354
     56  N         -6.1050   53.2130  -20.7470 N.3   149  THR149     -0.1203
     57  CA        -6.8750   52.5820  -21.8180 C.3   149  THR149      0.1994
     58  C         -6.7110   53.3540  -23.1340 C.2   149  THR149      0.2618
     59  O         -6.4390   54.5620  -23.1270 O.2   149  THR149     -0.2717
     60  CB        -8.3730   52.5360  -21.4420 C.3   149  THR149      0.1784
     61  OG1       -9.0840   51.6410  -22.3030 O.3   149  THR149     -0.2211
     62  CG2       -9.0050   53.9240  -21.5220 C.3   149  THR149      0.0376
     63  N         -6.8670   52.6480  -24.2530 N.am  150  ASN150     -0.1960
     64  CA        -6.9810   53.2660  -25.5790 C.3   150  ASN150      0.1819
     65  C         -8.3310   52.9050  -26.2120 C.2   150  ASN150      0.2621
     66  O         -8.4520   52.8130  -27.4340 O.2   150  ASN150     -0.2715
     67  CB        -5.8410   52.8040  -26.5000 C.3   150  ASN150      0.1195
     68  CG        -4.4750   52.8440  -25.8270 C.2   150  ASN150      0.2630
     69  OD1       -4.0100   53.8950  -25.3920 O.2   150  ASN150     -0.2716
     70  ND2       -3.8160   51.6950  -25.7640 N.am  150  ASN150     -0.0877
     71  N         -9.3440   52.7070  -25.3720 N.am  151  ASN151     -0.1972
     72  CA       -10.6500   52.2460  -25.8200 C.3   151  ASN151      0.1688
     73  C        -11.7380   53.2360  -25.3910 C.2   151  ASN151      0.2292
     74  O        -12.0630   53.3290  -24.1990 O.2   151  ASN151     -0.2864
     75  CB       -10.9200   50.8520  -25.2550 C.3   151  ASN151      0.1181
     76  CG       -12.3160   50.3510  -25.5510 C.2   151  ASN151      0.2629
     77  OD1      -13.1870   51.1130  -25.9480 O.2   151  ASN151     -0.2716
     78  ND2      -12.5370   49.0590  -25.3450 N.am  151  ASN151     -0.0877
     79  N        -14.7240   51.9910  -23.1540 N.3   154  LYS154     -0.1245
     80  CA       -14.4240   51.9370  -21.7140 C.3   154  LYS154      0.1561
     81  C        -14.4710   53.3340  -21.0960 C.2   154  LYS154      0.2260
     82  O        -15.0060   53.5020  -20.0030 O.2   154  LYS154     -0.2867
     83  CB       -13.0490   51.2990  -21.4410 C.3   154  LYS154      0.0271
     84  CG       -12.9990   49.8010  -21.6910 C.3   154  LYS154      0.0035
     85  CD       -11.6550   49.1930  -21.3080 C.3   154  LYS154      0.0206
     86  CE       -11.6800   47.6800  -21.4620 C.3   154  LYS154      0.1093
     87  NZ       -10.3650   47.0580  -21.1790 N.3   154  LYS154     -0.1314
     88  N         -2.1900   53.1830  -22.8660 N.3   169  LEU169     -0.1245
     89  CA        -1.4310   52.0010  -22.4850 C.3   169  LEU169      0.1561
     90  C         -0.7650   51.4340  -23.7330 C.2   169  LEU169      0.2260
     91  O         -1.3550   50.6170  -24.4410 O.2   169  LEU169     -0.2867
     92  CB        -2.3420   50.9550  -21.8380 C.3   169  LEU169      0.0270
     93  CG        -1.6060   49.7660  -21.2030 C.3   169  LEU169      0.0019
     94  CD1       -1.4750   49.9190  -19.6910 C.3   169  LEU169      0.0001
     95  CD2       -2.3100   48.4630  -21.5390 C.3   169  LEU169      0.0001
@<TRIPOS>BOND
     1    43    42    1
     2    44    42    1
     3    42    41    2
     4    26    27    1
     5    30    27    1
     6    30    31    1
     7    41    40    1
     8    40    39    1
     9    27    28    1
    10    33    31   ar
    11    31    32   ar
    12    39    38    1
    13    38    35    1
    14    66    65    2
    15    28    29    2
    16    37    36    2
    17    67    68    1
    18    67    64    1
    19    35    34    1
    20    35    36    1
    21    65    64    1
    22    65    71   am
    23    55    53    1
    24    77    76    2
    25    68    70   am
    26    68    69    2
    27    72    73    1
    28    72    71    1
    29    72    75    1
    30    64    63    1
    31    76    78   am
    32    76    75    1
    33    73    74    2
    34    45    46    1
    35    53    52    2
    36    53    54    1
    37    52    51    1
    38    91    90    2
    39    63    58   am
    40    90    89    1
    41    46    49    1
    42    46    47    1
    43    50    51    1
    44    50    49    1
    45    48    47    2
    46    79    80    1
    47    58    59    2
    48    58    57    1
    49    88    89    1
    50    89    92    1
    51    61    60    1
    52    92    93    1
    53    57    60    1
    54    57    56    1
    55    80    83    1
    56    80    81    1
    57    84    83    1
    58    84    85    1
    59    95    93    1
    60    62    60    1
    61    86    85    1
    62    86    87    1
    63    24    25    1
    64    24    21    1
    65    93    94    1
    66    81    82    2
    67    11     9    1
    68    10     9    1
    69    23    22    2
    70     9     8    2
    71    22    21    1
    72    21    20    1
    73    15    14    2
    74     8     7    1
    75     7     6    1
    76    19    17    1
    77    14    13    1
    78    17    16    1
    79    17    18    1
    80    16    13    1
    81    13    12    1
    82     6     5    1
    83    12     3   am
    84     5     2    1
    85     3     2    1
    86     3     4    2
    87     2     1    1
