@<TRIPOS>MOLECULE
tmp/4rlcA01.pdb
 100 99 0 0 0
SMALL
GASTEIGER

@<TRIPOS>ATOM
      1  N         14.8580    7.6720   29.8390 N.3     8  ILE8       -0.1231
      2  CA        15.1110    7.9020   28.4490 C.3     8  ILE8        0.1692
      3  C         15.9420    6.7470   27.9280 C.2     8  ILE8        0.2592
      4  O         16.8920    6.3360   28.5730 O.2     8  ILE8       -0.2718
      5  CB        15.9840    9.1420   28.2620 C.3     8  ILE8        0.0266
      6  CG1       15.3530   10.2790   29.0330 C.3     8  ILE8        0.0019
      7  CG2       16.1500    9.4550   26.7970 C.3     8  ILE8        0.0020
      8  CD1       14.1460   10.7210   28.4230 C.3     8  ILE8        0.0001
      9  N         15.5770    6.2550   26.7470 N.am    9  GLU9       -0.1966
     10  CA        16.2010    5.0120   26.2020 C.3     9  GLU9        0.1733
     11  C         16.4800    5.1160   24.7410 C.2     9  GLU9        0.2616
     12  O         15.6940    5.7890   23.9980 O.2     9  GLU9       -0.2715
     13  CB        15.2170    3.8360   26.4430 C.3     9  GLU9        0.0429
     14  CG        15.7140    2.4860   25.9790 C.3     9  GLU9        0.1163
     15  CD        14.6910    1.3950   26.3070 C.2     9  GLU9        0.3649
     16  OE1       14.0310    1.5040   27.3500 O.co2   9  GLU9       -0.2457
     17  OE2       14.5510    0.4480   25.5010 O.co2   9  GLU9       -0.2457
     18  N         17.5340    4.4370   24.2480 N.am   10  ALA10      -0.1963
     19  CA        17.8100    4.2690   22.8330 C.3    10  ALA10       0.1728
     20  C         17.6840    2.7780   22.6020 C.2    10  ALA10       0.2616
     21  O         18.0960    2.0410   23.4520 O.2    10  ALA10      -0.2715
     22  CB        19.1830    4.7250   22.3900 C.3    10  ALA10       0.0334
     23  N         17.1010    2.4100   21.4780 N.am   11  PHE11      -0.1974
     24  CA        16.9460    0.9520   21.1220 C.3    11  PHE11       0.1639
     25  C         17.2270    0.6250   19.6840 C.2    11  PHE11       0.2290
     26  O         17.1570    1.4720   18.7990 O.2    11  PHE11      -0.2864
     27  CB        15.5470    0.4820   21.5260 C.3    11  PHE11       0.0560
     28  CG        14.4360    1.0550   20.7300 C.ar   11  PHE11      -0.0200
     29  CD1       14.1340    0.6250   19.4780 C.ar   11  PHE11      -0.0042
     30  CD2       13.6810    2.1300   21.2820 C.ar   11  PHE11      -0.0042
     31  CE1       13.0840    1.1900   18.7330 C.ar   11  PHE11      -0.0003
     32  CE2       12.6530    2.6790   20.5520 C.ar   11  PHE11      -0.0003
     33  CZ        12.3910    2.2530   19.2770 C.ar   11  PHE11      -0.0000
     34  N         15.3710    1.4070   14.5720 N.3    20  TYR20      -0.1227
     35  CA        16.2360    2.0930   15.5020 C.3    20  TYR20       0.1740
     36  C         15.5120    3.3360   16.0190 C.2    20  TYR20       0.2635
     37  O         14.8230    3.9830   15.2600 O.2    20  TYR20      -0.2714
     38  CB        17.4910    2.6380   14.7690 C.3    20  TYR20       0.0548
     39  CG        18.3250    1.6520   14.0080 C.ar   20  TYR20      -0.0200
     40  CD1       18.7330    0.5060   14.5690 C.ar   20  TYR20      -0.0009
     41  CD2       18.6820    1.8880   12.6760 C.ar   20  TYR20      -0.0009
     42  CE1       19.4740   -0.4400   13.8460 C.ar   20  TYR20       0.0417
     43  CE2       19.4490    0.9580   11.9500 C.ar   20  TYR20       0.0417
     44  CZ        19.8260   -0.2030   12.5510 C.ar   20  TYR20       0.1957
     45  OH        20.5410   -1.1480   11.7920 O.3    20  TYR20      -0.2866
     46  N         15.5930    3.5740   17.3100 N.am   21  GLY21      -0.1718
     47  CA        14.8010    4.5900   17.9300 C.2    21  GLY21       0.1480
     48  C         15.1110    4.8860   19.3680 C.2    21  GLY21       0.2821
     49  O         16.1680    4.5850   19.9130 O.2    21  GLY21      -0.2669
     50  N         14.1660    5.5760   19.9380 N.am   22  GLY22      -0.1905
     51  CA        14.2230    6.0260   21.3100 C.3    22  GLY22       0.2017
     52  C         12.8740    6.0020   22.0240 C.2    22  GLY22       0.2640
     53  O         11.8220    6.0180   21.3840 O.2    22  GLY22      -0.2714
     54  N         12.9340    6.0990   23.3340 N.am   23  SER23      -0.1935
     55  CA        11.7550    6.0890   24.1290 C.3    23  SER23       0.2055
     56  C         11.8840    7.0030   25.3210 C.2    23  SER23       0.2642
     57  O         12.9860    7.1670   25.8480 O.2    23  SER23      -0.2714
     58  CB        11.5670    4.5840   24.5640 C.3    23  SER23       0.2130
     59  OG        10.5760    4.4220   25.5280 O.3    23  SER23      -0.2179
     60  N         10.7500    7.5610   25.7610 N.am   24  ILE24      -0.1977
     61  CA        10.6120    8.2110   27.0410 C.3    24  ILE24       0.1596
     62  C          9.5750    7.5070   27.8420 C.2    24  ILE24       0.2287
     63  O          8.4880    7.2770   27.3630 O.2    24  ILE24      -0.2864
     64  CB        10.2020    9.7110   26.9260 C.3    24  ILE24       0.0276
     65  CG1       11.0730   10.4090   25.9770 C.3    24  ILE24       0.0022
     66  CG2       10.1420   10.2830   28.3160 C.3    24  ILE24       0.0022
     67  CD1       12.4260   10.7390   26.3850 C.3    24  ILE24       0.0001
     68  N          6.3800    6.0890   25.6600 N.3    36  LEU36      -0.1231
     69  CA         6.1760    6.5310   24.3060 C.3    36  LEU36       0.1693
     70  C          7.5030    6.3270   23.5450 C.2    36  LEU36       0.2593
     71  O          8.5930    6.7880   23.9510 O.2    36  LEU36      -0.2718
     72  CB         5.8180    8.0650   24.3740 C.3    36  LEU36       0.0284
     73  CG         5.6440    8.7400   23.0250 C.3    36  LEU36       0.0019
     74  CD1        4.4330    8.1950   22.2860 C.3    36  LEU36       0.0001
     75  CD2        5.4900   10.2880   23.2610 C.3    36  LEU36       0.0001
     76  N          7.4240    5.6280   22.4260 N.am   37  SER37      -0.1938
     77  CA         8.5820    5.2690   21.6240 C.3    37  SER37       0.2055
     78  C          8.4250    5.7210   20.2140 C.2    37  SER37       0.2643
     79  O          7.3040    5.7690   19.6500 O.2    37  SER37      -0.2714
     80  CB         8.6970    3.7030   21.5760 C.3    37  SER37       0.2130
     81  OG         8.9090    3.2550   22.8440 O.3    37  SER37      -0.2179
     82  N          9.5420    6.0320   19.5670 N.am   38  TYR38      -0.1973
     83  CA         9.5590    6.3060   18.1630 C.3    38  TYR38       0.1639
     84  C         10.7600    5.6390   17.5220 C.2    38  TYR38       0.2290
     85  O         11.8440    5.7690   18.0290 O.2    38  TYR38      -0.2864
     86  CB         9.6580    7.8120   17.8850 C.3    38  TYR38       0.0560
     87  CG         9.7330    8.1290   16.4060 C.ar   38  TYR38      -0.0198
     88  CD1        8.6040    8.0170   15.6030 C.ar   38  TYR38      -0.0009
     89  CD2       10.9320    8.5330   15.7940 C.ar   38  TYR38      -0.0009
     90  CE1        8.6490    8.3010   14.2460 C.ar   38  TYR38       0.0417
     91  CE2       10.9870    8.7620   14.4390 C.ar   38  TYR38       0.0417
     92  CZ         9.8390    8.6970   13.6830 C.ar   38  TYR38       0.1957
     93  OH         9.8890    8.9360   12.3390 O.3    38  TYR38      -0.2866
     94  N          5.4770    4.5030   15.8430 N.3    50  THR50      -0.1218
     95  CA         5.2880    5.2340   17.0800 C.3    50  THR50       0.1862
     96  C          4.4840    4.3700   18.0040 C.2    50  THR50       0.2287
     97  O          3.4480    3.8580   17.5750 O.2    50  THR50      -0.2866
     98  CB         4.5430    6.5040   16.8000 C.3    50  THR50       0.1770
     99  OG1        5.1900    7.2020   15.7130 O.3    50  THR50      -0.2211
    100  CG2        4.4330    7.3180   18.0710 C.3    50  THR50       0.0375
@<TRIPOS>BOND
     1    45    44    1
     2    43    44   ar
     3    43    41   ar
     4    93    92    1
     5    44    42   ar
     6    41    39   ar
     7    92    90   ar
     8    92    91   ar
     9    42    40   ar
    10    39    40   ar
    11    39    38    1
    12    90    88   ar
    13    91    89   ar
    14    34    35    1
    15    38    35    1
    16    37    36    2
    17    35    36    1
    18    88    87   ar
    19    99    98    1
    20    89    87   ar
    21    94    95    1
    22    36    46    1
    23    87    86    1
    24    98    95    1
    25    98   100    1
    26    95    96    1
    27    46    47    2
    28    84    85    2
    29    84    83    1
    30    97    96    2
    31    86    83    1
    32    47    48    1
    33    83    82    1
    34    31    33   ar
    35    31    29   ar
    36    26    25    2
    37    33    32   ar
    38    48    49    2
    39    48    50   am
    40    29    28   ar
    41    82    78   am
    42    79    78    2
    43    25    24    1
    44    50    51    1
    45    78    77    1
    46    32    30   ar
    47    28    30   ar
    48    28    27    1
    49    24    23    1
    50    24    27    1
    51    51    52    1
    52    53    52    2
    53    23    20   am
    54    80    77    1
    55    80    81    1
    56    77    76    1
    57    52    54   am
    58    74    73    1
    59    22    19    1
    60    76    70   am
    61    20    19    1
    62    20    21    2
    63    19    18    1
    64    73    75    1
    65    73    72    1
    66    54    55    1
    67    70    71    2
    68    70    69    1
    69    12    11    2
    70    55    58    1
    71    55    56    1
    72    18    11   am
    73    69    72    1
    74    69    68    1
    75    58    59    1
    76    11    10    1
    77    56    60   am
    78    56    57    2
    79    17    15   ar
    80    60    61    1
    81    65    67    1
    82    65    64    1
    83    14    15    1
    84    14    13    1
    85    10    13    1
    86    10     9    1
    87    15    16   ar
    88     9     3   am
    89     7     5    1
    90    64    61    1
    91    64    66    1
    92    61    62    1
    93    63    62    2
    94     3     2    1
    95     3     4    2
    96     5     2    1
    97     5     6    1
    98     8     6    1
    99     2     1    1
