@<TRIPOS>MOLECULE
tmp/4rlcA00.pdb
 77 76 0 0 0
SMALL
GASTEIGER

@<TRIPOS>ATOM
      1  N          8.9680   -6.8060   36.9420 N.3    58  PHE58      -0.1227
      2  CA         9.2430   -7.6630   38.0300 C.3    58  PHE58       0.1736
      3  C         10.4820   -7.2450   38.8140 C.2    58  PHE58       0.2596
      4  O         11.1610   -6.2240   38.4510 O.2    58  PHE58      -0.2718
      5  CB         9.3500   -9.1130   37.5360 C.3    58  PHE58       0.0547
      6  CG         8.0850   -9.6270   36.9430 C.ar   58  PHE58      -0.0202
      7  CD1        7.7510   -9.3750   35.6340 C.ar   58  PHE58      -0.0042
      8  CD2        7.1910  -10.3630   37.7270 C.ar   58  PHE58      -0.0042
      9  CE1        6.5290   -9.8210   35.1100 C.ar   58  PHE58      -0.0003
     10  CE2        6.0110  -10.8540   37.1860 C.ar   58  PHE58      -0.0003
     11  CZ         5.6960  -10.5850   35.8820 C.ar   58  PHE58      -0.0000
     12  N         10.7470   -7.9200   39.9100 N.am   59  GLY59      -0.1957
     13  CA        11.9000   -7.4820   40.7450 C.3    59  GLY59       0.1869
     14  C         11.5520   -6.1570   41.4310 C.2    59  GLY59       0.2309
     15  O         10.3590   -5.7550   41.4860 O.2    59  GLY59      -0.2863
     16  N         13.2130   -8.1890   35.0900 N.3    67  PRO67      -0.2102
     17  CA        12.4830   -8.6200   33.9300 C.3    67  PRO67       0.1504
     18  C         11.1810   -7.8350   33.7670 C.2    67  PRO67       0.2576
     19  O         10.6530   -7.3420   34.7830 O.2    67  PRO67      -0.2718
     20  CB        12.1900  -10.0970   34.2530 C.3    67  PRO67       0.0282
     21  CG        13.0650  -10.4720   35.4310 C.3    67  PRO67       0.0208
     22  CD        13.2110   -9.1570   36.1760 C.3    67  PRO67       0.0893
     23  N         10.6210   -7.8140   32.5550 N.am   68  TYR68      -0.1963
     24  CA         9.3610   -7.1570   32.3380 C.3    68  TYR68       0.1771
     25  C          8.5130   -7.8120   31.2740 C.2    68  TYR68       0.2619
     26  O          8.9620   -8.5640   30.4230 O.2    68  TYR68      -0.2715
     27  CB         9.6430   -5.6560   31.9500 C.3    68  TYR68       0.0574
     28  CG        10.2250   -5.4760   30.5500 C.ar   68  TYR68      -0.0198
     29  CD1        9.4110   -5.4720   29.4310 C.ar   68  TYR68      -0.0009
     30  CD2       11.6340   -5.3740   30.3240 C.ar   68  TYR68      -0.0009
     31  CE1        9.9500   -5.3850   28.1560 C.ar   68  TYR68       0.0417
     32  CE2       12.1450   -5.2750   29.0520 C.ar   68  TYR68       0.0417
     33  CZ        11.3110   -5.2570   27.9900 C.ar   68  TYR68       0.1957
     34  OH        11.7940   -5.2210   26.7270 O.3    68  TYR68      -0.2866
     35  N          7.2350   -7.4740   31.3470 N.am   69  VAL69      -0.1977
     36  CA         6.2720   -7.7480   30.2790 C.3    69  VAL69       0.1596
     37  C          5.5550   -6.4320   29.8900 C.2    69  VAL69       0.2287
     38  O          5.4780   -5.5250   30.6620 O.2    69  VAL69      -0.2864
     39  CB         5.2510   -8.8180   30.6990 C.3    69  VAL69       0.0276
     40  CG1        5.9420  -10.1360   30.9350 C.3    69  VAL69       0.0022
     41  CG2        4.4420   -8.4200   31.9250 C.3    69  VAL69       0.0022
     42  N          8.1950   -8.8670   26.0340 N.3    98  ALA98      -0.1231
     43  CA         8.8200   -9.2040   27.2910 C.3    98  ALA98       0.1694
     44  C         10.3450   -8.9570   27.1610 C.2    98  ALA98       0.2593
     45  O         10.9460   -8.9360   26.0790 O.2    98  ALA98      -0.2718
     46  CB         8.5850  -10.7080   27.6370 C.3    98  ALA98       0.0304
     47  N         10.9910   -8.8140   28.2740 N.am   99  GLY99      -0.1942
     48  CA        12.4240   -8.5710   28.2280 C.3    99  GLY99       0.2014
     49  C         13.0960   -8.5420   29.5710 C.2    99  GLY99       0.2638
     50  O         12.4980   -8.8310   30.6150 O.2    99  GLY99      -0.2714
     51  N         14.3930   -8.2060   29.5130 N.am  100  LEU100     -0.1977
     52  CA        15.2420   -8.1510   30.7120 C.3   100  LEU100      0.1596
     53  C         15.8440   -6.7430   30.7480 C.2   100  LEU100      0.2287
     54  O         16.4540   -6.3220   29.7480 O.2   100  LEU100     -0.2864
     55  CB        16.3360   -9.1450   30.5920 C.3   100  LEU100      0.0297
     56  CG        15.8040  -10.5940   30.5740 C.3   100  LEU100      0.0022
     57  CD1       16.9740  -11.5240   30.3660 C.3   100  LEU100      0.0001
     58  CD2       15.0580  -10.9080   31.8390 C.3   100  LEU100      0.0001
     59  N         17.4850   -6.3100   26.9880 N.3   112  ALA112     -0.1231
     60  CA        17.3230   -7.2100   25.8580 C.3   112  ALA112      0.1694
     61  C         15.8410   -7.5460   25.7560 C.2   112  ALA112      0.2593
     62  O         15.2220   -7.7910   26.8000 O.2   112  ALA112     -0.2718
     63  CB        18.0240   -8.5510   26.1700 C.3   112  ALA112      0.0304
     64  N         15.2600   -7.4760   24.5590 N.am  113  SER113     -0.1938
     65  CA        13.8010   -7.5040   24.4030 C.3   113  SER113      0.2055
     66  C         13.3500   -8.4620   23.2980 C.2   113  SER113      0.2642
     67  O         14.0800   -8.6780   22.3180 O.2   113  SER113     -0.2714
     68  CB        13.3390   -6.0390   24.0130 C.3   113  SER113      0.2130
     69  OG        13.9220   -5.5430   22.8010 O.3   113  SER113     -0.2179
     70  N         12.1220   -8.9710   23.4450 N.am  114  LEU114     -0.1977
     71  CA        11.3560   -9.6490   22.4000 C.3   114  LEU114      0.1596
     72  C         10.0220   -8.9710   22.2720 C.2   114  LEU114      0.2287
     73  O          9.3830   -8.7250   23.3020 O.2   114  LEU114     -0.2864
     74  CB        11.0900  -11.1020   22.8340 C.3   114  LEU114      0.0297
     75  CG        12.3070  -11.9690   22.9700 C.3   114  LEU114      0.0022
     76  CD1       11.8870  -13.3350   23.5150 C.3   114  LEU114      0.0001
     77  CD2       13.0390  -12.1180   21.6250 C.3   114  LEU114      0.0001
@<TRIPOS>BOND
     1    77    75    1
     2    72    71    1
     3    72    73    2
     4    67    66    2
     5    71    74    1
     6    71    70    1
     7    69    68    1
     8    74    75    1
     9    75    76    1
    10    66    70   am
    11    66    65    1
    12    68    65    1
    13    65    64    1
    14    64    61   am
    15    61    60    1
    16    61    62    2
    17    60    63    1
    18    60    59    1
    19    42    43    1
    20    45    44    2
    21    34    33    1
    22    44    43    1
    23    44    47   am
    24    43    46    1
    25    33    31   ar
    26    33    32   ar
    27    31    29   ar
    28    48    47    1
    29    48    49    1
    30    32    30   ar
    31    29    28   ar
    32    51    49   am
    33    51    52    1
    34    49    50    2
    35    54    53    2
    36    37    36    1
    37    37    38    2
    38    36    39    1
    39    36    35    1
    40    30    28   ar
    41    57    56    1
    42    26    25    2
    43    28    27    1
    44    56    55    1
    45    56    58    1
    46    55    52    1
    47    39    40    1
    48    39    41    1
    49    52    53    1
    50    25    35   am
    51    25    24    1
    52    27    24    1
    53    24    23    1
    54    23    18   am
    55    18    17    1
    56    18    19    2
    57    17    20    1
    58    17    16    1
    59    20    21    1
    60    16    22    1
    61     9     7   ar
    62     9    11   ar
    63    21    22    1
    64     7     6   ar
    65    11    10   ar
    66     1     2    1
    67     6     5    1
    68     6     8   ar
    69    10     8   ar
    70     5     2    1
    71     2     3    1
    72     4     3    2
    73     3    12   am
    74    12    13    1
    75    13    14    1
    76    14    15    2
