@<TRIPOS>MOLECULE
tmp/4rlcA03.pdb
 72 68 0 0 0
SMALL
GASTEIGER

@<TRIPOS>ATOM
      1  N         17.4030   -0.7050   19.3870 N.3    12  GLY12      -0.1210
      2  CA        17.5770   -1.1200   18.0900 C.3    12  GLY12       0.1956
      3  C         17.0920   -2.5900   18.0860 C.2    12  GLY12       0.2612
      4  O         17.3910   -3.3440   18.9980 O.2    12  GLY12      -0.2717
      5  N         16.2270   -2.8800   17.1520 N.am   13  LYS13      -0.1965
      6  CA        15.5320   -4.2240   17.0470 C.3    13  LYS13       0.1728
      7  C         15.6180   -4.7650   15.6260 C.2    13  LYS13       0.2616
      8  O         15.7120   -4.0270   14.6510 O.2    13  LYS13      -0.2715
      9  CB        14.0790   -4.0340   17.4480 C.3    13  LYS13       0.0311
     10  CG        13.8390   -3.4910   18.8060 C.3    13  LYS13       0.0038
     11  CD        12.3570   -3.2130   19.0050 C.3    13  LYS13       0.0206
     12  CE        12.1040   -2.5740   20.3610 C.3    13  LYS13       0.1093
     13  NZ        10.6770   -2.7400   20.8540 N.3    13  LYS13      -0.1314
     14  N         15.6000   -6.1000   15.4650 N.am   14  ARG14      -0.1977
     15  CA        15.7090   -6.6760   14.1850 C.3    14  ARG14       0.1597
     16  C         14.6050   -7.7750   14.1120 C.2    14  ARG14       0.2287
     17  O         14.4080   -8.4930   15.0830 O.2    14  ARG14      -0.2864
     18  CB        17.0900   -7.3600   14.0540 C.3    14  ARG14       0.0334
     19  CG        17.2740   -8.1730   12.7960 C.3    14  ARG14       0.0492
     20  CD        18.7250   -8.6480   12.6140 C.3    14  ARG14       0.2205
     21  NE        19.7010   -7.5430   12.5490 N.pl3  14  ARG14      -0.0865
     22  CZ        20.0100   -6.8190   11.4590 C.cat  14  ARG14       0.5346
     23  NH1       20.9200   -5.8380   11.5540 N.pl3  14  ARG14       0.1354
     24  NH2       19.4040   -7.0280   10.2800 N.pl3  14  ARG14       0.1354
     25  N         15.4890   -3.7160   10.2690 N.3    18  ASP18      -0.1239
     26  CA        15.8760   -3.2240   11.5560 C.3    18  ASP18       0.1674
     27  C         15.0630   -1.9840   11.9230 C.2    18  ASP18       0.2266
     28  O         14.6200   -1.2430   11.0570 O.2    18  ASP18      -0.2867
     29  CB        17.3240   -2.7650   11.5680 C.3    18  ASP18       0.1410
     30  CG        18.3420   -3.9580   11.5310 C.2    18  ASP18       0.3668
     31  OD1       17.9130   -5.1230   11.6450 O.co2  18  ASP18      -0.2456
     32  OD2       19.5680   -3.6740   11.4230 O.co2  18  ASP18      -0.2456
     33  N         15.3710    1.4070   14.5720 N.3    20  TYR20      -0.1241
     34  CA        16.2360    2.0930   15.5020 C.3    20  TYR20       0.1605
     35  C         15.5120    3.3360   16.0190 C.2    20  TYR20       0.2264
     36  O         14.8230    3.9830   15.2600 O.2    20  TYR20      -0.2867
     37  CB        17.4910    2.6380   14.7690 C.3    20  TYR20       0.0534
     38  CG        18.3250    1.6520   14.0080 C.ar   20  TYR20      -0.0201
     39  CD1       18.7330    0.5060   14.5690 C.ar   20  TYR20      -0.0009
     40  CD2       18.6820    1.8880   12.6760 C.ar   20  TYR20      -0.0009
     41  CE1       19.4740   -0.4400   13.8460 C.ar   20  TYR20       0.0417
     42  CE2       19.4490    0.9580   11.9500 C.ar   20  TYR20       0.0417
     43  CZ        19.8260   -0.2030   12.5510 C.ar   20  TYR20       0.1957
     44  OH        20.5410   -1.1480   11.7920 O.3    20  TYR20      -0.2866
     45  N         17.4850   -6.3100   26.9880 N.3   112  ALA112     -0.1231
     46  CA        17.3230   -7.2100   25.8580 C.3   112  ALA112      0.1694
     47  C         15.8410   -7.5460   25.7560 C.2   112  ALA112      0.2592
     48  O         15.2220   -7.7910   26.8000 O.2   112  ALA112     -0.2718
     49  CB        18.0240   -8.5510   26.1700 C.3   112  ALA112      0.0304
     50  N         15.2600   -7.4760   24.5590 N.am  113  SER113     -0.1952
     51  CA        13.8010   -7.5040   24.4030 C.3   113  SER113      0.1924
     52  C         13.3500   -8.4620   23.2980 C.2   113  SER113      0.2314
     53  O         14.0800   -8.6780   22.3180 O.2   113  SER113     -0.2863
     54  CB        13.3390   -6.0390   24.0130 C.3   113  SER113      0.2116
     55  OG        13.9220   -5.5430   22.8010 O.3   113  SER113     -0.2180
     56  N         13.6710   -9.0560   17.9190 N.3   127  ALA127     -0.1231
     57  CA        14.5430   -9.1000   19.0670 C.3   127  ALA127      0.1694
     58  C         15.3740   -7.8310   19.0940 C.2   127  ALA127      0.2593
     59  O         15.7780   -7.3330   18.0740 O.2   127  ALA127     -0.2718
     60  CB        15.5200  -10.2330   18.9480 C.3   127  ALA127      0.0304
     61  N         15.7150   -7.4000   20.2850 N.am  128  GLY128     -0.1942
     62  CA        16.3690   -6.0880   20.3580 C.3   128  GLY128      0.2014
     63  C         17.1800   -5.8810   21.5820 C.2   128  GLY128      0.2638
     64  O         17.1080   -6.6400   22.5510 O.2   128  GLY128     -0.2714
     65  N         17.8820   -4.7270   21.5920 N.am  129  LEU129     -0.1977
     66  CA        18.6850   -4.3240   22.6970 C.3   129  LEU129      0.1596
     67  C         18.3800   -2.8060   22.8900 C.2   129  LEU129      0.2287
     68  O         17.8630   -2.1560   22.0000 O.2   129  LEU129     -0.2864
     69  CB        20.1860   -4.4150   22.4160 C.3   129  LEU129      0.0297
     70  CG        20.7600   -5.8250   22.3700 C.3   129  LEU129      0.0022
     71  CD1       22.2180   -5.7640   21.9360 C.3   129  LEU129      0.0001
     72  CD2       20.7240   -6.4430   23.7060 C.3   129  LEU129      0.0001
@<TRIPOS>BOND
     1    25    26    1
     2    24    22    1
     3    28    27    2
     4    32    30   ar
     5    22    23    1
     6    22    21    2
     7    30    29    1
     8    30    31   ar
     9    26    29    1
    10    26    27    1
    11    44    43    1
    12    42    43   ar
    13    42    40   ar
    14    21    20    1
    15    43    41   ar
    16    20    19    1
    17    40    38   ar
    18    19    18    1
    19    41    39   ar
    20    38    39   ar
    21    38    37    1
    22    18    15    1
    23    16    15    1
    24    16    17    2
    25    15    14    1
    26    33    34    1
    27     8     7    2
    28    37    34    1
    29    36    35    2
    30    14     7   am
    31    34    35    1
    32     7     6    1
    33     6     5    1
    34     6     9    1
    35     5     3   am
    36     9    10    1
    37    56    57    1
    38    59    58    2
    39     3     2    1
    40     3     4    2
    41     2     1    1
    42    10    11    1
    43    60    57    1
    44    11    12    1
    45    57    58    1
    46    58    61   am
    47    61    62    1
    48    62    63    1
    49    12    13    1
    50    63    65   am
    51    63    64    2
    52    65    66    1
    53    71    70    1
    54    68    67    2
    55    53    52    2
    56    70    69    1
    57    70    72    1
    58    69    66    1
    59    66    67    1
    60    55    54    1
    61    52    51    1
    62    54    51    1
    63    51    50    1
    64    50    47   am
    65    47    46    1
    66    47    48    2
    67    46    49    1
    68    46    45    1
