@<TRIPOS>MOLECULE
tmp/4rleA00.pdb
 99 93 0 0 0
SMALL
GASTEIGER

@<TRIPOS>ATOM
      1  N         -8.3890   39.9690  142.4650 N.3     8  MET8       -0.1245
      2  CA        -8.5500   39.3750  141.1370 C.3     8  MET8        0.1570
      3  C         -7.9980   37.9460  141.0610 C.2     8  MET8        0.2261
      4  O         -7.0870   37.5840  141.8040 O.2     8  MET8       -0.2867
      5  CB        -7.8640   40.2430  140.0800 C.3     8  MET8        0.0387
      6  CG        -8.4590   41.6390  139.9580 C.3     8  MET8        0.0595
      7  SD       -10.1280   41.6930  139.2650 S.3     8  MET8       -0.1393
      8  CE        -9.7880   41.3600  137.5370 C.3     8  MET8        0.0692
      9  N         -6.8290   35.0920  137.8060 N.3    10  LEU10      -0.1245
     10  CA        -6.6100   34.9350  136.3830 C.3    10  LEU10       0.1561
     11  C         -6.9870   33.5100  135.9900 C.2    10  LEU10       0.2260
     12  O         -6.3290   32.5490  136.3950 O.2    10  LEU10      -0.2867
     13  CB        -5.1610   35.2360  135.9990 C.3    10  LEU10       0.0270
     14  CG        -4.8900   35.2900  134.4960 C.3    10  LEU10       0.0019
     15  CD1       -5.6950   36.4260  133.8740 C.3    10  LEU10       0.0001
     16  CD2       -3.4060   35.4790  134.2310 C.3    10  LEU10       0.0001
     17  N        -18.5000   37.1680  126.9600 N.3    28  THR28      -0.1218
     18  CA       -18.5430   38.6180  126.8080 C.3    28  THR28       0.1862
     19  C        -19.9840   39.1180  126.9760 C.2    28  THR28       0.2287
     20  O        -20.1920   40.2160  127.4830 O.2    28  THR28      -0.2866
     21  CB       -17.9360   39.0970  125.4610 C.3    28  THR28       0.1770
     22  OG1      -18.6230   38.4940  124.3640 O.3    28  THR28      -0.2211
     23  CG2      -16.4530   38.7410  125.3930 C.3    28  THR28       0.0375
     24  N        -20.5150   40.0080  130.3710 N.3    31  ASN31      -0.1225
     25  CA       -19.6410   41.1060  130.7900 C.3    31  ASN31       0.1785
     26  C        -18.2620   40.6640  131.2700 C.2    31  ASN31       0.2597
     27  O        -17.5360   41.4450  131.8790 O.2    31  ASN31      -0.2718
     28  CB       -20.3080   41.9510  131.8870 C.3    31  ASN31       0.1169
     29  CG       -19.7240   43.3540  131.9800 C.2    31  ASN31       0.2627
     30  OD1      -19.3090   43.9340  130.9740 O.2    31  ASN31      -0.2716
     31  ND2      -19.6750   43.9000  133.1930 N.am   31  ASN31      -0.0877
     32  N        -17.8840   39.4250  130.9910 N.am   32  PHE32      -0.1962
     33  CA       -16.5230   39.0100  131.2910 C.3    32  PHE32       0.1771
     34  C        -15.5590   39.5300  130.2350 C.2    32  PHE32       0.2619
     35  O        -15.9090   39.6870  129.0610 O.2    32  PHE32      -0.2715
     36  CB       -16.4390   37.4930  131.4200 C.3    32  PHE32       0.0574
     37  CG       -17.1220   36.9730  132.6440 C.ar   32  PHE32      -0.0200
     38  CD1      -16.5270   37.0880  133.8870 C.ar   32  PHE32      -0.0042
     39  CD2      -18.3770   36.4060  132.5600 C.ar   32  PHE32      -0.0042
     40  CE1      -17.1660   36.6260  135.0250 C.ar   32  PHE32      -0.0003
     41  CE2      -19.0230   35.9470  133.6900 C.ar   32  PHE32      -0.0003
     42  CZ       -18.4140   36.0590  134.9260 C.ar   32  PHE32      -0.0000
     43  N        -14.3390   39.8090  130.6670 N.am   33  ARG33      -0.1963
     44  CA       -13.3050   40.3350  129.7960 C.3    33  ARG33       0.1729
     45  C        -12.3520   39.2020  129.4600 C.2    33  ARG33       0.2616
     46  O        -11.9300   38.4610  130.3420 O.2    33  ARG33      -0.2715
     47  CB       -12.5950   41.4990  130.4810 C.3    33  ARG33       0.0348
     48  CG       -13.5640   42.4940  131.1200 C.3    33  ARG33       0.0492
     49  CD       -14.5550   42.9720  130.0810 C.3    33  ARG33       0.2205
     50  NE       -15.6370   43.7940  130.6120 N.pl3  33  ARG33      -0.0865
     51  CZ       -15.6470   45.1220  130.5720 C.cat  33  ARG33       0.5346
     52  NH1      -16.6770   45.7940  131.0630 N.pl3  33  ARG33       0.1354
     53  NH2      -14.6220   45.7780  130.0450 N.pl3  33  ARG33       0.1354
     54  N        -12.0290   39.0630  128.1810 N.am   34  VAL34      -0.1963
     55  CA       -11.3230   37.8860  127.6850 C.3    34  VAL34       0.1727
     56  C        -10.2000   38.2540  126.7330 C.2    34  VAL34       0.2616
     57  O        -10.3680   39.1240  125.8790 O.2    34  VAL34      -0.2715
     58  CB       -12.2960   36.9200  126.9420 C.3    34  VAL34       0.0290
     59  CG1      -11.5660   35.7020  126.4140 C.3    34  VAL34       0.0023
     60  CG2      -13.4660   36.5140  127.8200 C.3    34  VAL34       0.0023
     61  N         -9.0670   37.5690  126.8820 N.am   35  THR35      -0.1951
     62  CA        -8.0190   37.5670  125.8780 C.3    35  THR35       0.1897
     63  C         -7.8650   36.1390  125.3820 C.2    35  THR35       0.2313
     64  O         -7.7790   35.2130  126.1780 O.2    35  THR35      -0.2863
     65  CB        -6.6930   38.0880  126.4440 C.3    35  THR35       0.1794
     66  OG1       -6.8810   39.4330  126.8830 O.3    35  THR35      -0.2208
     67  CG2       -5.5850   38.0580  125.4110 C.3    35  THR35       0.0378
     68  N         -7.7780   33.5460  128.4330 N.3    52  MET52      -0.1245
     69  CA        -7.2630   34.1560  129.6440 C.3    52  MET52       0.1570
     70  C         -8.2900   35.1760  130.1240 C.2    52  MET52       0.2261
     71  O         -8.5670   36.1600  129.4330 O.2    52  MET52      -0.2867
     72  CB        -5.9170   34.8080  129.3760 C.3    52  MET52       0.0387
     73  CG        -5.3150   35.4340  130.5720 C.3    52  MET52       0.0595
     74  SD        -3.7110   36.1570  130.2260 S.3    52  MET52      -0.1393
     75  CE        -4.1760   37.6000  129.2630 C.3    52  MET52       0.0692
     76  N         -9.4000   37.5070  133.2940 N.3    54  GLY54      -0.1225
     77  CA        -9.1340   38.1150  134.5900 C.3    54  GLY54       0.1811
     78  C        -10.4600   38.4990  135.2040 C.2    54  GLY54       0.2280
     79  O        -11.2160   39.2810  134.6350 O.2    54  GLY54      -0.2866
     80  N         -3.3960   43.9920  140.1520 N.3   113  PHE113     -0.1241
     81  CA        -4.1340   44.1750  138.9140 C.3   113  PHE113      0.1605
     82  C         -4.1570   45.6540  138.5980 C.2   113  PHE113      0.2264
     83  O         -4.5360   46.4580  139.4440 O.2   113  PHE113     -0.2867
     84  CB        -5.5570   43.6210  139.0380 C.3   113  PHE113      0.0534
     85  CG        -6.4210   43.8830  137.8370 C.ar  113  PHE113     -0.0203
     86  CD1       -7.4600   44.7980  137.9010 C.ar  113  PHE113     -0.0042
     87  CD2       -6.1910   43.2210  136.6450 C.ar  113  PHE113     -0.0042
     88  CE1       -8.2620   45.0350  136.8000 C.ar  113  PHE113     -0.0003
     89  CE2       -6.9840   43.4620  135.5340 C.ar  113  PHE113     -0.0003
     90  CZ        -8.0230   44.3700  135.6110 C.ar  113  PHE113     -0.0000
     91  N         -5.1290   48.6790  135.5190 N.3   115  GLN115     -0.1245
     92  CA        -5.6220   49.1220  134.2260 C.3   115  GLN115      0.1566
     93  C         -5.0490   50.5030  133.9600 C.2   115  GLN115      0.2260
     94  O         -5.4530   51.4770  134.5870 O.2   115  GLN115     -0.2867
     95  CB        -7.1470   49.1490  134.1930 C.3   115  GLN115      0.0367
     96  CG        -7.7970   47.7910  134.3860 C.3   115  GLN115      0.0905
     97  CD        -9.2670   47.8980  134.7580 C.2   115  GLN115      0.2608
     98  OE1       -9.6210   48.4410  135.8110 O.2   115  GLN115     -0.2717
     99  NE2      -10.1310   47.3820  133.8940 N.am  115  GLN115     -0.0878
@<TRIPOS>BOND
     1    22    21    1
     2    63    62    1
     3    63    64    2
     4    23    21    1
     5    67    65    1
     6    21    18    1
     7    62    65    1
     8    62    61    1
     9    57    56    2
    10    59    58    1
    11    65    66    1
    12    56    61   am
    13    56    55    1
    14    18    17    1
    15    18    19    1
    16    58    55    1
    17    58    60    1
    18    19    20    2
    19    55    54    1
    20    54    45   am
    21    68    69    1
    22    35    34    2
    23    75    74    1
    24    72    69    1
    25    72    73    1
    26    71    70    2
    27    45    44    1
    28    45    46    2
    29    69    70    1
    30    44    47    1
    31    44    43    1
    32    53    51    1
    33    49    50    1
    34    49    48    1
    35    74    73    1
    36    34    43   am
    37    34    33    1
    38    24    25    1
    39    47    48    1
    40    51    50    2
    41    51    52    1
    42    25    26    1
    43    25    28    1
    44    30    29    2
    45    32    26   am
    46    32    33    1
    47    26    27    2
    48    33    36    1
    49    36    37    1
    50    28    29    1
    51    29    31   am
    52    39    37   ar
    53    39    41   ar
    54    37    38   ar
    55    76    77    1
    56    41    42   ar
    57    15    14    1
    58    38    40   ar
    59    99    97   am
    60    93    92    1
    61    93    94    2
    62    95    92    1
    63    95    96    1
    64    92    91    1
    65    16    14    1
    66    96    97    1
    67    14    13    1
    68    77    78    1
    69    79    78    2
    70    97    98    2
    71    42    40   ar
    72    89    90   ar
    73    89    87   ar
    74    90    88   ar
    75    11    10    1
    76    11    12    2
    77    13    10    1
    78    10     9    1
    79    87    85   ar
    80    88    86   ar
    81     8     7    1
    82    85    86   ar
    83    85    84    1
    84    82    81    1
    85    82    83    2
    86    81    84    1
    87    81    80    1
    88     7     6    1
    89     6     5    1
    90     5     2    1
    91     3     2    1
    92     3     4    2
    93     2     1    1
