@<TRIPOS>MOLECULE
tmp/4rlfB00.pdb
 106 102 0 0 0
SMALL
GASTEIGER

@<TRIPOS>ATOM
      1  N          1.3580   -0.3960   72.1180 N.3   222  ALA222     -0.1231
      2  CA         1.5150    0.5100   73.2230 C.3   222  ALA222      0.1694
      3  C          0.9580   -0.0970   74.5100 C.2   222  ALA222      0.2592
      4  O          1.6090   -0.0040   75.5760 O.2   222  ALA222     -0.2718
      5  CB         0.8050    1.7980   72.8780 C.3   222  ALA222      0.0304
      6  N         -0.2200   -0.7100   74.4410 N.am  223  TYR223     -0.1976
      7  CA        -0.7850   -1.3560   75.6400 C.3   223  TYR223      0.1639
      8  C          0.2080   -2.4000   76.2550 C.2   223  TYR223      0.2290
      9  O          0.5070   -2.3360   77.4610 O.2   223  TYR223     -0.2864
     10  CB        -2.1240   -2.0160   75.2640 C.3   223  TYR223      0.0560
     11  CG        -2.9140   -2.7250   76.3280 C.ar  223  TYR223     -0.0198
     12  CD1       -3.1880   -2.1310   77.5550 C.ar  223  TYR223     -0.0009
     13  CD2       -3.4450   -4.0010   76.0830 C.ar  223  TYR223     -0.0009
     14  CE1       -3.9300   -2.8040   78.5130 C.ar  223  TYR223      0.0417
     15  CE2       -4.1540   -4.6650   77.0400 C.ar  223  TYR223      0.0417
     16  CZ        -4.4150   -4.0870   78.2380 C.ar  223  TYR223      0.1957
     17  OH        -5.1410   -4.7870   79.2130 O.3   223  TYR223     -0.2866
     18  N         -7.9520   -3.9210   77.3890 N.3   297  ALA297     -0.1231
     19  CA        -7.9980   -2.7590   76.4730 C.3   297  ALA297      0.1694
     20  C         -8.0350   -3.2530   75.0200 C.2   297  ALA297      0.2592
     21  O         -7.6900   -4.4270   74.7540 O.2   297  ALA297     -0.2718
     22  CB        -6.7780   -1.9130   76.6830 C.3   297  ALA297      0.0304
     23  N         -8.2040   -2.3350   74.0770 N.am  298  GLY298     -0.1957
     24  CA        -8.0590   -2.6960   72.6370 C.3   298  GLY298      0.1869
     25  C         -9.4270   -2.5860   71.9500 C.2   298  GLY298      0.2309
     26  O         -9.5200   -2.2810   70.7630 O.2   298  GLY298     -0.2863
     27  N         -9.8940   -0.2620   80.4810 N.3   320  GLY320     -0.1210
     28  CA        -9.5210    1.1040   80.2320 C.3   320  GLY320      0.1956
     29  C         -9.2140    1.3580   78.7600 C.2   320  GLY320      0.2612
     30  O         -9.0870    0.4040   77.9790 O.2   320  GLY320     -0.2717
     31  N         -9.2470    2.6240   78.3920 N.am  321  ILE321     -0.1965
     32  CA        -8.8550    3.0380   77.0280 C.3   321  ILE321      0.1727
     33  C         -7.6500    3.9170   77.0330 C.2   321  ILE321      0.2617
     34  O         -7.5080    4.8150   77.8330 O.2   321  ILE321     -0.2715
     35  CB       -10.0530    3.6720   76.2980 C.3   321  ILE321      0.0290
     36  CG1       -9.6760    3.8590   74.8690 C.3   321  ILE321      0.0022
     37  CG2      -10.4850    4.9730   77.0020 C.3   321  ILE321      0.0023
     38  CD1      -10.8480    4.2550   74.0000 C.3   321  ILE321      0.0001
     39  N         -6.7710    3.6570   76.0670 N.am  322  GLY322     -0.1940
     40  CA        -5.5810    4.4550   75.8160 C.3   322  GLY322      0.2014
     41  C         -5.5490    4.7840   74.3220 C.2   322  GLY322      0.2640
     42  O         -6.5340    4.5700   73.5820 O.2   322  GLY322     -0.2714
     43  N         -4.4220    5.2840   73.8370 N.am  323  SER323     -0.1935
     44  CA        -4.1940    5.3150   72.3730 C.3   323  SER323      0.2055
     45  C         -2.6960    5.2410   72.1650 C.2   323  SER323      0.2643
     46  O         -1.8710    5.5660   73.0660 O.2   323  SER323     -0.2714
     47  CB        -4.7700    6.6230   71.7540 C.3   323  SER323      0.2130
     48  OG        -4.0360    7.7820   72.2580 O.3   323  SER323     -0.2179
     49  N         -2.2870    4.9450   70.9280 N.am  324  THR324     -0.1950
     50  CA        -0.8940    5.0010   70.6360 C.3   324  THR324      0.1897
     51  C         -0.2570    6.3990   70.9500 C.2   324  THR324      0.2313
     52  O          0.8850    6.5120   71.4460 O.2   324  THR324     -0.2863
     53  CB        -0.6660    4.6120   69.1760 C.3   324  THR324      0.1794
     54  OG1       -1.2470    3.3070   68.9620 O.3   324  THR324     -0.2208
     55  CG2        0.7510    4.4630   68.9110 C.3   324  THR324      0.0378
     56  N          0.1850    6.9100   74.6160 N.3   327  LEU327     -0.1231
     57  CA         1.1090    5.8460   75.0720 C.3   327  LEU327      0.1693
     58  C          0.4820    4.7520   75.9300 C.2   327  LEU327      0.2592
     59  O          0.7890    3.5440   75.7680 O.2   327  LEU327     -0.2718
     60  CB         2.3570    6.4000   75.7350 C.3   327  LEU327      0.0284
     61  CG         3.5210    5.3790   75.9700 C.3   327  LEU327      0.0019
     62  CD1        3.8760    4.5700   74.7470 C.3   327  LEU327      0.0001
     63  CD2        4.7190    6.0620   76.5940 C.3   327  LEU327      0.0001
     64  N         -0.4070    5.1180   76.8340 N.am  328  HIS328     -0.1962
     65  CA        -1.1290    4.1440   77.6190 C.3   328  HIS328      0.1787
     66  C         -2.5130    4.7050   78.0700 C.2   328  HIS328      0.2620
     67  O         -3.0190    5.6890   77.5280 O.2   328  HIS328     -0.2715
     68  CB        -0.2560    3.5280   78.7620 C.3   328  HIS328      0.0785
     69  CG        -0.5830    2.0810   79.0540 C.ar  328  HIS328      0.0821
     70  ND1       -1.6380    1.6690   79.8520 N.ar  328  HIS328     -0.2267
     71  CD2       -0.0320    0.9380   78.5590 C.ar  328  HIS328      0.1154
     72  CE1       -1.6640    0.3470   79.8910 C.ar  328  HIS328      0.1986
     73  NE2       -0.6700   -0.1200   79.1450 N.ar  328  HIS328     -0.2212
     74  N         -3.1010    4.0680   79.0420 N.am  329  ILE329     -0.1977
     75  CA        -4.5000    4.2670   79.4080 C.3   329  ILE329      0.1596
     76  C         -4.7110    5.5780   80.1430 C.2   329  ILE329      0.2287
     77  O         -3.9900    5.8910   81.0910 O.2   329  ILE329     -0.2864
     78  CB        -5.0400    3.0500   80.1680 C.3   329  ILE329      0.0276
     79  CG1       -5.1690    1.8750   79.2060 C.3   329  ILE329      0.0022
     80  CG2       -6.4030    3.3160   80.8490 C.3   329  ILE329      0.0022
     81  CD1       -5.4570    0.5670   79.9210 C.3   329  ILE329      0.0001
     82  N        -11.9100   -1.5710   65.4520 N.3   422  LYS422     -0.1245
     83  CA       -11.0490   -2.2620   66.4490 C.3   422  LYS422      0.1561
     84  C        -11.4960   -3.7070   66.4650 C.2   422  LYS422      0.2260
     85  O        -12.5940   -4.0340   66.9080 O.2   422  LYS422     -0.2867
     86  CB       -11.1480   -1.6460   67.8300 C.3   422  LYS422      0.0271
     87  CG       -10.7280   -0.1830   67.9050 C.3   422  LYS422      0.0035
     88  CD        -9.2300   -0.0100   67.7020 C.3   422  LYS422      0.0206
     89  CE        -8.6120    1.0350   68.6410 C.3   422  LYS422      0.1093
     90  NZ        -8.2460    0.4680   69.9910 N.3   422  LYS422     -0.1314
     91  N         -9.1370   -6.3230   69.1790 N.3   425  GLY425     -0.1225
     92  CA        -8.2830   -5.3980   69.8240 C.3   425  GLY425      0.1811
     93  C         -7.3220   -4.6200   68.9980 C.2   425  GLY425      0.2280
     94  O         -6.6090   -3.8290   69.5760 O.2   425  GLY425     -0.2866
     95  N         -6.4820   -2.0630   65.5950 N.3   427  TYR427     -0.1241
     96  CA        -7.0960   -0.9450   64.7840 C.3   427  TYR427      0.1605
     97  C         -6.9250   -1.3740   63.3260 C.2   427  TYR427      0.2264
     98  O         -5.8510   -1.7180   62.9410 O.2   427  TYR427     -0.2867
     99  CB        -6.4220    0.4480   65.0720 C.3   427  TYR427      0.0534
    100  CG        -4.9080    0.4220   65.2470 C.ar  427  TYR427     -0.0201
    101  CD1       -4.0490    0.3210   64.1450 C.ar  427  TYR427     -0.0009
    102  CD2       -4.2920    0.5650   66.5020 C.ar  427  TYR427     -0.0009
    103  CE1       -2.6610    0.3140   64.2990 C.ar  427  TYR427      0.0417
    104  CE2       -2.8930    0.5240   66.6030 C.ar  427  TYR427      0.0417
    105  CZ        -2.0570    0.4110   65.4940 C.ar  427  TYR427      0.1957
    106  OH        -0.7090    0.3780   65.7320 O.3   427  TYR427     -0.2866
@<TRIPOS>BOND
     1    98    97    2
     2    97    96    1
     3   101   103   ar
     4   101   100   ar
     5   103   105   ar
     6    96    99    1
     7    96    95    1
     8    99   100    1
     9   100   102   ar
    10    82    83    1
    11   105   106    1
    12   105   104   ar
    13    83    84    1
    14    83    86    1
    15    84    85    2
    16   102   104   ar
    17    88    87    1
    18    88    89    1
    19    86    87    1
    20    89    90    1
    21    55    53    1
    22    54    53    1
    23    93    94    2
    24    93    92    1
    25    53    50    1
    26    91    92    1
    27    50    49    1
    28    50    51    1
    29    26    25    2
    30    49    45   am
    31    51    52    2
    32    47    48    1
    33    47    44    1
    34    25    24    1
    35     1     2    1
    36    45    44    1
    37    45    46    2
    38    44    43    1
    39    24    23    1
    40     5     2    1
    41     2     3    1
    42    42    41    2
    43    43    41   am
    44    38    36    1
    45    23    20   am
    46    41    40    1
    47     6     3   am
    48     6     7    1
    49     3     4    2
    50    56    57    1
    51    62    61    1
    52    21    20    2
    53    36    35    1
    54    20    19    1
    55    57    60    1
    56    57    58    1
    57    10     7    1
    58    10    11    1
    59     7     8    1
    60    60    61    1
    61    59    58    2
    62    40    39    1
    63    58    64   am
    64    61    63    1
    65    39    33   am
    66    13    11   ar
    67    13    15   ar
    68     8     9    2
    69    35    37    1
    70    35    32    1
    71    11    12   ar
    72    19    22    1
    73    19    18    1
    74    64    65    1
    75    32    33    1
    76    32    31    1
    77    33    34    2
    78    15    16   ar
    79    67    66    2
    80    12    14   ar
    81    65    66    1
    82    65    68    1
    83    30    29    2
    84    66    74   am
    85    16    14   ar
    86    16    17    1
    87    31    29   am
    88    71    69   ar
    89    71    73   ar
    90    29    28    1
    91    68    69    1
    92    74    75    1
    93    69    70   ar
    94    73    72   ar
    95    79    81    1
    96    79    78    1
    97    75    76    1
    98    75    78    1
    99    70    72   ar
   100    76    77    2
   101    78    80    1
   102    28    27    1
