@<TRIPOS>MOLECULE
tmp/4rlfB01.pdb
 99 95 0 0 0
SMALL
GASTEIGER

@<TRIPOS>ATOM
      1  N         -1.1760  -10.7830   77.0450 N.3   216  ALA216     -0.1231
      2  CA        -1.4220  -11.4460   75.7800 C.3   216  ALA216      0.1694
      3  C         -1.1910  -10.3990   74.6750 C.2   216  ALA216      0.2591
      4  O         -0.8170  -10.7540   73.5290 O.2   216  ALA216     -0.2718
      5  CB        -2.8530  -11.9430   75.6810 C.3   216  ALA216      0.0304
      6  N         -1.2410   -9.1060   75.0460 N.am  217  ALA217     -0.1980
      7  CA        -0.9390   -8.0750   74.0860 C.3   217  ALA217      0.1597
      8  C          0.6040   -8.0080   73.9940 C.2   217  ALA217      0.2287
      9  O          1.2720   -7.7760   74.9990 O.2   217  ALA217     -0.2864
     10  CB        -1.4800   -6.7180   74.5240 C.3   217  ALA217      0.0319
     11  N         -1.3550  -15.6770   70.9370 N.3   246  PRO246     -0.2102
     12  CA        -2.2230  -16.0260   72.1080 C.3   246  PRO246      0.1504
     13  C         -3.4950  -16.7650   71.6920 C.2   246  PRO246      0.2576
     14  O         -4.1350  -16.4200   70.7040 O.2   246  PRO246     -0.2718
     15  CB        -2.5420  -14.6770   72.7660 C.3   246  PRO246      0.0282
     16  CG        -2.2590  -13.6620   71.6980 C.3   246  PRO246      0.0208
     17  CD        -1.2920  -14.2210   70.7000 C.3   246  PRO246      0.0893
     18  N         -3.6960  -17.9390   72.2620 N.am  247  THR247     -0.1940
     19  CA        -4.9220  -18.6700   72.1520 C.3   247  THR247      0.2013
     20  C         -5.2880  -19.0610   73.5610 C.2   247  THR247      0.2484
     21  O         -4.4060  -18.9890   74.4450 O.2   247  THR247     -0.2729
     22  CB        -4.7040  -19.9730   71.3680 C.3   247  THR247      0.1807
     23  OG1       -3.7650  -20.7930   72.0670 O.3   247  THR247     -0.2208
     24  CG2       -4.1890  -19.6380   69.9410 C.3   247  THR247      0.0379
     25  N         -6.5310  -19.5220   73.7600 N.am  248  PRO248     -0.2726
     26  CA        -6.9090  -19.9520   75.1310 C.3   248  PRO248      0.1402
     27  C         -5.9830  -20.9880   75.7240 C.2   248  PRO248      0.2269
     28  O         -5.5200  -20.7970   76.8660 O.2   248  PRO248     -0.2865
     29  CB        -8.3350  -20.4210   74.9390 C.3   248  PRO248      0.0296
     30  CG        -8.8690  -19.5180   73.8680 C.3   248  PRO248      0.0237
     31  CD        -7.7330  -19.4070   72.9020 C.3   248  PRO248      0.0939
     32  N         -2.5750  -19.3960   76.7100 N.3   251  VAL251     -0.1245
     33  CA        -2.7520  -18.5080   77.8810 C.3   251  VAL251      0.1561
     34  C         -2.9760  -19.3370   79.1440 C.2   251  VAL251      0.2260
     35  O         -2.3470  -19.1120   80.1210 O.2   251  VAL251     -0.2867
     36  CB        -3.8750  -17.5140   77.6770 C.3   251  VAL251      0.0252
     37  CG1       -4.1890  -16.7970   78.9590 C.3   251  VAL251      0.0019
     38  CG2       -3.4560  -16.5360   76.5730 C.3   251  VAL251      0.0019
     39  N         -2.8970  -10.3600   84.5890 N.3   267  PHE267     -0.1241
     40  CA        -3.0950  -10.6800   83.1700 C.3   267  PHE267      0.1605
     41  C         -3.6990   -9.4940   82.4680 C.2   267  PHE267      0.2264
     42  O         -4.4990   -8.7370   83.0580 O.2   267  PHE267     -0.2867
     43  CB        -4.0140  -11.8860   82.9880 C.3   267  PHE267      0.0534
     44  CG        -4.2670  -12.2330   81.5830 C.ar  267  PHE267     -0.0203
     45  CD1       -3.2370  -12.7700   80.7690 C.ar  267  PHE267     -0.0042
     46  CD2       -5.5360  -12.0050   81.0430 C.ar  267  PHE267     -0.0042
     47  CE1       -3.4980  -13.0580   79.4390 C.ar  267  PHE267     -0.0003
     48  CE2       -5.7880  -12.2550   79.7430 C.ar  267  PHE267     -0.0003
     49  CZ        -4.8100  -12.8180   78.9480 C.ar  267  PHE267     -0.0000
     50  N         -5.2300   -8.3510   78.4480 N.3   269  GLY269     -0.1210
     51  CA        -5.5560   -8.7900   77.1260 C.3   269  GLY269      0.1956
     52  C         -6.7770   -8.1130   76.5490 C.2   269  GLY269      0.2611
     53  O         -7.3830   -7.2870   77.1870 O.2   269  GLY269     -0.2717
     54  N         -7.1180   -8.4370   75.3030 N.am  270  ALA270     -0.1979
     55  CA        -8.2910   -7.8370   74.6410 C.3   270  ALA270      0.1597
     56  C         -9.5950   -8.5640   75.0230 C.2   270  ALA270      0.2287
     57  O         -9.5550   -9.7780   75.2800 O.2   270  ALA270     -0.2864
     58  CB        -8.1130   -7.8750   73.1300 C.3   270  ALA270      0.0319
     59  N        -11.8260   -9.6440   73.2140 N.3   272  THR272     -0.1203
     60  CA       -11.9610  -10.8110   72.3490 C.3   272  THR272      0.1994
     61  C        -11.3080  -12.0450   72.9440 C.2   272  THR272      0.2618
     62  O        -11.8810  -13.1330   72.9060 O.2   272  THR272     -0.2717
     63  CB       -11.4080  -10.4890   70.9040 C.3   272  THR272      0.1784
     64  OG1      -12.3250   -9.5670   70.2960 O.3   272  THR272     -0.2211
     65  CG2      -11.3090  -11.7990   70.0880 C.3   272  THR272      0.0376
     66  N        -10.1070  -11.8850   73.5120 N.am  273  GLY273     -0.1942
     67  CA        -9.3820  -12.9980   74.1260 C.3   273  GLY273      0.2014
     68  C        -10.1170  -13.4870   75.4090 C.2   273  GLY273      0.2638
     69  O        -10.1960  -14.7220   75.6490 O.2   273  GLY273     -0.2714
     70  N        -10.6260  -12.5750   76.2210 N.am  274  TYR274     -0.1973
     71  CA       -11.3860  -13.0040   77.4030 C.3   274  TYR274      0.1639
     72  C        -12.6860  -13.7900   76.9920 C.2   274  TYR274      0.2290
     73  O        -12.9990  -14.8080   77.6100 O.2   274  TYR274     -0.2864
     74  CB       -11.8280  -11.8120   78.2570 C.3   274  TYR274      0.0560
     75  CG       -10.7290  -11.1930   79.0720 C.ar  274  TYR274     -0.0198
     76  CD1      -10.3140  -11.7640   80.2910 C.ar  274  TYR274     -0.0009
     77  CD2      -10.0520  -10.0400   78.6420 C.ar  274  TYR274     -0.0009
     78  CE1       -9.2550  -11.2050   81.0510 C.ar  274  TYR274      0.0417
     79  CE2       -9.0560   -9.4510   79.4180 C.ar  274  TYR274      0.0417
     80  CZ        -8.6740  -10.0300   80.6490 C.ar  274  TYR274      0.1957
     81  OH        -7.6920   -9.5030   81.4590 O.3   274  TYR274     -0.2866
     82  N        -13.1300  -15.6170   74.2810 N.3   276  GLY276     -0.1210
     83  CA       -12.7350  -16.8870   73.7930 C.3   276  GLY276      0.1956
     84  C        -12.3450  -17.8070   74.9220 C.2   276  GLY276      0.2611
     85  O        -12.5850  -19.0560   74.8780 O.2   276  GLY276     -0.2717
     86  N        -11.6390  -17.2480   75.9110 N.am  277  MET277     -0.1979
     87  CA       -11.2930  -18.0460   77.0980 C.3   277  MET277      0.1605
     88  C        -12.5390  -18.5190   77.8610 C.2   277  MET277      0.2287
     89  O        -12.5960  -19.6890   78.3130 O.2   277  MET277     -0.2864
     90  CB       -10.3340  -17.2610   78.0020 C.3   277  MET277      0.0413
     91  CG        -8.9480  -17.1720   77.3850 C.3   277  MET277      0.0598
     92  SD        -7.6980  -16.5090   78.4760 S.3   277  MET277     -0.1393
     93  CE        -8.3580  -14.8430   78.7040 C.3   277  MET277      0.0692
     94  N        -10.6180   -7.5710   67.3210 N.3   424  SER424     -0.1217
     95  CA        -9.8340   -8.4120   68.2370 C.3   424  SER424      0.1889
     96  C         -8.8150   -7.5920   68.9890 C.2   424  SER424      0.2288
     97  O         -7.7260   -8.0410   69.2770 O.2   424  SER424     -0.2866
     98  CB        -9.1350   -9.5450   67.4540 C.3   424  SER424      0.2089
     99  OG       -10.0770  -10.2180   66.6220 O.3   424  SER424     -0.2183
@<TRIPOS>BOND
     1    99    98    1
     2    94    95    1
     3    98    95    1
     4    95    96    1
     5    96    97    2
     6    24    22    1
     7    65    63    1
     8    64    63    1
     9    17    11    1
    10    17    16    1
    11    14    13    2
    12    63    60    1
    13    11    12    1
    14    22    23    1
    15    22    19    1
    16    13    12    1
    17    13    18   am
    18    16    15    1
    19    12    15    1
    20    19    18    1
    21    19    20    1
    22    60    61    1
    23    60    59    1
    24    31    25    1
    25    31    30    1
    26    62    61    2
    27    61    66   am
    28    58    55    1
    29    66    67    1
    30     4     3    2
    31    20    25   am
    32    20    21    2
    33    25    26    1
    34    83    82    1
    35    83    84    1
    36    30    29    1
    37     8     7    1
    38     8     9    2
    39     7    10    1
    40     7     6    1
    41    67    68    1
    42    55    56    1
    43    55    54    1
    44     3     6   am
    45     3     2    1
    46    85    84    2
    47    84    86   am
    48    29    26    1
    49    56    57    2
    50    26    27    1
    51    54    52   am
    52    68    69    2
    53    68    70   am
    54     5     2    1
    55    27    28    2
    56     2     1    1
    57    86    87    1
    58    70    71    1
    59    52    51    1
    60    52    53    2
    61    38    36    1
    62    32    33    1
    63    72    71    1
    64    72    73    2
    65    87    88    1
    66    87    90    1
    67    51    50    1
    68    91    90    1
    69    91    92    1
    70    71    74    1
    71    36    33    1
    72    36    37    1
    73    88    89    2
    74    33    34    1
    75    74    75    1
    76    92    93    1
    77    77    75   ar
    78    77    79   ar
    79    49    47   ar
    80    49    48   ar
    81    75    76   ar
    82    34    35    2
    83    79    80   ar
    84    47    45   ar
    85    48    46   ar
    86    76    78   ar
    87    80    78   ar
    88    80    81    1
    89    45    44   ar
    90    46    44   ar
    91    44    43    1
    92    41    42    2
    93    41    40    1
    94    43    40    1
    95    40    39    1
