@<TRIPOS>MOLECULE
tmp/4rlgC01.pdb
 78 76 0 0 0
SMALL
GASTEIGER

@<TRIPOS>ATOM
      1  N         33.4890  -14.5250   71.8950 N.3   171  ALA171     -0.1231
      2  CA        33.7850  -14.7580   70.5000 C.3   171  ALA171      0.1694
      3  C         35.2200  -15.2280   70.4010 C.2   171  ALA171      0.2593
      4  O         35.9860  -14.9880   71.3170 O.2   171  ALA171     -0.2718
      5  CB        33.5610  -13.4420   69.6560 C.3   171  ALA171      0.0304
      6  N         35.5670  -15.9200   69.3260 N.am  172  SER172     -0.1938
      7  CA        36.9570  -16.3110   69.0760 C.3   172  SER172      0.2055
      8  C         37.9250  -15.1360   69.0570 C.2   172  SER172      0.2643
      9  O         37.5780  -14.0320   68.5730 O.2   172  SER172     -0.2714
     10  CB        37.0460  -17.0440   67.7530 C.3   172  SER172      0.2130
     11  OG        38.3920  -17.2860   67.4200 O.3   172  SER172     -0.2179
     12  N         39.1400  -15.3400   69.5700 N.am  173  GLU173     -0.1963
     13  CA        40.1800  -14.2990   69.4730 C.3   173  GLU173      0.1733
     14  C         40.4900  -14.0190   68.0070 C.2   173  GLU173      0.2616
     15  O         41.1160  -13.0130   67.7060 O.2   173  GLU173     -0.2715
     16  CB        41.4780  -14.6920   70.2310 C.3   173  GLU173      0.0429
     17  CG        42.1180  -15.9840   69.7300 C.3   173  GLU173      0.1163
     18  CD        43.3010  -16.4390   70.6080 C.2   173  GLU173      0.3649
     19  OE1       43.8600  -15.5860   71.3420 O.co2 173  GLU173     -0.2457
     20  OE2       43.6280  -17.6470   70.6010 O.co2 173  GLU173     -0.2457
     21  N         40.0320  -14.8760   67.0870 N.am  174  ALA174     -0.1963
     22  CA        40.0740  -14.5270   65.6490 C.3   174  ALA174      0.1728
     23  C         38.7850  -13.8340   65.0570 C.2   174  ALA174      0.2616
     24  O         38.7250  -13.5590   63.8760 O.2   174  ALA174     -0.2715
     25  CB        40.4160  -15.8200   64.8700 C.3   174  ALA174      0.0334
     26  N         37.7920  -13.5240   65.8720 N.am  175  ALA175     -0.1963
     27  CA        36.5320  -12.9500   65.3790 C.3   175  ALA175      0.1728
     28  C         36.5430  -11.4570   64.9900 C.2   175  ALA175      0.2616
     29  O         37.3590  -10.7360   65.4030 O.2   175  ALA175     -0.2715
     30  CB        35.3950  -13.2110   66.3370 C.3   175  ALA175      0.0334
     31  N         35.5640  -11.0600   64.1890 N.am  176  HIS176     -0.1959
     32  CA        35.5360   -9.7410   63.5270 C.3   176  HIS176      0.1787
     33  C         35.3850   -8.5530   64.4620 C.2   176  HIS176      0.2620
     34  O         34.6720   -8.6150   65.4200 O.2   176  HIS176     -0.2715
     35  CB        34.5030   -9.7310   62.4220 C.3   176  HIS176      0.0785
     36  CG        34.6520   -8.6130   61.4410 C.ar  176  HIS176      0.0821
     37  ND1       33.9880   -7.4210   61.5830 N.ar  176  HIS176     -0.2267
     38  CD2       35.3170   -8.5310   60.2670 C.ar  176  HIS176      0.1154
     39  CE1       34.2710   -6.6400   60.5670 C.ar  176  HIS176      0.1986
     40  NE2       35.0940   -7.2770   59.7690 N.ar  176  HIS176     -0.2212
     41  N         36.1020   -7.4880   64.1820 N.am  177  THR177     -0.1951
     42  CA        36.0740   -6.2800   64.9850 C.3   177  THR177      0.1897
     43  C         34.6460   -5.6810   65.0750 C.2   177  THR177      0.2313
     44  O         34.3800   -4.8320   65.9010 O.2   177  THR177     -0.2863
     45  CB        37.0600   -5.1880   64.4190 C.3   177  THR177      0.1794
     46  OG1       36.7190   -4.8630   63.0920 O.3   177  THR177     -0.2208
     47  CG2       38.4820   -5.6740   64.3530 C.3   177  THR177      0.0378
     48  N         32.3030   -6.8910   66.1450 N.3   179  LEU179     -0.1231
     49  CA        31.7720   -7.2770   67.4190 C.3   179  LEU179      0.1693
     50  C         32.1470   -6.2170   68.4460 C.2   179  LEU179      0.2591
     51  O         31.2660   -5.7960   69.1840 O.2   179  LEU179     -0.2718
     52  CB        32.2280   -8.6790   67.8830 C.3   179  LEU179      0.0284
     53  CG        31.8140   -9.7950   66.9220 C.3   179  LEU179      0.0019
     54  CD1       32.1060  -11.1650   67.5590 C.3   179  LEU179      0.0001
     55  CD2       30.3550   -9.7140   66.4990 C.3   179  LEU179      0.0001
     56  N         33.3810   -5.7780   68.4970 N.am  180  GLN180     -0.1979
     57  CA        33.7650   -4.7450   69.4480 C.3   180  GLN180      0.1601
     58  C         33.0230   -3.4380   69.1860 C.2   180  GLN180      0.2287
     59  O         32.5720   -2.8310   70.0850 O.2   180  GLN180     -0.2864
     60  CB        35.2600   -4.4870   69.5010 C.3   180  GLN180      0.0394
     61  CG        36.0490   -5.4820   70.3380 C.3   180  GLN180      0.0908
     62  CD        37.5730   -5.2910   70.3520 C.2   180  GLN180      0.2608
     63  OE1       38.1770   -4.6530   69.5060 O.2   180  GLN180     -0.2717
     64  NE2       38.2070   -5.9480   71.2950 N.am  180  GLN180     -0.0878
     65  N         33.3720   -7.8500   74.9670 N.3   192  VAL192     -0.1245
     66  CA        33.6030   -8.9670   74.0400 C.3   192  VAL192      0.1561
     67  C         34.7830   -9.7660   74.5910 C.2   192  VAL192      0.2260
     68  O         35.9180   -9.3450   74.4770 O.2   192  VAL192     -0.2867
     69  CB        33.9360   -8.5200   72.6100 C.3   192  VAL192      0.0252
     70  CG1       34.1090   -9.7590   71.6450 C.3   192  VAL192      0.0019
     71  CG2       32.8210   -7.5820   72.0620 C.3   192  VAL192      0.0019
     72  N         37.3980  -12.5950   74.4690 N.3   194  PRO194     -0.2116
     73  CA        37.9850  -13.4740   73.4430 C.3   194  PRO194      0.1372
     74  C         38.2050  -14.8820   73.9590 C.2   194  PRO194      0.2244
     75  O         38.5930  -15.0690   75.1050 O.2   194  PRO194     -0.2868
     76  CB        39.3360  -12.8080   73.1090 C.3   194  PRO194      0.0268
     77  CG        39.7210  -12.0840   74.3960 C.3   194  PRO194      0.0207
     78  CD        38.3880  -11.6630   75.0610 C.3   194  PRO194      0.0892
@<TRIPOS>BOND
     1    40    38   ar
     2    40    39   ar
     3    38    36   ar
     4    39    37   ar
     5    36    37   ar
     6    36    35    1
     7    35    32    1
     8    46    45    1
     9    32    31    1
    10    32    33    1
    11    24    23    2
    12    41    33   am
    13    41    42    1
    14    31    28   am
    15    47    45    1
    16    45    42    1
    17    33    34    2
    18    25    22    1
    19    42    43    1
    20    28    27    1
    21    28    29    2
    22    23    22    1
    23    23    26   am
    24    43    44    2
    25    27    26    1
    26    27    30    1
    27    22    21    1
    28    48    49    1
    29    55    53    1
    30    53    54    1
    31    53    52    1
    32    21    14   am
    33    49    52    1
    34    49    50    1
    35    11    10    1
    36    15    14    2
    37    10     7    1
    38    14    13    1
    39    50    56   am
    40    50    51    2
    41    56    57    1
    42     9     8    2
    43     8     7    1
    44     8    12   am
    45     7     6    1
    46    58    57    1
    47    58    59    2
    48     6     3   am
    49    57    60    1
    50    13    12    1
    51    13    16    1
    52    60    61    1
    53    63    62    2
    54     5     2    1
    55    17    16    1
    56    17    18    1
    57    61    62    1
    58    62    64   am
    59     3     2    1
    60     3     4    2
    61     2     1    1
    62    20    18   ar
    63    18    19   ar
    64    70    69    1
    65    71    69    1
    66    69    66    1
    67    76    73    1
    68    76    77    1
    69    73    74    1
    70    73    72    1
    71    74    75    2
    72    66    67    1
    73    66    65    1
    74    77    78    1
    75    72    78    1
    76    68    67    2
