@<TRIPOS>MOLECULE
tmp/4rlhD00.pdb
 158 150 0 0 0
SMALL
GASTEIGER

@<TRIPOS>ATOM
      1  N         62.7050  -35.7470  -28.6330 N.3    93  GLY93      -0.1210
      2  CA        61.8520  -36.0680  -27.5260 C.3    93  GLY93       0.1956
      3  C         62.3370  -37.3130  -26.8360 C.2    93  GLY93       0.2612
      4  O         62.8150  -38.2480  -27.4840 O.2    93  GLY93      -0.2717
      5  N         62.1820  -37.3470  -25.5270 N.am   94  PHE94      -0.1962
      6  CA        62.6820  -38.4690  -24.7320 C.3    94  PHE94       0.1771
      7  C         62.0390  -38.4020  -23.3920 C.2    94  PHE94       0.2619
      8  O         61.9550  -37.2990  -22.8020 O.2    94  PHE94      -0.2715
      9  CB        64.2080  -38.3960  -24.5320 C.3    94  PHE94       0.0574
     10  CG        64.7400  -39.4050  -23.5520 C.ar   94  PHE94      -0.0200
     11  CD1       65.0280  -40.7050  -23.9590 C.ar   94  PHE94      -0.0042
     12  CD2       64.9470  -39.0650  -22.2140 C.ar   94  PHE94      -0.0042
     13  CE1       65.4840  -41.6600  -23.0520 C.ar   94  PHE94      -0.0003
     14  CE2       65.4460  -40.0100  -21.2970 C.ar   94  PHE94      -0.0003
     15  CZ        65.7150  -41.3150  -21.7260 C.ar   94  PHE94      -0.0000
     16  N         61.5890  -39.5700  -22.9300 N.am   95  ALA95      -0.1977
     17  CA        61.2490  -39.7890  -21.5380 C.3    95  ALA95       0.1597
     18  C         61.8840  -41.1140  -21.0990 C.2    95  ALA95       0.2287
     19  O         61.9760  -42.0580  -21.9020 O.2    95  ALA95      -0.2864
     20  CB        59.7440  -39.8400  -21.3490 C.3    95  ALA95       0.0319
     21  N         62.2710  -44.6280  -20.4300 N.3    97  ARG97      -0.1245
     22  CA        61.5230  -45.7950  -20.8460 C.3    97  ARG97       0.1563
     23  C         60.3420  -46.1950  -19.9250 C.2    97  ARG97       0.2260
     24  O         59.2630  -46.5460  -20.3860 O.2    97  ARG97      -0.2867
     25  CB        62.5310  -46.9630  -20.9340 C.3    97  ARG97       0.0307
     26  CG        62.4670  -47.7540  -22.2320 C.3    97  ARG97       0.0489
     27  CD        63.8800  -47.9940  -22.8070 C.3    97  ARG97       0.2205
     28  NE        64.0020  -48.2260  -24.2750 N.pl3  97  ARG97      -0.0865
     29  CZ        63.0710  -48.0190  -25.2280 C.cat  97  ARG97       0.5346
     30  NH1       61.8540  -47.5330  -24.9340 N.pl3  97  ARG97       0.1354
     31  NH2       63.3690  -48.2920  -26.5160 N.pl3  97  ARG97       0.1354
     32  N         56.9780  -44.6590  -20.2580 N.3   100  ILE100     -0.1245
     33  CA        56.2430  -44.9520  -21.5230 C.3   100  ILE100      0.1561
     34  C         56.0750  -46.4540  -21.8200 C.2   100  ILE100      0.2260
     35  O         56.0020  -46.8850  -22.9810 O.2   100  ILE100     -0.2867
     36  CB        56.8720  -44.3210  -22.7890 C.3   100  ILE100      0.0252
     37  CG1       58.2610  -44.9520  -23.0270 C.3   100  ILE100      0.0019
     38  CG2       56.8170  -42.7910  -22.7160 C.3   100  ILE100      0.0019
     39  CD1       58.9620  -44.5160  -24.2960 C.3   100  ILE100      0.0001
     40  N         53.0210  -35.2140  -31.7690 N.3   146  TYR146     -0.1241
     41  CA        52.3600  -36.4460  -32.0340 C.3   146  TYR146      0.1605
     42  C         50.9790  -36.3700  -31.3910 C.2   146  TYR146      0.2264
     43  O         50.7660  -35.6090  -30.4210 O.2   146  TYR146     -0.2867
     44  CB        53.1840  -37.6050  -31.4510 C.3   146  TYR146      0.0534
     45  CG        52.4810  -38.9720  -31.5750 C.ar  146  TYR146     -0.0201
     46  CD1       52.1390  -39.5010  -32.8200 C.ar  146  TYR146     -0.0009
     47  CD2       52.1500  -39.7110  -30.4250 C.ar  146  TYR146     -0.0009
     48  CE1       51.4690  -40.7280  -32.9250 C.ar  146  TYR146      0.0417
     49  CE2       51.5350  -40.9460  -30.5130 C.ar  146  TYR146      0.0417
     50  CZ        51.1750  -41.4550  -31.7520 C.ar  146  TYR146      0.1957
     51  OH        50.5050  -42.6830  -31.7910 O.3   146  TYR146     -0.2866
     52  N         46.8070  -41.9850  -25.7560 N.3   153  ILE153     -0.1245
     53  CA        47.1770  -43.1360  -26.5400 C.3   153  ILE153      0.1561
     54  C         47.8770  -44.0780  -25.5610 C.2   153  ILE153      0.2260
     55  O         48.7180  -43.6450  -24.7870 O.2   153  ILE153     -0.2867
     56  CB        48.0950  -42.7180  -27.7050 C.3   153  ILE153      0.0252
     57  CG1       47.2660  -41.9780  -28.7540 C.3   153  ILE153      0.0019
     58  CG2       48.8700  -43.9340  -28.2620 C.3   153  ILE153      0.0019
     59  CD1       48.0590  -41.3260  -29.8530 C.3   153  ILE153      0.0001
     60  N         50.4980  -46.3020  -24.0360 N.3   155  ASN155     -0.1225
     61  CA        51.7120  -46.2370  -23.1680 C.3   155  ASN155      0.1785
     62  C         52.4370  -44.8860  -23.4730 C.2   155  ASN155      0.2597
     63  O         53.6210  -44.6660  -23.0290 O.2   155  ASN155     -0.2718
     64  CB        52.4010  -47.4000  -23.9260 C.3   155  ASN155      0.1169
     65  CG        51.8810  -48.7660  -23.5030 C.2   155  ASN155      0.2627
     66  OD1       51.6830  -49.0260  -22.3080 O.2   155  ASN155     -0.2716
     67  ND2       51.6190  -49.6260  -24.4670 N.am  155  ASN155     -0.0877
     68  N         51.8010  -43.9730  -24.2040 N.am  156  TYR156     -0.1976
     69  CA        52.4130  -42.7040  -24.5120 C.3   156  TYR156      0.1639
     70  C         52.6010  -41.8470  -23.2550 C.2   156  TYR156      0.2290
     71  O         53.5980  -41.2120  -23.0810 O.2   156  TYR156     -0.2864
     72  CB        51.6970  -41.9560  -25.6360 C.3   156  TYR156      0.0560
     73  CG        52.5860  -41.0350  -26.3830 C.ar  156  TYR156     -0.0198
     74  CD1       53.5970  -41.5130  -27.1770 C.ar  156  TYR156     -0.0009
     75  CD2       52.4330  -39.6880  -26.2690 C.ar  156  TYR156     -0.0009
     76  CE1       54.4140  -40.6690  -27.8220 C.ar  156  TYR156      0.0417
     77  CE2       53.2090  -38.8420  -26.9070 C.ar  156  TYR156      0.0417
     78  CZ        54.1950  -39.2860  -27.6950 C.ar  156  TYR156      0.1957
     79  OH        54.9750  -38.3980  -28.2640 O.3   156  TYR156     -0.2866
     80  N         54.9140  -38.7830  -22.0410 N.3   159  MET159     -0.1245
     81  CA        55.2550  -38.0800  -23.2730 C.3   159  MET159      0.1570
     82  C         54.0570  -37.3100  -23.8220 C.2   159  MET159      0.2261
     83  O         54.2270  -36.3510  -24.5770 O.2   159  MET159     -0.2867
     84  CB        55.7620  -39.0850  -24.2990 C.3   159  MET159      0.0387
     85  CG        56.8050  -38.5610  -25.2440 C.3   159  MET159      0.0595
     86  SD        58.2640  -37.8040  -24.4650 S.3   159  MET159     -0.1393
     87  CE        58.5630  -39.2670  -23.5180 C.3   159  MET159      0.0692
     88  N         54.3140  -33.4900  -24.8560 N.3   163  LYS163     -0.1245
     89  CA        53.9300  -33.0400  -26.1990 C.3   163  LYS163      0.1561
     90  C         52.8260  -31.9510  -26.1270 C.2   163  LYS163      0.2260
     91  O         52.8730  -30.9500  -26.8640 O.2   163  LYS163     -0.2867
     92  CB        53.5350  -34.1860  -27.1470 C.3   163  LYS163      0.0271
     93  CG        54.6530  -35.1460  -27.5500 C.3   163  LYS163      0.0035
     94  CD        55.7020  -34.5160  -28.4310 C.3   163  LYS163      0.0206
     95  CE        56.5990  -35.5380  -29.0940 C.3   163  LYS163      0.1093
     96  NZ        57.7150  -34.7530  -29.7310 N.3   163  LYS163     -0.1314
     97  N         52.4270  -38.7570  -37.9690 N.3   190  GLY190     -0.1210
     98  CA        52.0330  -40.1410  -37.7170 C.3   190  GLY190      0.1940
     99  C         53.2010  -40.9680  -37.1930 C.2   190  GLY190      0.2454
    100  O         54.3590  -40.5370  -37.2620 O.2   190  GLY190     -0.2732
    101  N         52.9500  -42.1420  -36.6700 N.am  191  PRO191     -0.2717
    102  CA        54.0630  -42.9600  -36.1880 C.3   191  PRO191      0.1535
    103  C         55.0140  -43.3760  -37.2960 C.2   191  PRO191      0.2598
    104  O         54.6060  -43.6790  -38.3820 O.2   191  PRO191     -0.2715
    105  CB        53.3960  -44.1910  -35.6170 C.3   191  PRO191      0.0310
    106  CG        51.9790  -44.0270  -35.8270 C.3   191  PRO191      0.0237
    107  CD        51.7130  -42.9010  -36.7150 C.3   191  PRO191      0.0939
    108  N         56.2820  -43.3510  -36.9650 N.am  192  ILE192     -0.1978
    109  CA        57.3460  -43.7430  -37.8560 C.3   192  ILE192      0.1596
    110  C         58.3810  -44.6510  -37.1890 C.2   192  ILE192      0.2287
    111  O         58.9440  -44.3350  -36.1750 O.2   192  ILE192     -0.2864
    112  CB        58.0180  -42.5190  -38.5020 C.3   192  ILE192      0.0276
    113  CG1       57.2110  -42.0760  -39.6800 C.3   192  ILE192      0.0022
    114  CG2       59.4540  -42.7970  -38.8500 C.3   192  ILE192      0.0022
    115  CD1       57.1120  -40.6140  -39.7300 C.3   192  ILE192      0.0001
    116  N         64.6670  -46.7160  -32.1850 N.3   196  ALA196     -0.1231
    117  CA        64.1580  -46.4490  -30.8270 C.3   196  ALA196      0.1694
    118  C         62.7280  -46.8740  -30.4820 C.2   196  ALA196      0.2591
    119  O         62.2510  -46.6090  -29.3750 O.2   196  ALA196     -0.2718
    120  CB        64.5960  -45.0640  -30.3640 C.3   196  ALA196      0.0304
    121  N         62.0900  -47.5480  -31.4020 N.am  197  ALA197     -0.1980
    122  CA        60.7040  -47.8630  -31.3110 C.3   197  ALA197      0.1597
    123  C         60.6290  -49.3470  -31.1280 C.2   197  ALA197      0.2287
    124  O         59.5930  -49.8640  -30.8400 O.2   197  ALA197     -0.2864
    125  CB        60.0150  -47.4730  -32.5220 C.3   197  ALA197      0.0319
    126  N         59.3760  -50.2270  -27.9700 N.3   200  ILE200     -0.1245
    127  CA        57.9940  -49.8410  -27.7500 C.3   200  ILE200      0.1561
    128  C         57.0860  -50.9860  -28.1980 C.2   200  ILE200      0.2260
    129  O         56.9730  -51.2940  -29.3520 O.2   200  ILE200     -0.2867
    130  CB        57.6660  -48.4380  -28.3740 C.3   200  ILE200      0.0252
    131  CG1       58.4430  -47.3470  -27.6350 C.3   200  ILE200      0.0019
    132  CG2       56.1470  -48.1450  -28.3760 C.3   200  ILE200      0.0019
    133  CD1       58.8690  -46.1950  -28.4040 C.3   200  ILE200      0.0001
    134  N         53.8260  -51.6490  -28.1080 N.3   202  SER202     -0.1202
    135  CA        52.6750  -51.5320  -28.9200 C.3   202  SER202      0.2020
    136  C         52.9110  -50.9280  -30.3220 C.2   202  SER202      0.2618
    137  O         51.9940  -50.6900  -30.9970 O.2   202  SER202     -0.2717
    138  CB        51.6080  -50.8030  -28.1380 C.3   202  SER202      0.2103
    139  OG        51.9170  -49.4670  -28.0170 O.3   202  SER202     -0.2182
    140  N         54.1400  -50.7070  -30.7290 N.am  203  PHE203     -0.1975
    141  CA        54.4080  -49.9930  -31.9300 C.3   203  PHE203      0.1639
    142  C         53.8770  -50.6730  -33.1740 C.2   203  PHE203      0.2290
    143  O         53.3440  -50.0220  -34.0360 O.2   203  PHE203     -0.2864
    144  CB        55.8800  -49.6150  -32.0710 C.3   203  PHE203      0.0560
    145  CG        56.1350  -48.3570  -32.8620 C.ar  203  PHE203     -0.0200
    146  CD1       56.3930  -47.1730  -32.2370 C.ar  203  PHE203     -0.0042
    147  CD2       56.1300  -48.3630  -34.2250 C.ar  203  PHE203     -0.0042
    148  CE1       56.6260  -46.0480  -32.9560 C.ar  203  PHE203     -0.0003
    149  CE2       56.3690  -47.2380  -34.9420 C.ar  203  PHE203     -0.0003
    150  CZ        56.6100  -46.0710  -34.3070 C.ar  203  PHE203     -0.0000
    151  N         50.1760  -50.1490  -33.3000 N.3   206  ILE206     -0.1245
    152  CA        49.8330  -48.7770  -33.6780 C.3   206  ILE206      0.1561
    153  C         49.9090  -48.7270  -35.2040 C.2   206  ILE206      0.2260
    154  O         48.9560  -48.2940  -35.8540 O.2   206  ILE206     -0.2867
    155  CB        50.7680  -47.6810  -33.1020 C.3   206  ILE206      0.0252
    156  CG1       50.9490  -47.7880  -31.6000 C.3   206  ILE206      0.0019
    157  CG2       50.2950  -46.2820  -33.5100 C.3   206  ILE206      0.0019
    158  CD1       49.6900  -47.6940  -30.7960 C.3   206  ILE206      0.0001
@<TRIPOS>BOND
     1   115   113    1
     2   113   112    1
     3   114   112    1
     4   112   109    1
     5   104   103    2
     6    97    98    1
     7   109   110    1
     8   109   108    1
     9    98    99    1
    10   103   108   am
    11   103   102    1
    12   100    99    2
    13    99   101   am
    14   110   111    2
    15   107   101    1
    16   107   106    1
    17   101   102    1
    18   102   105    1
    19   154   153    2
    20   106   105    1
    21   153   152    1
    22   149   150   ar
    23   149   147   ar
    24   150   148   ar
    25   147   145   ar
    26   143   142    2
    27   152   151    1
    28   152   155    1
    29   157   155    1
    30   142   141    1
    31   155   156    1
    32   148   146   ar
    33    48    46   ar
    34    48    50   ar
    35   145   146   ar
    36   145   144    1
    37    46    45   ar
    38   125   122    1
    39   116   117    1
    40   144   141    1
    41    41    40    1
    42    41    44    1
    43    41    42    1
    44   141   140    1
    45    51    50    1
    46    50    49   ar
    47   156   158    1
    48    45    44    1
    49    45    47   ar
    50   121   122    1
    51   121   118   am
    52    42    43    2
    53   122   123    1
    54   123   124    2
    55   137   136    2
    56   117   118    1
    57   117   120    1
    58   140   136   am
    59    49    47   ar
    60   118   119    2
    61   136   135    1
    62    59    57    1
    63    96    95    1
    64   129   128    2
    65    95    94    1
    66   135   138    1
    67   135   134    1
    68    57    56    1
    69     1     2    1
    70    94    93    1
    71   133   131    1
    72   132   130    1
    73   130   127    1
    74   130   131    1
    75    79    78    1
    76    58    56    1
    77   128   127    1
    78   138   139    1
    79   126   127    1
    80    76    78   ar
    81    76    74   ar
    82    56    53    1
    83    78    77   ar
    84    93    92    1
    85     2     3    1
    86     4     3    2
    87    74    73   ar
    88    92    89    1
    89    77    75   ar
    90    91    90    2
    91     3     5   am
    92    53    52    1
    93    53    54    1
    94    31    29    1
    95    73    75   ar
    96    73    72    1
    97    89    90    1
    98    89    88    1
    99    72    69    1
   100    54    55    2
   101     5     6    1
   102    85    86    1
   103    85    84    1
   104    29    30    1
   105    29    28    2
   106     6     9    1
   107     6     7    1
   108    83    82    2
   109     9    10    1
   110    69    68    1
   111    69    70    1
   112    67    65   am
   113    86    87    1
   114    84    81    1
   115    39    37    1
   116    28    27    1
   117    68    62   am
   118    60    61    1
   119    11    10   ar
   120    11    13   ar
   121    64    65    1
   122    64    61    1
   123    82    81    1
   124    10    12   ar
   125    65    66    2
   126    62    61    1
   127    62    63    2
   128     7    16   am
   129     7     8    2
   130    81    80    1
   131    70    71    2
   132    13    15   ar
   133    37    36    1
   134    35    34    2
   135    16    17    1
   136    27    26    1
   137    36    38    1
   138    36    33    1
   139    26    25    1
   140    12    14   ar
   141    19    18    2
   142    34    33    1
   143    15    14   ar
   144    17    20    1
   145    17    18    1
   146    33    32    1
   147    25    22    1
   148    22    21    1
   149    22    23    1
   150    24    23    2
