@<TRIPOS>MOLECULE
tmp/4rliA02.pdb
 183 176 0 0 0
SMALL
GASTEIGER

@<TRIPOS>ATOM
      1  N         34.5170   10.8930    7.6160 N.3     1  LEU1       -0.1231
      2  CA        33.8800   11.0210    8.9240 C.3     1  LEU1        0.1693
      3  C         34.2950   12.3260    9.5920 C.2     1  LEU1        0.2591
      4  O         35.4720   12.5280    9.9090 O.2     1  LEU1       -0.2718
      5  CB        34.2320    9.8330    9.8240 C.3     1  LEU1        0.0284
      6  CG        33.5090    9.7160   11.1700 C.3     1  LEU1        0.0019
      7  CD1       32.1010   10.3300   11.1420 C.3     1  LEU1        0.0001
      8  CD2       33.4490    8.2520   11.5750 C.3     1  LEU1        0.0001
      9  N         33.3170   13.2000    9.8140 N.am    2  GLN2       -0.1979
     10  CA        33.5730   14.5190   10.3820 C.3     2  GLN2        0.1601
     11  C         34.1840   14.4180   11.7700 C.2     2  GLN2        0.2287
     12  O         34.9320   15.2990   12.1950 O.2     2  GLN2       -0.2864
     13  CB        32.2870   15.3470   10.4410 C.3     2  GLN2        0.0394
     14  CG        31.7240   15.7370    9.0810 C.3     2  GLN2        0.0908
     15  CD        30.4520   16.5530    9.1960 C.2     2  GLN2        0.2608
     16  OE1       30.4470   17.6540    9.7600 O.2     2  GLN2       -0.2717
     17  NE2       29.3540   16.0000    8.6900 N.am    2  GLN2       -0.0878
     18  N         38.8840   17.6600    7.3430 N.3     7  PRO7       -0.2116
     19  CA        38.1540   17.6220    6.0640 C.3     7  PRO7        0.1372
     20  C         38.9890   17.1350    4.8740 C.2     7  PRO7        0.2244
     21  O         38.5100   16.2960    4.0990 O.2     7  PRO7       -0.2868
     22  CB        37.7330   19.0770    5.8610 C.3     7  PRO7        0.0268
     23  CG        37.6460   19.6310    7.2400 C.3     7  PRO7        0.0207
     24  CD        38.7750   18.9800    7.9900 C.3     7  PRO7        0.0892
     25  N         39.4070   13.4980    5.1700 N.3    10  ALA10      -0.1231
     26  CA        38.1270   12.8500    4.9000 C.3    10  ALA10       0.1694
     27  C         37.8740   12.7890    3.3970 C.2    10  ALA10       0.2592
     28  O         37.3290   11.8170    2.8750 O.2    10  ALA10      -0.2718
     29  CB        36.9970   13.5800    5.5980 C.3    10  ALA10       0.0304
     30  N         38.2850   13.8350    2.7010 N.am   11  HIS11      -0.1976
     31  CA        38.1000   13.8800    1.2680 C.3    11  HIS11       0.1656
     32  C         38.9510   12.8400    0.5260 C.2    11  HIS11       0.2291
     33  O         38.4420   12.1300   -0.3560 O.2    11  HIS11      -0.2864
     34  CB        38.4090   15.2700    0.7350 C.3    11  HIS11       0.0771
     35  CG        38.2700   15.3720   -0.7420 C.ar   11  HIS11       0.0820
     36  ND1       39.2770   15.8370   -1.5600 N.ar   11  HIS11      -0.2267
     37  CD2       37.2510   15.0200   -1.5630 C.ar   11  HIS11       0.1154
     38  CE1       38.8750   15.7930   -2.8140 C.ar   11  HIS11       0.1986
     39  NE2       37.6540   15.3010   -2.8470 N.ar   11  HIS11      -0.2212
     40  N         40.0940   10.0760    1.6670 N.3    13  LEU13      -0.1231
     41  CA        39.5180    8.7770    1.9740 C.3    13  LEU13       0.1693
     42  C         38.2870    8.5210    1.1040 C.2    13  LEU13       0.2591
     43  O         38.1550    7.4640    0.4810 O.2    13  LEU13      -0.2718
     44  CB        39.1660    8.7010    3.4640 C.3    13  LEU13       0.0284
     45  CG        38.7670    7.3590    4.0720 C.3    13  LEU13       0.0019
     46  CD1       39.2040    7.3200    5.5220 C.3    13  LEU13       0.0001
     47  CD2       37.2590    7.1190    3.9480 C.3    13  LEU13       0.0001
     48  N         37.3960    9.5030    1.0640 N.am   14  ALA14      -0.1980
     49  CA        36.2170    9.4460    0.2120 C.3    14  ALA14       0.1597
     50  C         36.5800    9.1250   -1.2380 C.2    14  ALA14       0.2287
     51  O         35.9820    8.2400   -1.8470 O.2    14  ALA14      -0.2864
     52  CB        35.4520   10.7610    0.2900 C.3    14  ALA14       0.0319
     53  N         37.8570    5.4240   -1.3820 N.3    17  PHE17      -0.1227
     54  CA        36.8010    4.4170   -1.2910 C.3    17  PHE17       0.1736
     55  C         35.9250    4.4270   -2.5270 C.2    17  PHE17       0.2596
     56  O         35.5480    3.3660   -3.0250 O.2    17  PHE17      -0.2718
     57  CB        35.9400    4.6120   -0.0420 C.3    17  PHE17       0.0547
     58  CG        36.5410    4.0120    1.2010 C.ar   17  PHE17      -0.0202
     59  CD1       37.9120    3.7840    1.2860 C.ar   17  PHE17      -0.0042
     60  CD2       35.7390    3.6600    2.2770 C.ar   17  PHE17      -0.0042
     61  CE1       38.4750    3.2290    2.4290 C.ar   17  PHE17      -0.0003
     62  CE2       36.2950    3.1040    3.4280 C.ar   17  PHE17      -0.0003
     63  CZ        37.6630    2.8900    3.5040 C.ar   17  PHE17      -0.0000
     64  N         35.6260    5.6240   -3.0330 N.am   18  THR18      -0.1953
     65  CA        34.7710    5.7560   -4.2050 C.3    18  THR18       0.1897
     66  C         35.4710    5.1320   -5.4040 C.2    18  THR18       0.2313
     67  O         34.8450    4.4300   -6.2010 O.2    18  THR18      -0.2863
     68  CB        34.4150    7.2380   -4.5230 C.3    18  THR18       0.1794
     69  OG1       33.7680    7.8400   -3.3980 O.3    18  THR18      -0.2208
     70  CG2       33.4770    7.3280   -5.7360 C.3    18  THR18       0.0378
     71  N         31.7450    1.2660   -2.1380 N.3    23  LEU23      -0.1245
     72  CA        30.3800    1.6170   -1.7790 C.3    23  LEU23       0.1561
     73  C         29.3980    0.7730   -2.5630 C.2    23  LEU23       0.2260
     74  O         29.6740    0.3980   -3.7020 O.2    23  LEU23      -0.2867
     75  CB        30.1260    3.0960   -2.0390 C.3    23  LEU23       0.0270
     76  CG        31.2120    3.9550   -1.4060 C.3    23  LEU23       0.0019
     77  CD1       30.8920    5.4260   -1.6020 C.3    23  LEU23       0.0001
     78  CD2       31.3620    3.5760    0.0690 C.3    23  LEU23       0.0001
     79  N         35.6360   17.5000   -6.4220 N.3    53  PHE53      -0.1241
     80  CA        35.6340   16.2800   -5.6370 C.3    53  PHE53       0.1605
     81  C         36.6640   15.3110   -6.2030 C.2    53  PHE53       0.2264
     82  O         37.5140   14.7920   -5.4890 O.2    53  PHE53      -0.2867
     83  CB        34.2490   15.6170   -5.5940 C.3    53  PHE53       0.0534
     84  CG        34.2530   14.3220   -4.8460 C.ar   53  PHE53      -0.0203
     85  CD1       34.2500   14.3150   -3.4550 C.ar   53  PHE53      -0.0042
     86  CD2       34.3360   13.1130   -5.5200 C.ar   53  PHE53      -0.0042
     87  CE1       34.2930   13.1210   -2.7480 C.ar   53  PHE53      -0.0003
     88  CE2       34.3780   11.9110   -4.8230 C.ar   53  PHE53      -0.0003
     89  CZ        34.3580   11.9210   -3.4280 C.ar   53  PHE53      -0.0000
     90  N         27.6240    5.5790   -7.9560 N.3    66  MET66      -0.1245
     91  CA        27.0150    6.2930   -6.8590 C.3    66  MET66       0.1570
     92  C         25.6680    6.8610   -7.3030 C.2    66  MET66       0.2261
     93  O         24.8210    7.1860   -6.4710 O.2    66  MET66      -0.2867
     94  CB        27.9700    7.3860   -6.3760 C.3    66  MET66       0.0387
     95  CG        27.6450    7.9890   -5.0420 C.3    66  MET66       0.0595
     96  SD        29.0060    9.0280   -4.4840 S.3    66  MET66      -0.1393
     97  CE        30.2660    7.7840   -4.2590 C.3    66  MET66       0.0692
     98  N         40.9340   23.6320    3.9060 N.3    89  VAL89      -0.1245
     99  CA        39.5150   23.3540    3.7890 C.3    89  VAL89       0.1561
    100  C         38.9190   23.2360    5.1960 C.2    89  VAL89       0.2260
    101  O         39.5610   22.7610    6.1180 O.2    89  VAL89      -0.2867
    102  CB        39.2520   22.0720    2.9270 C.3    89  VAL89       0.0252
    103  CG1       40.0260   20.8870    3.4390 C.3    89  VAL89       0.0019
    104  CG2       37.7660   21.7630    2.8440 C.3    89  VAL89       0.0019
    105  N         35.1830   22.8410    7.6490 N.3    91  ARG91      -0.1245
    106  CA        33.7720   22.5560    7.8340 C.3    91  ARG91       0.1563
    107  C         33.1090   23.6110    8.7330 C.2    91  ARG91       0.2260
    108  O         33.6810   24.0300    9.7490 O.2    91  ARG91      -0.2867
    109  CB        33.5820   21.1570    8.4240 C.3    91  ARG91       0.0307
    110  CG        33.8690   20.0260    7.4490 C.3    91  ARG91       0.0489
    111  CD        33.4860   18.6530    8.0130 C.3    91  ARG91       0.2205
    112  NE        34.5470   18.0980    8.8490 N.pl3  91  ARG91      -0.0865
    113  CZ        35.1150   16.9050    8.6680 C.cat  91  ARG91       0.5346
    114  NH1       34.7260   16.1010    7.6780 N.pl3  91  ARG91       0.1354
    115  NH2       36.0770   16.5080    9.4900 N.pl3  91  ARG91       0.1354
    116  N         30.8930   24.7910    3.7880 N.3    98  VAL98      -0.1245
    117  CA        32.3140   24.5250    3.7180 C.3    98  VAL98       0.1561
    118  C         33.0140   25.7580    3.1380 C.2    98  VAL98       0.2260
    119  O         32.4520   26.4840    2.3030 O.2    98  VAL98      -0.2867
    120  CB        32.6190   23.2530    2.8620 C.3    98  VAL98       0.0252
    121  CG1       34.0900   23.1850    2.4750 C.3    98  VAL98       0.0019
    122  CG2       32.2180   21.9810    3.6110 C.3    98  VAL98       0.0019
    123  N         41.9590   25.5580   -1.6910 N.3   102  TYR102     -0.1241
    124  CA        42.9380   24.5990   -2.2150 C.3   102  TYR102      0.1605
    125  C         43.9830   25.2450   -3.1230 C.2   102  TYR102      0.2264
    126  O         45.1860   25.0090   -2.9650 O.2   102  TYR102     -0.2867
    127  CB        42.2410   23.4800   -2.9740 C.3   102  TYR102      0.0534
    128  CG        41.8450   22.2990   -2.1210 C.ar  102  TYR102     -0.0201
    129  CD1       42.7870   21.3500   -1.7360 C.ar  102  TYR102     -0.0009
    130  CD2       40.5240   22.1170   -1.7230 C.ar  102  TYR102     -0.0009
    131  CE1       42.4280   20.2540   -0.9620 C.ar  102  TYR102      0.0417
    132  CE2       40.1530   21.0280   -0.9480 C.ar  102  TYR102      0.0417
    133  CZ        41.1120   20.0940   -0.5800 C.ar  102  TYR102      0.1957
    134  OH        40.7490   19.0060    0.1780 O.3   102  TYR102     -0.2866
    135  N         28.1110   19.2290   -4.4670 N.3   311  TYR311     -0.1241
    136  CA        29.3470   18.7570   -3.8720 C.3   311  TYR311      0.1605
    137  C         29.2070   18.7790   -2.3540 C.2   311  TYR311      0.2264
    138  O         29.1690   17.7160   -1.7410 O.2   311  TYR311     -0.2867
    139  CB        30.5380   19.5850   -4.3860 C.3   311  TYR311      0.0534
    140  CG        31.9040   19.1900   -3.8540 C.ar  311  TYR311     -0.0201
    141  CD1       32.0660   18.1020   -3.0020 C.ar  311  TYR311     -0.0009
    142  CD2       33.0460   19.8570   -4.2750 C.ar  311  TYR311     -0.0009
    143  CE1       33.2980   17.7440   -2.5200 C.ar  311  TYR311      0.0417
    144  CE2       34.3000   19.4970   -3.8030 C.ar  311  TYR311      0.0417
    145  CZ        34.4150   18.4410   -2.9240 C.ar  311  TYR311      0.1957
    146  OH        35.6410   18.0610   -2.4370 O.3   311  TYR311     -0.2866
    147  N         27.2980   16.3750   -0.0630 N.3   314  LEU314     -0.1231
    148  CA        27.8840   15.0470    0.0660 C.3   314  LEU314      0.1693
    149  C         28.8080   14.9630    1.2990 C.2   314  LEU314      0.2593
    150  O         29.0940   13.8820    1.8010 O.2   314  LEU314     -0.2718
    151  CB        28.6370   14.7060   -1.2110 C.3   314  LEU314      0.0284
    152  CG        28.9230   13.2870   -1.6660 C.3   314  LEU314      0.0019
    153  CD1       27.6440   12.5360   -1.9670 C.3   314  LEU314      0.0001
    154  CD2       29.7890   13.4010   -2.9120 C.3   314  LEU314      0.0001
    155  N         29.2340   16.1230    1.7880 N.am  315  THR315     -0.1939
    156  CA        30.1130   16.2450    2.9490 C.3   315  THR315      0.2028
    157  C         29.3740   15.9850    4.2600 C.2   315  THR315      0.2642
    158  O         29.9260   15.4120    5.2000 O.2   315  THR315     -0.2714
    159  CB        30.7720   17.6640    2.9650 C.3   315  THR315      0.1808
    160  OG1       31.8120   17.6940    1.9840 O.3   315  THR315     -0.2208
    161  CG2       31.3400   18.0380    4.3290 C.3   315  THR315      0.0379
    162  N         28.1120   16.3880    4.3170 N.am  316  PHE316     -0.1973
    163  CA        27.3270   16.2170    5.5280 C.3   316  PHE316      0.1639
    164  C         26.4140   14.9980    5.5050 C.2   316  PHE316      0.2290
    165  O         26.1710   14.3970    6.5450 O.2   316  PHE316     -0.2864
    166  CB        26.5030   17.4760    5.7850 C.3   316  PHE316      0.0560
    167  CG        27.3440   18.6980    5.9180 C.ar  316  PHE316     -0.0200
    168  CD1       28.0850   18.9120    7.0780 C.ar  316  PHE316     -0.0042
    169  CD2       27.4410   19.6120    4.8690 C.ar  316  PHE316     -0.0042
    170  CE1       28.8850   20.0360    7.2020 C.ar  316  PHE316     -0.0003
    171  CE2       28.2250   20.7220    4.9800 C.ar  316  PHE316     -0.0003
    172  CZ        28.9570   20.9470    6.1430 C.ar  316  PHE316     -0.0000
    173  N         26.6270   12.3250    3.0170 N.3   318  GLY318     -0.1210
    174  CA        27.1820   11.1450    2.3700 C.3   318  GLY318      0.1940
    175  C         26.4550   10.7480    1.0950 C.2   318  GLY318      0.2453
    176  O         25.5410   11.4420    0.6510 O.2   318  GLY318     -0.2732
    177  N         26.8600    9.6180    0.4940 N.am  319  PRO319     -0.2728
    178  CA        26.2720    9.0910   -0.7500 C.3   319  PRO319      0.1401
    179  C         24.7350    9.0240   -0.8440 C.2   319  PRO319      0.2269
    180  O         24.2420    9.2650   -1.9440 O.2   319  PRO319     -0.2865
    181  CB        26.8700    7.6840   -0.8350 C.3   319  PRO319      0.0296
    182  CG        28.2450    7.8770   -0.2480 C.3   319  PRO319      0.0237
    183  CD        28.0410    8.8420    0.9090 C.3   319  PRO319      0.0939
@<TRIPOS>BOND
     1    90    91    1
     2    92    91    1
     3    92    93    2
     4    91    94    1
     5    79    80    1
     6    94    95    1
     7    81    80    1
     8    81    82    2
     9    67    66    2
    10    70    68    1
    11    80    83    1
    12    83    84    1
    13    86    84   ar
    14    86    88   ar
    15    66    65    1
    16    95    96    1
    17    84    85   ar
    18    88    89   ar
    19    68    65    1
    20    68    69    1
    21    96    97    1
    22   135   136    1
    23   139   136    1
    24   139   140    1
    25   142   140   ar
    26   142   144   ar
    27    65    64    1
    28   136   137    1
    29   140   141   ar
    30   144   145   ar
    31    74    73    2
    32    85    87   ar
    33    89    87   ar
    34   125   126    2
    35   125   124    1
    36    64    55   am
    37    56    55    2
    38   141   143   ar
    39   127   124    1
    40   127   128    1
    41   145   143   ar
    42   145   146    1
    43   154   152    1
    44    39    38   ar
    45    39    37   ar
    46    38    36   ar
    47    73    72    1
    48    55    54    1
    49   137   138    2
    50   124   123    1
    51    71    72    1
    52   128   129   ar
    53   128   130   ar
    54    75    72    1
    55    75    76    1
    56   153   152    1
    57   180   179    2
    58    51    50    2
    59   129   131   ar
    60   130   132   ar
    61   152   151    1
    62    77    76    1
    63    37    35   ar
    64    36    35   ar
    65    76    78    1
    66    53    54    1
    67    54    57    1
    68    50    49    1
    69   151   148    1
    70   131   133   ar
    71   132   133   ar
    72   179   178    1
    73   181   178    1
    74   181   182    1
    75   178   177    1
    76    35    34    1
    77   133   134    1
    78    33    32    2
    79   182   183    1
    80   147   148    1
    81    57    58    1
    82   148   149    1
    83    49    52    1
    84    49    48    1
    85    43    42    2
    86   177   183    1
    87   177   175   am
    88    32    31    1
    89   176   175    2
    90    34    31    1
    91    48    42   am
    92   175   174    1
    93    42    41    1
    94    58    59   ar
    95    58    60   ar
    96    31    30    1
    97    59    61   ar
    98   149   155   am
    99   149   150    2
   100    40    41    1
   101   155   156    1
   102    41    44    1
   103   160   159    1
   104    60    62   ar
   105   119   118    2
   106   174   173    1
   107    61    63   ar
   108   121   120    1
   109    30    27   am
   110   104   102    1
   111   120   122    1
   112   120   117    1
   113    28    27    2
   114   102   103    1
   115   102    99    1
   116   156   159    1
   117   156   157    1
   118   159   161    1
   119   118   117    1
   120    27    26    1
   121    62    63   ar
   122    44    45    1
   123   117   116    1
   124    99    98    1
   125    99   100    1
   126    47    45    1
   127    45    46    1
   128    21    20    2
   129   157   162   am
   130   157   158    2
   131   162   163    1
   132   169   171   ar
   133   169   167   ar
   134    20    19    1
   135    26    25    1
   136    26    29    1
   137   171   172   ar
   138   100   101    2
   139   164   163    1
   140   164   165    2
   141   163   166    1
   142   166   167    1
   143    22    19    1
   144    22    23    1
   145   167   168   ar
   146    19    18    1
   147   172   170   ar
   148   168   170   ar
   149    23    24    1
   150    18    24    1
   151   110   111    1
   152   110   109    1
   153     1     2    1
   154   105   106    1
   155   114   113    1
   156   106   109    1
   157   106   107    1
   158   111   112    1
   159   113   112    2
   160   113   115    1
   161    17    15   am
   162   107   108    2
   163     2     3    1
   164     2     5    1
   165    14    15    1
   166    14    13    1
   167    15    16    2
   168     3     9   am
   169     3     4    2
   170     9    10    1
   171     5     6    1
   172    10    13    1
   173    10    11    1
   174     7     6    1
   175     6     8    1
   176    11    12    2
