@<TRIPOS>MOLECULE
tmp/4rlkA00.pdb
 192 184 0 0 0
SMALL
GASTEIGER

@<TRIPOS>ATOM
      1  N         28.0870   14.0200   28.2420 N.3    37  ARG37      -0.1245
      2  CA        28.0780   12.6720   28.8100 C.3    37  ARG37       0.1563
      3  C         27.9550   11.6120   27.7150 C.2    37  ARG37       0.2260
      4  O         27.3430   11.8530   26.6820 O.2    37  ARG37      -0.2867
      5  CB        26.9180   12.5040   29.8060 C.3    37  ARG37       0.0307
      6  CG        25.5450   12.4260   29.1690 C.3    37  ARG37       0.0489
      7  CD        24.4240   12.2700   30.1950 C.3    37  ARG37       0.2205
      8  NE        23.1100   12.2920   29.5500 N.pl3  37  ARG37      -0.0865
      9  CZ        22.3280   11.2270   29.3840 C.cat  37  ARG37       0.5346
     10  NH1       22.7140   10.0390   29.8290 N.pl3  37  ARG37       0.1354
     11  NH2       21.1540   11.3510   28.7770 N.pl3  37  ARG37       0.1354
     12  N         26.4250    8.3400   26.0930 N.3    39  VAL39      -0.1231
     13  CA        25.1100    7.7050   26.1390 C.3    39  VAL39       0.1692
     14  C         25.0730    6.3520   25.4370 C.2    39  VAL39       0.2593
     15  O         24.1870    5.5440   25.6870 O.2    39  VAL39      -0.2718
     16  CB        23.9910    8.6430   25.5820 C.3    39  VAL39       0.0266
     17  CG1       23.8820    9.9350   26.4170 C.3    39  VAL39       0.0020
     18  CG2       24.1760    8.9600   24.1080 C.3    39  VAL39       0.0020
     19  N         26.0270    6.0780   24.5510 N.am   40  GLY40      -0.1942
     20  CA        25.9910    4.7980   23.8920 C.3    40  GLY40       0.2014
     21  C         27.2640    4.4990   23.1750 C.2    40  GLY40       0.2638
     22  O         28.2190    5.3270   23.1310 O.2    40  GLY40      -0.2714
     23  N         27.2830    3.3110   22.5890 N.am   41  ARG41      -0.1977
     24  CA        28.4360    2.8910   21.8340 C.3    41  ARG41       0.1597
     25  C         28.1450    1.6800   21.0350 C.2    41  ARG41       0.2287
     26  O         27.1850    0.9590   21.2870 O.2    41  ARG41      -0.2864
     27  CB        29.5990    2.5700   22.7810 C.3    41  ARG41       0.0334
     28  CG        29.3380    1.4990   23.8350 C.3    41  ARG41       0.0492
     29  CD        29.6170    0.0640   23.3530 C.3    41  ARG41       0.2205
     30  NE        29.1570   -0.9110   24.3430 N.pl3  41  ARG41      -0.0865
     31  CZ        27.9040   -1.3380   24.4450 C.cat  41  ARG41       0.5346
     32  NH1       26.9700   -0.8830   23.6250 N.pl3  41  ARG41       0.1354
     33  NH2       27.5530   -2.2060   25.3760 N.pl3  41  ARG41       0.1354
     34  N         28.7440    7.4430   21.2700 N.3    47  VAL47      -0.1245
     35  CA        27.7600    8.4940   21.1550 C.3    47  VAL47       0.1561
     36  C         27.6950    9.2600   22.4620 C.2    47  VAL47       0.2260
     37  O         27.6510    8.6490   23.5460 O.2    47  VAL47      -0.2867
     38  CB        26.3810    7.8910   20.8000 C.3    47  VAL47       0.0252
     39  CG1       25.3370    8.9810   20.6980 C.3    47  VAL47       0.0019
     40  CG2       26.4980    7.1150   19.4980 C.3    47  VAL47       0.0019
     41  N         23.7650   15.6480   19.5960 N.3    60  ILE60      -0.1245
     42  CA        24.3510   14.3350   19.7970 C.3    60  ILE60       0.1561
     43  C         25.6740   14.3780   19.0680 C.2    60  ILE60       0.2260
     44  O         25.7330   14.9040   17.9470 O.2    60  ILE60      -0.2867
     45  CB        23.4690   13.2360   19.2410 C.3    60  ILE60       0.0252
     46  CG1       22.3040   12.9780   20.2180 C.3    60  ILE60       0.0019
     47  CG2       24.2930   11.9790   19.0290 C.3    60  ILE60       0.0019
     48  CD1       22.7480   12.3730   21.5510 C.3    60  ILE60       0.0001
     49  N         28.6070   12.0050   17.6640 N.3    62  LYS62      -0.1245
     50  CA        28.9580   10.6370   17.3740 C.3    62  LYS62       0.1561
     51  C         30.4050   10.6430   16.9510 C.2    62  LYS62       0.2260
     52  O         30.7610   11.1370   15.8900 O.2    62  LYS62      -0.2867
     53  CB        28.0750   10.1140   16.2100 C.3    62  LYS62       0.0271
     54  CG        28.4470    8.7160   15.7450 C.3    62  LYS62       0.0035
     55  CD        27.6100    8.3450   14.4680 C.3    62  LYS62       0.0206
     56  CE        27.8460    6.9260   14.0830 C.3    62  LYS62       0.1093
     57  NZ        26.8710    6.5180   13.0290 N.3    62  LYS62      -0.1314
     58  N         28.6670    7.2480    4.6410 N.3    75  GLU75      -0.1245
     59  CA        27.7190    7.5920    5.6830 C.3    75  GLU75       0.1567
     60  C         27.3160    9.0600    5.5820 C.2    75  GLU75       0.2260
     61  O         26.1290    9.3780    5.6690 O.2    75  GLU75      -0.2867
     62  CB        28.2800    7.2430    7.0730 C.3    75  GLU75       0.0388
     63  CG        27.3170    7.6910    8.1940 C.3    75  GLU75       0.1160
     64  CD        27.7020    7.2410    9.6150 C.2    75  GLU75       0.3649
     65  OE1       28.7220    6.5520    9.7660 O.co2  75  GLU75      -0.2457
     66  OE2       26.9630    7.5620   10.5720 O.co2  75  GLU75      -0.2457
     67  N         23.5570   10.4460    4.7700 N.3    79  LEU79      -0.1245
     68  CA        22.8890   11.3300    5.7180 C.3    79  LEU79       0.1561
     69  C         22.4680   12.6340    5.0650 C.2    79  LEU79       0.2260
     70  O         21.3730   13.1270    5.3130 O.2    79  LEU79      -0.2867
     71  CB        23.8180   11.6230    6.9220 C.3    79  LEU79       0.0270
     72  CG        23.9380   10.4670    7.9040 C.3    79  LEU79       0.0019
     73  CD1       25.1450   10.7210    8.8460 C.3    79  LEU79       0.0001
     74  CD2       22.6980   10.3550    8.7200 C.3    79  LEU79       0.0001
     75  N         17.1350   10.4870   11.1660 N.3    89  VAL89      -0.1245
     76  CA        18.0240   11.2920   11.9880 C.3    89  VAL89       0.1561
     77  C         18.6570   12.4170   11.1570 C.2    89  VAL89       0.2260
     78  O         19.0430   12.1870   10.0170 O.2    89  VAL89      -0.2867
     79  CB        19.0780   10.4350   12.7360 C.3    89  VAL89       0.0252
     80  CG1       20.2870   10.0300   11.7980 C.3    89  VAL89       0.0019
     81  CG2       19.6050   11.2160   13.9510 C.3    89  VAL89       0.0019
     82  N         24.5340   15.5170   15.4100 N.3   107  PHE107     -0.1227
     83  CA        23.1450   15.2890   15.0660 C.3   107  PHE107      0.1736
     84  C         22.2690   16.1240   15.9590 C.2   107  PHE107      0.2595
     85  O         22.6780   16.5720   17.0480 O.2   107  PHE107     -0.2718
     86  CB        22.7940   13.8110   15.2710 C.3   107  PHE107      0.0547
     87  CG        23.5040   12.8840   14.3330 C.ar  107  PHE107     -0.0202
     88  CD1       23.0310   12.6500   13.0350 C.ar  107  PHE107     -0.0042
     89  CD2       24.6450   12.2170   14.7680 C.ar  107  PHE107     -0.0042
     90  CE1       23.6970   11.7810   12.2180 C.ar  107  PHE107     -0.0003
     91  CE2       25.3300   11.3630   13.9410 C.ar  107  PHE107     -0.0003
     92  CZ        24.8430   11.1250   12.6600 C.ar  107  PHE107     -0.0000
     93  N         21.0280   16.2980   15.5140 N.am  108  GLU108     -0.1965
     94  CA        19.9920   16.7610   16.4030 C.3   108  GLU108      0.1733
     95  C         19.9470   15.8840   17.6300 C.2   108  GLU108      0.2616
     96  O         20.2110   14.6950   17.5790 O.2   108  GLU108     -0.2715
     97  CB        18.6400   16.5850   15.6940 C.3   108  GLU108      0.0429
     98  CG        18.2590   17.6630   14.7550 C.3   108  GLU108      0.1163
     99  CD        16.7760   17.5710   14.4220 C.2   108  GLU108      0.3649
    100  OE1       16.2820   16.4280   14.2900 O.co2 108  GLU108     -0.2457
    101  OE2       16.1120   18.6260   14.3390 O.co2 108  GLU108     -0.2457
    102  N         19.5550   16.4610   18.7440 N.am  109  TYR109     -0.1960
    103  CA        19.2950   15.6420   19.9070 C.3   109  TYR109      0.1771
    104  C         17.8520   15.0980   19.9140 C.2   109  TYR109      0.2619
    105  O         16.9630   15.7180   19.3310 O.2   109  TYR109     -0.2715
    106  CB        19.5360   16.4820   21.1520 C.3   109  TYR109      0.0574
    107  CG        19.3340   15.7150   22.4070 C.ar  109  TYR109     -0.0198
    108  CD1       20.3180   14.8660   22.8850 C.ar  109  TYR109     -0.0009
    109  CD2       18.1530   15.8250   23.1170 C.ar  109  TYR109     -0.0009
    110  CE1       20.1280   14.1410   24.0440 C.ar  109  TYR109      0.0417
    111  CE2       17.9580   15.1140   24.2730 C.ar  109  TYR109      0.0417
    112  CZ        18.9440   14.2710   24.7350 C.ar  109  TYR109      0.1957
    113  OH        18.7240   13.5580   25.8950 O.3   109  TYR109     -0.2866
    114  N         17.6270   13.9300   20.5210 N.am  110  VAL110     -0.1963
    115  CA        16.2840   13.5090   20.9810 C.3   110  VAL110      0.1727
    116  C         16.3330   12.7310   22.3150 C.2   110  VAL110      0.2616
    117  O         17.2150   11.8950   22.4880 O.2   110  VAL110     -0.2715
    118  CB        15.5670   12.5890   19.9710 C.3   110  VAL110      0.0290
    119  CG1       14.0780   12.5230   20.3010 C.3   110  VAL110      0.0023
    120  CG2       15.7830   13.0380   18.5270 C.3   110  VAL110      0.0023
    121  N         15.3900   12.9970   23.2340 N.am  111  ASN111     -0.1958
    122  CA        15.2230   12.2480   24.5030 C.3   111  ASN111      0.1819
    123  C         14.8860   10.7510   24.3570 C.2   111  ASN111      0.2621
    124  O         13.7320   10.3500   24.5720 O.2   111  ASN111     -0.2715
    125  CB        14.0710   12.8350   25.3400 C.3   111  ASN111      0.1195
    126  CG        14.4340   14.0960   26.0860 C.2   111  ASN111      0.2630
    127  OD1       15.6050   14.3740   26.3460 O.2   111  ASN111     -0.2716
    128  ND2       13.4080   14.8570   26.4770 N.am  111  ASN111     -0.0877
    129  N         15.8450    9.9140   24.0070 N.am  112  ASN112     -0.1972
    130  CA        15.5960    8.4830   23.8490 C.3   112  ASN112      0.1688
    131  C         15.2110    7.6650   25.0850 C.2   112  ASN112      0.2292
    132  O         15.7760    7.7670   26.1470 O.2   112  ASN112     -0.2864
    133  CB        16.7710    7.8140   23.0870 C.3   112  ASN112      0.1181
    134  CG        16.5800    6.3270   22.8760 C.2   112  ASN112      0.2629
    135  OD1       17.3010    5.4980   23.4640 O.2   112  ASN112     -0.2716
    136  ND2       15.6120    5.9630   22.0410 N.am  112  ASN112     -0.0877
    137  N         15.2360    3.9500   26.3640 N.3   114  ASP114     -0.1239
    138  CA        15.9290    2.6360   26.2220 C.3   114  ASP114      0.1674
    139  C         14.9560    1.4900   25.7620 C.2   114  ASP114      0.2266
    140  O         14.0780    1.1500   26.4880 O.2   114  ASP114     -0.2867
    141  CB        16.5640    2.3010   27.5930 C.3   114  ASP114      0.1410
    142  CG        17.3320    0.9780   27.6060 C.2   114  ASP114      0.3668
    143  OD1       17.4530    0.2990   26.5630 O.co2 114  ASP114     -0.2456
    144  OD2       17.8840    0.6460   28.7030 O.co2 114  ASP114     -0.2456
    145  N         18.2380   -1.2230   18.5270 N.3   154  HIS154     -0.1241
    146  CA        19.2250   -0.2410   18.9250 C.3   154  HIS154      0.1621
    147  C         19.3660    0.9000   17.9650 C.2   154  HIS154      0.2264
    148  O         19.8920    1.9400   18.3190 O.2   154  HIS154     -0.2867
    149  CB        20.6400   -0.8910   19.0420 C.3   154  HIS154      0.0745
    150  CG        20.9330   -1.5590   20.3540 C.ar  154  HIS154      0.0817
    151  ND1       21.0790   -2.9250   20.4870 N.ar  154  HIS154     -0.2268
    152  CD2       21.1290   -1.0380   21.5900 C.ar  154  HIS154      0.1154
    153  CE1       21.3470   -3.2170   21.7490 C.ar  154  HIS154      0.1986
    154  NE2       21.3830   -2.0900   22.4370 N.ar  154  HIS154     -0.2212
    155  N         15.4360    4.9990   17.5240 N.3   157  MET157     -0.1245
    156  CA        15.3140    5.8060   18.7350 C.3   157  MET157      0.1570
    157  C         13.9000    6.2500   18.8990 C.2   157  MET157      0.2261
    158  O         13.3020    6.7690   17.9510 O.2   157  MET157     -0.2867
    159  CB        16.1890    7.0560   18.5480 C.3   157  MET157      0.0387
    160  CG        17.6930    6.8660   18.3230 C.3   157  MET157      0.0595
    161  SD        18.6920    6.7740   19.7640 S.3   157  MET157     -0.1393
    162  CE        18.3770    5.1040   20.0390 C.3   157  MET157      0.0692
    163  N         18.3000    5.6120   12.9620 N.3   168  ILE168     -0.1231
    164  CA        19.6630    6.1350   13.1070 C.3   168  ILE168      0.1692
    165  C         20.6850    5.1410   12.5900 C.2   168  ILE168      0.2592
    166  O         20.3820    4.0070   12.2090 O.2   168  ILE168     -0.2718
    167  CB        20.0170    6.5200   14.6110 C.3   168  ILE168      0.0266
    168  CG1       20.0630    5.2570   15.4720 C.3   168  ILE168      0.0019
    169  CG2       19.0190    7.5500   15.1390 C.3   168  ILE168      0.0020
    170  CD1       20.9030    5.4030   16.7570 C.3   168  ILE168      0.0001
    171  N         21.9380    5.5870   12.6320 N.am  169  ASP169     -0.1960
    172  CA        23.1270    4.8600   12.2610 C.3   169  ASP169      0.1840
    173  C         23.1520    4.2910   10.8460 C.2   169  ASP169      0.2622
    174  O         22.9310    3.0840   10.6380 O.2   169  ASP169     -0.2715
    175  CB        23.5350    3.8330   13.2970 C.3   169  ASP169      0.1450
    176  CG        25.0330    3.5760   13.2050 C.2   169  ASP169      0.3671
    177  OD1       25.6850    3.8770   12.1770 O.co2 169  ASP169     -0.2456
    178  OD2       25.6020    3.1260   14.2220 O.co2 169  ASP169     -0.2456
    179  N         23.4690    5.1920    9.9240 N.am  170  TRP170     -0.1974
    180  CA        23.5360    4.8970    8.4990 C.3   170  TRP170      0.1640
    181  C         24.9390    4.4650    8.0990 C.2   170  TRP170      0.2290
    182  O         25.2730    4.4490    6.9290 O.2   170  TRP170     -0.2864
    183  CB        23.0450    6.1600    7.7510 C.3   170  TRP170      0.0576
    184  CG        21.5850    6.4370    8.1290 C.ar  170  TRP170      0.0006
    185  CD1       21.1180    7.0690    9.2460 C.ar  170  TRP170      0.0946
    186  CD2       20.4290    5.9450    7.4290 C.ar  170  TRP170      0.0152
    187  NE1       19.7420    7.0380    9.2670 N.ar  170  TRP170     -0.2442
    188  CE2       19.2990    6.3530    8.1610 C.ar  170  TRP170      0.0810
    189  CE3       20.2560    5.2220    6.2450 C.ar  170  TRP170      0.0012
    190  CZ2       17.9950    6.0670    7.7630 C.ar  170  TRP170      0.0191
    191  CZ3       18.9580    4.9310    5.8620 C.ar  170  TRP170      0.0001
    192  CH2       17.8470    5.3440    6.6120 C.ar  170  TRP170      0.0015
@<TRIPOS>BOND
     1    58    59    1
     2    67    68    1
     3    69    70    2
     4    69    68    1
     5    60    61    2
     6    60    59    1
     7    59    62    1
     8    68    71    1
     9   191   189   ar
    10   191   192   ar
    11   189   186   ar
    12   192   190   ar
    13    71    72    1
    14   182   181    2
    15    62    63    1
    16   186   184   ar
    17   186   188   ar
    18   183   184    1
    19   183   180    1
    20   190   188   ar
    21    72    74    1
    22    72    73    1
    23   181   180    1
    24   184   185   ar
    25   188   187   ar
    26    63    64    1
    27   180   179    1
    28   185   187   ar
    29    64    65   ar
    30    64    66   ar
    31   179   173   am
    32    78    77    2
    33   174   173    2
    34   173   172    1
    35    77    76    1
    36    75    76    1
    37    80    79    1
    38    76    79    1
    39   177   176   ar
    40   166   165    2
    41    90    92   ar
    42    90    88   ar
    43   172   171    1
    44   172   175    1
    45   165   171   am
    46   165   164    1
    47    92    91   ar
    48    79    81    1
    49   163   164    1
    50    57    56    1
    51    88    87   ar
    52   164   167    1
    53   176   175    1
    54   176   178   ar
    55    91    89   ar
    56    56    55    1
    57   100    99   ar
    58    87    89   ar
    59    87    86    1
    60   101    99   ar
    61    99    98    1
    62    55    54    1
    63   167   169    1
    64   167   168    1
    65    98    97    1
    66    83    86    1
    67    83    82    1
    68    83    84    1
    69   168   170    1
    70    93    84   am
    71    93    94    1
    72    97    94    1
    73    54    53    1
    74    52    51    2
    75    84    85    2
    76    53    50    1
    77    94    95    1
    78    51    50    1
    79    50    49    1
    80   155   156    1
    81    96    95    2
    82    95   102   am
    83    44    43    2
    84   158   157    2
    85   147   148    2
    86   147   146    1
    87   160   159    1
    88   160   161    1
    89   145   146    1
    90   120   118    1
    91   159   156    1
    92   156   157    1
    93   102   103    1
    94   146   149    1
    95    47    45    1
    96   149   150    1
    97    43    42    1
    98    45    42    1
    99    45    46    1
   100   105   104    2
   101    40    38    1
   102    41    42    1
   103   161   162    1
   104   103   104    1
   105   103   106    1
   106   104   114   am
   107   118   119    1
   108   118   115    1
   109    46    48    1
   110   150   151   ar
   111   150   152   ar
   112   151   153   ar
   113   114   115    1
   114    39    38    1
   115    38    35    1
   116   115   116    1
   117    25    26    2
   118    25    24    1
   119   106   107    1
   120    35    34    1
   121    35    36    1
   122   152   154   ar
   123   153   154   ar
   124    24    23    1
   125    24    27    1
   126   136   134   am
   127   116   117    2
   128   116   121   am
   129   107   108   ar
   130   107   109   ar
   131    36    37    2
   132    23    21   am
   133    27    28    1
   134   134   133    1
   135   134   135    2
   136   108   110   ar
   137   133   130    1
   138   109   111   ar
   139    22    21    2
   140    21    20    1
   141   121   122    1
   142    29    28    1
   143    29    30    1
   144    32    31    1
   145   130   129    1
   146   130   131    1
   147    20    19    1
   148   129   123   am
   149   110   112   ar
   150    18    16    1
   151   111   112   ar
   152    30    31    2
   153   123   122    1
   154   123   124    2
   155    31    33    1
   156   122   125    1
   157    19    14   am
   158   112   113    1
   159   131   132    2
   160   125   126    1
   161    14    15    2
   162    14    13    1
   163    16    13    1
   164    16    17    1
   165   139   138    1
   166   139   140    2
   167   126   127    2
   168   126   128   am
   169    12    13    1
   170   138   137    1
   171   138   141    1
   172   143   142   ar
   173     4     3    2
   174   141   142    1
   175   142   144   ar
   176     3     2    1
   177     1     2    1
   178    11     9    1
   179     2     5    1
   180     6     5    1
   181     6     7    1
   182     9     8    2
   183     9    10    1
   184     8     7    1
