@<TRIPOS>MOLECULE
tmp/4rllA00.pdb
 172 165 0 0 0
SMALL
GASTEIGER

@<TRIPOS>ATOM
      1  N        -27.6020   22.4520   43.7430 N.3    42  ARG42      -0.1245
      2  CA       -26.9450   22.8370   42.4980 C.3    42  ARG42       0.1563
      3  C        -25.9710   21.7620   42.0400 C.2    42  ARG42       0.2260
      4  O        -25.4510   20.9920   42.8500 O.2    42  ARG42      -0.2867
      5  CB       -26.2150   24.1760   42.6500 C.3    42  ARG42       0.0307
      6  CG       -25.1320   24.1960   43.7120 C.3    42  ARG42       0.0489
      7  CD       -24.5950   25.6100   43.9210 C.3    42  ARG42       0.2205
      8  NE       -23.5560   25.6520   44.9480 N.pl3  42  ARG42      -0.0865
      9  CZ       -22.2500   25.5900   44.7000 C.cat  42  ARG42       0.5346
     10  NH1      -21.8120   25.4930   43.4500 N.pl3  42  ARG42       0.1354
     11  NH2      -21.3790   25.6300   45.7000 N.pl3  42  ARG42       0.1354
     12  N        -22.4940   20.4620   40.9340 N.3    44  LEU44      -0.1231
     13  CA       -21.1200   20.8750   41.1900 C.3    44  LEU44       0.1693
     14  C        -20.1980   20.5040   40.0340 C.2    44  LEU44       0.2592
     15  O        -19.2790   21.2520   39.6950 O.2    44  LEU44      -0.2718
     16  CB       -20.6160   20.2530   42.4920 C.3    44  LEU44       0.0284
     17  CG       -21.3230   20.7570   43.7490 C.3    44  LEU44       0.0019
     18  CD1      -20.8670   19.9820   44.9770 C.3    44  LEU44       0.0001
     19  CD2      -21.0740   22.2480   43.9300 C.3    44  LEU44       0.0001
     20  N        -20.4420   19.3470   39.4290 N.am   45  GLY45      -0.1957
     21  CA       -19.6250   18.9010   38.3170 C.3    45  GLY45       0.1869
     22  C        -20.1520   17.6430   37.6640 C.2    45  GLY45       0.2309
     23  O        -20.9970   16.9440   38.2200 O.2    45  GLY45      -0.2863
     24  N        -22.0140   15.3180   40.1010 N.3    52  VAL52      -0.1245
     25  CA       -21.9630   15.6250   41.5220 C.3    52  VAL52       0.1561
     26  C        -22.7900   16.8690   41.8430 C.2    52  VAL52       0.2260
     27  O        -22.6860   17.8910   41.1640 O.2    52  VAL52      -0.2867
     28  CB       -20.5100   15.8170   41.9920 C.3    52  VAL52       0.0252
     29  CG1      -20.4680   16.2900   43.4300 C.3    52  VAL52       0.0019
     30  CG2      -19.7350   14.5140   41.8390 C.3    52  VAL52       0.0019
     31  N        -23.2090   15.9560   49.9120 N.3    65  VAL65      -0.1245
     32  CA       -22.8680   15.8780   48.4990 C.3    65  VAL65       0.1561
     33  C        -23.5140   14.6390   47.8870 C.2    65  VAL65       0.2260
     34  O        -23.4190   13.5470   48.4430 O.2    65  VAL65      -0.2867
     35  CB       -21.3470   15.8370   48.2860 C.3    65  VAL65       0.0252
     36  CG1      -21.0170   15.5630   46.8320 C.3    65  VAL65       0.0019
     37  CG2      -20.7180   17.1440   48.7470 C.3    65  VAL65       0.0019
     38  N        -23.6110   12.1410   44.6570 N.3    67  LYS67      -0.1245
     39  CA       -22.9410   11.6900   43.4460 C.3    67  LYS67       0.1561
     40  C        -23.8340   10.7060   42.6950 C.2    67  LYS67       0.2260
     41  O        -23.9700    9.5510   43.0910 O.2    67  LYS67      -0.2867
     42  CB       -21.5980   11.0550   43.8070 C.3    67  LYS67       0.0271
     43  CG       -20.8100   10.4770   42.6550 C.3    67  LYS67       0.0035
     44  CD       -19.5110    9.9050   43.2170 C.3    67  LYS67       0.0206
     45  CE       -18.6700    9.2100   42.1750 C.3    67  LYS67       0.1093
     46  NZ       -17.4160    8.7080   42.8090 N.3    67  LYS67      -0.1314
     47  N        -17.1970    0.4170   44.1120 N.3    80  GLU80      -0.1245
     48  CA       -16.9980    1.6830   44.8190 C.3    80  GLU80       0.1567
     49  C        -17.7760    1.6910   46.1320 C.2    80  GLU80       0.2260
     50  O        -17.2790    2.1580   47.1570 O.2    80  GLU80      -0.2867
     51  CB       -17.4180    2.8770   43.9430 C.3    80  GLU80       0.0388
     52  CG       -17.3260    4.2380   44.6440 C.3    80  GLU80       0.1160
     53  CD       -17.5990    5.4230   43.7130 C.2    80  GLU80       0.3649
     54  OE1      -17.9060    5.2040   42.5230 O.co2  80  GLU80      -0.2457
     55  OE2      -17.4920    6.5820   44.1700 O.co2  80  GLU80      -0.2457
     56  N        -16.0510    1.9450   49.8020 N.3    84  LEU84      -0.1245
     57  CA       -16.4180    3.0530   50.6830 C.3    84  LEU84       0.1561
     58  C        -16.8750    2.5720   52.0650 C.2    84  LEU84       0.2260
     59  O        -16.4760    3.1320   53.0920 O.2    84  LEU84      -0.2867
     60  CB       -17.5150    3.8990   50.0340 C.3    84  LEU84       0.0270
     61  CG       -17.0690    4.8330   48.9070 C.3    84  LEU84       0.0019
     62  CD1      -18.2750    5.3760   48.1460 C.3    84  LEU84       0.0001
     63  CD2      -16.2170    5.9780   49.4580 C.3    84  LEU84       0.0001
     64  N        -13.1470    9.8860   52.8100 N.3    94  ILE94      -0.1245
     65  CA       -14.4760   10.4600   52.6670 C.3    94  ILE94       0.1561
     66  C        -15.5250    9.4830   53.2080 C.2    94  ILE94       0.2260
     67  O        -15.4310    8.2640   53.0120 O.2    94  ILE94      -0.2867
     68  CB       -14.7900   10.8450   51.1890 C.3    94  ILE94       0.0252
     69  CG1      -16.0050   11.7700   51.1290 C.3    94  ILE94       0.0019
     70  CG2      -14.9480    9.6180   50.2940 C.3    94  ILE94       0.0019
     71  CD1      -15.7260   13.1600   51.6730 C.3    94  ILE94       0.0001
     72  N        -22.4900   11.7700   50.4320 N.3   112  PHE112     -0.1227
     73  CA       -21.2820   11.9570   51.2310 C.3   112  PHE112      0.1736
     74  C        -21.4410   13.1160   52.1980 C.2   112  PHE112      0.2595
     75  O        -22.2770   13.9980   51.9990 O.2   112  PHE112     -0.2718
     76  CB       -20.0600   12.2220   50.3440 C.3   112  PHE112      0.0547
     77  CG       -19.7730   11.1370   49.3550 C.ar  112  PHE112     -0.0202
     78  CD1      -19.1020    9.9860   49.7430 C.ar  112  PHE112     -0.0042
     79  CD2      -20.1420   11.2790   48.0300 C.ar  112  PHE112     -0.0042
     80  CE1      -18.8270    8.9900   48.8280 C.ar  112  PHE112     -0.0003
     81  CE2      -19.8720   10.2860   47.1080 C.ar  112  PHE112     -0.0003
     82  CZ       -19.2100    9.1400   47.5080 C.ar  112  PHE112     -0.0000
     83  N        -20.6210   13.1030   53.2420 N.am  113  GLU113     -0.1965
     84  CA       -20.4660   14.2470   54.1260 C.3   113  GLU113      0.1733
     85  C        -20.0180   15.4580   53.3180 C.2   113  GLU113      0.2616
     86  O        -19.2910   15.3210   52.3320 O.2   113  GLU113     -0.2715
     87  CB       -19.4430   13.9410   55.2250 C.3   113  GLU113      0.0429
     88  CG       -18.0470   13.6210   54.6880 C.3   113  GLU113      0.1163
     89  CD       -17.0500   13.2820   55.7860 C.2   113  GLU113      0.3649
     90  OE1      -17.3740   13.4980   56.9750 O.co2 113  GLU113     -0.2457
     91  OE2      -15.9490   12.7910   55.4590 O.co2 113  GLU113     -0.2457
     92  N        -20.4490   16.6420   53.7340 N.am  114  HIS114     -0.1959
     93  CA       -20.0510   17.8690   53.0570 C.3   114  HIS114      0.1787
     94  C        -18.6960   18.3670   53.5620 C.2   114  HIS114      0.2620
     95  O        -18.4610   18.4320   54.7680 O.2   114  HIS114     -0.2715
     96  CB       -21.1160   18.9490   53.2500 C.3   114  HIS114      0.0785
     97  CG       -20.8170   20.2290   52.5360 C.ar  114  HIS114      0.0821
     98  ND1      -19.9160   21.1560   53.0140 N.ar  114  HIS114     -0.2267
     99  CD2      -21.3120   20.7450   51.3860 C.ar  114  HIS114      0.1154
    100  CE1      -19.8620   22.1830   52.1860 C.ar  114  HIS114      0.1986
    101  NE2      -20.7000   21.9590   51.1900 N.ar  114  HIS114     -0.2212
    102  N        -17.8120   18.7170   52.6310 N.am  115  VAL115     -0.1963
    103  CA       -16.5000   19.2630   52.9680 C.3   115  VAL115      0.1727
    104  C        -16.2640   20.5920   52.2500 C.2   115  VAL115      0.2616
    105  O        -16.1690   20.6310   51.0230 O.2   115  VAL115     -0.2715
    106  CB       -15.3610   18.2820   52.6010 C.3   115  VAL115      0.0290
    107  CG1      -14.0020   18.9280   52.8340 C.3   115  VAL115      0.0023
    108  CG2      -15.4850   16.9870   53.3930 C.3   115  VAL115      0.0023
    109  N        -16.1790   21.6770   53.0150 N.am  116  ASN116     -0.1958
    110  CA       -15.9260   22.9990   52.4470 C.3   116  ASN116      0.1819
    111  C        -14.5610   23.0610   51.7760 C.2   116  ASN116      0.2621
    112  O        -13.5560   23.3450   52.4210 O.2   116  ASN116     -0.2715
    113  CB       -16.0280   24.0770   53.5250 C.3   116  ASN116      0.1195
    114  CG       -17.4300   24.2110   54.0800 C.2   116  ASN116      0.2630
    115  OD1      -18.1840   25.1020   53.6860 O.2   116  ASN116     -0.2716
    116  ND2      -17.7910   23.3210   54.9980 N.am  116  ASN116     -0.0877
    117  N        -14.5390   22.8020   50.4740 N.am  117  ASN117     -0.1972
    118  CA       -13.2890   22.6220   49.7480 C.3   117  ASN117      0.1688
    119  C        -12.7260   23.8930   49.1280 C.2   117  ASN117      0.2292
    120  O        -13.4660   24.7430   48.6350 O.2   117  ASN117     -0.2864
    121  CB       -13.4770   21.5700   48.6530 C.3   117  ASN117      0.1181
    122  CG       -12.3220   21.5340   47.6700 C.2   117  ASN117      0.2629
    123  OD1      -11.2450   21.0140   47.9730 O.2   117  ASN117     -0.2716
    124  ND2      -12.5450   22.0780   46.4780 N.am  117  ASN117     -0.0877
    125  N         -7.3520   16.8590   42.2960 N.3   159  HIS159     -0.1241
    126  CA        -8.8110   16.9510   42.2740 C.3   159  HIS159      0.1621
    127  C         -9.4710   15.9870   43.2600 C.2   159  HIS159      0.2264
    128  O        -10.5560   16.2610   43.7760 O.2   159  HIS159     -0.2867
    129  CB        -9.3420   16.6850   40.8660 C.3   159  HIS159      0.0745
    130  CG       -10.8360   16.6920   40.7760 C.ar  159  HIS159      0.0817
    131  ND1      -11.5700   17.8560   40.6880 N.ar  159  HIS159     -0.2268
    132  CD2      -11.7350   15.6790   40.7720 C.ar  159  HIS159      0.1154
    133  CE1      -12.8560   17.5580   40.6270 C.ar  159  HIS159      0.1986
    134  NE2      -12.9830   16.2440   40.6750 N.ar  159  HIS159     -0.2212
    135  N         -9.6270   16.6010   48.5770 N.3   162  MET162     -0.1245
    136  CA       -10.4110   17.7620   48.9870 C.3   162  MET162      0.1570
    137  C         -9.9010   18.3270   50.3090 C.2   162  MET162      0.2261
    138  O         -9.8660   17.6270   51.3230 O.2   162  MET162     -0.2867
    139  CB       -11.8940   17.3990   49.1080 C.3   162  MET162      0.0387
    140  CG       -12.5820   17.0630   47.7820 C.3   162  MET162      0.0595
    141  SD       -12.6190   18.4500   46.6230 S.3   162  MET162     -0.1393
    142  CE       -13.7850   17.8700   45.3950 C.3   162  MET162      0.0692
    143  N        -11.0100   11.4500   48.1140 N.3   173  ILE173     -0.1231
    144  CA       -12.3230   11.1450   47.5290 C.3   173  ILE173      0.1692
    145  C        -12.2630   10.3630   46.2120 C.2   173  ILE173      0.2592
    146  O        -11.1870   10.0060   45.7430 O.2   173  ILE173     -0.2718
    147  CB       -13.1360   12.4340   47.2520 C.3   173  ILE173      0.0266
    148  CG1      -12.4500   13.2630   46.1650 C.3   173  ILE173      0.0019
    149  CG2      -13.3130   13.2570   48.5200 C.3   173  ILE173      0.0020
    150  CD1      -13.3470   14.3050   45.5290 C.3   173  ILE173      0.0001
    151  N        -13.4450   10.1470   45.6250 N.am  174  ASP174     -0.1960
    152  CA       -13.6560    9.4110   44.3650 C.3   174  ASP174      0.1840
    153  C        -12.9020    8.0930   44.3120 C.2   174  ASP174      0.2622
    154  O        -11.8260    7.9920   43.7190 O.2   174  ASP174     -0.2715
    155  CB       -13.2770   10.2570   43.1480 C.3   174  ASP174      0.1450
    156  CG       -13.9270    9.7450   41.8560 C.2   174  ASP174      0.3671
    157  OD1      -14.4060    8.5860   41.8260 O.co2 174  ASP174     -0.2456
    158  OD2      -13.9690   10.5060   40.8680 O.co2 174  ASP174     -0.2456
    159  N        -13.5030    7.0860   44.9320 N.am  175  TRP175     -0.1974
    160  CA       -12.9600    5.7440   44.9780 C.3   175  TRP175      0.1640
    161  C        -13.5270    4.8910   43.8450 C.2   175  TRP175      0.2290
    162  O        -13.5220    3.6640   43.9160 O.2   175  TRP175     -0.2864
    163  CB       -13.2560    5.1250   46.3520 C.3   175  TRP175      0.0576
    164  CG       -12.5900    5.9080   47.4430 C.ar  175  TRP175      0.0006
    165  CD1      -13.0180    7.0820   48.0000 C.ar  175  TRP175      0.0946
    166  CD2      -11.3480    5.5920   48.0760 C.ar  175  TRP175      0.0152
    167  NE1      -12.1150    7.5100   48.9530 N.ar  175  TRP175     -0.2442
    168  CE2      -11.0850    6.6080   49.0200 C.ar  175  TRP175      0.0810
    169  CE3      -10.4360    4.5400   47.9460 C.ar  175  TRP175      0.0012
    170  CZ2       -9.9460    6.6060   49.8180 C.ar  175  TRP175      0.0191
    171  CZ3       -9.3040    4.5400   48.7420 C.ar  175  TRP175      0.0001
    172  CH2       -9.0720    5.5630   49.6680 C.ar  175  TRP175      0.0015
@<TRIPOS>BOND
     1    22    23    2
     2    22    21    1
     3    21    20    1
     4    20    14   am
     5    15    14    2
     6    14    13    1
     7    24    25    1
     8   133   134   ar
     9   133   131   ar
    10   134   132   ar
    11   131   130   ar
    12   132   130   ar
    13   130   129    1
    14   129   126    1
    15   158   156   ar
    16    12    13    1
    17    27    26    2
    18    13    16    1
    19    25    26    1
    20    25    28    1
    21   157   156   ar
    22    30    28    1
    23   156   155    1
    24    28    29    1
    25     3     2    1
    26     3     4    2
    27    45    46    1
    28    45    44    1
    29   126   125    1
    30   126   127    1
    31    16    17    1
    32     2     5    1
    33     2     1    1
    34    54    53   ar
    35     5     6    1
    36    43    44    1
    37    43    42    1
    38    40    41    2
    39    40    39    1
    40   155   152    1
    41   127   128    2
    42    39    42    1
    43    39    38    1
    44    10     9    1
    45     6     7    1
    46    53    55   ar
    47    53    52    1
    48   154   153    2
    49    17    19    1
    50    17    18    1
    51   161   162    2
    52   161   160    1
    53     7     8    1
    54    51    52    1
    55    51    48    1
    56    47    48    1
    57   153   152    1
    58   153   159   am
    59   152   151    1
    60     9     8    2
    61     9    11    1
    62    48    49    1
    63   159   160    1
    64   160   163    1
    65   142   141    1
    66   150   148    1
    67   151   145   am
    68   146   145    2
    69    49    50    2
    70   148   147    1
    71   145   144    1
    72   163   164    1
    73   124   122   am
    74   141   140    1
    75    36    35    1
    76    81    82   ar
    77    81    79   ar
    78   147   144    1
    79   147   149    1
    80   164   165   ar
    81   164   166   ar
    82    82    80   ar
    83   144   143    1
    84   122   123    2
    85   122   121    1
    86   140   139    1
    87    33    34    2
    88    33    32    1
    89   169   166   ar
    90   169   171   ar
    91   165   167   ar
    92    79    77   ar
    93   166   168   ar
    94    62    61    1
    95    35    32    1
    96    35    37    1
    97    32    31    1
    98   135   136    1
    99   120   119    2
   100   121   118    1
   101   171   172   ar
   102    80    78   ar
   103    61    63    1
   104    61    60    1
   105   167   168   ar
   106   136   139    1
   107   136   137    1
   108   168   170   ar
   109   119   118    1
   110    77    78   ar
   111    77    76    1
   112   172   170   ar
   113   118   117    1
   114    56    57    1
   115    60    57    1
   116    70    68    1
   117   137   138    2
   118    76    73    1
   119    72    73    1
   120   117   111   am
   121    57    58    1
   122   105   104    2
   123    69    68    1
   124    69    71    1
   125    68    65    1
   126   101    99   ar
   127   101   100   ar
   128    73    74    1
   129    99    97   ar
   130   111   112    2
   131   111   110    1
   132    75    74    2
   133    58    59    2
   134   100    98   ar
   135    74    83   am
   136   104   103    1
   137   104   109   am
   138    86    85    2
   139   110   109    1
   140   110   113    1
   141    97    98   ar
   142    97    96    1
   143   106   107    1
   144   106   103    1
   145   106   108    1
   146   102   103    1
   147   102    94   am
   148    65    64    1
   149    65    66    1
   150    67    66    2
   151    93    96    1
   152    93    94    1
   153    93    92    1
   154    83    84    1
   155    85    92   am
   156    85    84    1
   157   113   114    1
   158    94    95    2
   159   115   114    2
   160   114   116   am
   161    84    87    1
   162    88    87    1
   163    88    89    1
   164    91    89   ar
   165    89    90   ar
