@<TRIPOS>MOLECULE
tmp/4rloA00.pdb
 143 132 0 0 0
SMALL
GASTEIGER

@<TRIPOS>ATOM
      1  N         83.3350    8.5380   -4.3680 N.3    11  ARG11      -0.1245
      2  CA        83.3260    9.1820   -3.0670 C.3    11  ARG11       0.1563
      3  C         83.7910    8.2360   -1.9900 C.2    11  ARG11       0.2260
      4  O         83.8740    7.0380   -2.2060 O.2    11  ARG11      -0.2867
      5  CB        81.9340    9.6670   -2.7050 C.3    11  ARG11       0.0307
      6  CG        80.9260    8.5770   -2.4590 C.3    11  ARG11       0.0489
      7  CD        79.5590    9.2010   -2.3410 C.3    11  ARG11       0.2205
      8  NE        78.4910    8.2380   -2.1330 N.pl3  11  ARG11      -0.0865
      9  CZ        78.0340    7.8580   -0.9510 C.cat  11  ARG11       0.5346
     10  NH1       78.5580    8.3380    0.1610 N.pl3  11  ARG11       0.1354
     11  NH2       77.0450    6.9880   -0.8850 N.pl3  11  ARG11       0.1354
     12  N         83.0060    6.3270    1.3220 N.3    13  LEU13      -0.1231
     13  CA        81.8900    5.8010    2.0880 C.3    13  LEU13       0.1693
     14  C         82.1930    5.9040    3.5710 C.2    13  LEU13       0.2592
     15  O         81.2910    6.0430    4.3910 O.2    13  LEU13      -0.2718
     16  CB        81.6340    4.3540    1.6960 C.3    13  LEU13       0.0284
     17  CG        81.1880    4.2030    0.2500 C.3    13  LEU13       0.0019
     18  CD1       81.3600    2.7750   -0.2020 C.3    13  LEU13       0.0001
     19  CD2       79.7440    4.6330    0.1090 C.3    13  LEU13       0.0001
     20  N         83.4670    5.7980    3.8630 N.am   14  GLY14      -0.1957
     21  CA        83.9540    5.9350    5.1880 C.3    14  GLY14       0.1869
     22  C         85.4130    5.6380    5.3160 C.2    14  GLY14       0.2309
     23  O         86.0620    5.1890    4.4150 O.2    14  GLY14      -0.2863
     24  N         87.2820    3.4570    7.8790 N.3    16  GLY16      -0.1225
     25  CA        87.2840    2.5570    9.0040 C.3    16  GLY16       0.1811
     26  C         88.6990    2.2980    9.4450 C.2    16  GLY16       0.2280
     27  O         89.6320    2.6230    8.7430 O.2    16  GLY16      -0.2866
     28  N         87.3520    3.2640    2.3310 N.3    21  VAL21      -0.1245
     29  CA        86.4630    2.5600    1.4200 C.3    21  VAL21       0.1561
     30  C         85.7480    3.5610    0.5320 C.2    21  VAL21       0.2260
     31  O         84.9650    4.3800    1.0130 O.2    21  VAL21      -0.2867
     32  CB        85.4100    1.7180    2.1620 C.3    21  VAL21       0.0252
     33  CG1       84.5100    1.0130    1.1650 C.3    21  VAL21       0.0019
     34  CG2       86.0800    0.7010    3.0750 C.3    21  VAL21       0.0019
     35  N         82.0970   -1.0640   -4.1810 N.3    37  ALA37      -0.1245
     36  CA        82.8790   -0.4280   -3.1300 C.3    37  ALA37       0.1562
     37  C         84.3030   -0.9270   -3.2990 C.2    37  ALA37       0.2260
     38  O         84.5130   -2.0100   -3.8240 O.2    37  ALA37      -0.2867
     39  CB        82.3410   -0.7940   -1.7660 C.3    37  ALA37       0.0290
     40  N         87.8960   -1.1840   -1.0430 N.3    39  LYS39      -0.1245
     41  CA        88.6050   -0.9620    0.1990 C.3    39  LYS39       0.1561
     42  C         90.0950   -0.9240   -0.0690 C.2    39  LYS39       0.2260
     43  O         90.6150   -1.7010   -0.8630 O.2    39  LYS39      -0.2867
     44  CB        88.2740   -2.0600    1.2020 C.3    39  LYS39       0.0271
     45  CG        88.9300   -1.8360    2.5350 C.3    39  LYS39       0.0035
     46  CD        88.5560   -2.9010    3.5290 C.3    39  LYS39       0.0206
     47  CE        89.2590   -2.6470    4.8470 C.3    39  LYS39       0.1093
     48  NZ        88.9270   -3.6700    5.8700 N.3    39  LYS39      -0.1314
     49  N         91.4600  -10.2000    5.8600 N.3    45  GLU45      -0.1245
     50  CA        90.1390   -9.9500    5.2920 C.3    45  GLU45       0.1567
     51  C         89.9410  -10.5730    3.9140 C.2    45  GLU45       0.2260
     52  O         88.8670  -11.1050    3.6210 O.2    45  GLU45      -0.2867
     53  CB        89.8670   -8.4460    5.1950 C.3    45  GLU45       0.0388
     54  CG        88.4870   -8.1340    4.6240 C.3    45  GLU45       0.1160
     55  CD        87.9970   -6.7510    4.9870 C.2    45  GLU45       0.3649
     56  OE1       88.8520   -5.8720    5.2090 O.co2  45  GLU45      -0.2457
     57  OE2       86.7630   -6.5470    5.0610 O.co2  45  GLU45      -0.2457
     58  N         78.7290   -9.6090    2.7480 N.3    58  VAL58      -0.1245
     59  CA        79.1540   -8.8290    1.5990 C.3    58  VAL58       0.1561
     60  C         80.0720   -9.6610    0.7190 C.2    58  VAL58       0.2260
     61  O         81.0160  -10.2800    1.2060 O.2    58  VAL58      -0.2867
     62  CB        79.8730   -7.5390    2.0270 C.3    58  VAL58       0.0252
     63  CG1       81.1460   -7.8630    2.8040 C.3    58  VAL58       0.0019
     64  CG2       80.1880   -6.6780    0.8100 C.3    58  VAL58       0.0019
     65  N         84.3910   -4.8850   -3.5010 N.3    72  LEU72      -0.1231
     66  CA        83.2280   -5.5390   -2.9230 C.3    72  LEU72       0.1693
     67  C         81.9550   -5.0490   -3.5940 C.2    72  LEU72       0.2592
     68  O         81.9700   -4.0390   -4.2860 O.2    72  LEU72      -0.2718
     69  CB        83.1840   -5.2340   -1.4280 C.3    72  LEU72       0.0284
     70  CG        84.4920   -5.5740   -0.7070 C.3    72  LEU72       0.0019
     71  CD1       84.9260   -4.4490    0.2110 C.3    72  LEU72       0.0001
     72  CD2       84.3380   -6.8740    0.0660 C.3    72  LEU72       0.0001
     73  N         80.8520   -5.7620   -3.4050 N.am   73  GLU73      -0.1966
     74  CA        79.5800   -5.2590   -3.8970 C.3    73  GLU73       0.1733
     75  C         79.2510   -3.9870   -3.1230 C.2    73  GLU73       0.2616
     76  O         79.5970   -3.8660   -1.9460 O.2    73  GLU73      -0.2715
     77  CB        78.4610   -6.2890   -3.7300 C.3    73  GLU73       0.0429
     78  CG        77.9230   -6.3890   -2.3140 C.3    73  GLU73       0.1163
     79  CD        76.8460   -7.4440   -2.1600 C.2    73  GLU73       0.3649
     80  OE1       77.1540   -8.5330   -1.6330 O.co2  73  GLU73      -0.2457
     81  OE2       75.6910   -7.1790   -2.5500 O.co2  73  GLU73      -0.2457
     82  N         78.6010   -3.0350   -3.7870 N.am   74  TYR74      -0.1960
     83  CA        78.1750   -1.8100   -3.1250 C.3    74  TYR74       0.1771
     84  C         76.8160   -2.0060   -2.4580 C.2    74  TYR74       0.2619
     85  O         75.8730   -2.4940   -3.0750 O.2    74  TYR74      -0.2715
     86  CB        78.1100   -0.6410   -4.1060 C.3    74  TYR74       0.0574
     87  CG        77.4320    0.5770   -3.5100 C.ar   74  TYR74      -0.0198
     88  CD1       78.0460    1.3180   -2.5150 C.ar   74  TYR74      -0.0009
     89  CD2       76.1750    0.9700   -3.9350 C.ar   74  TYR74      -0.0009
     90  CE1       77.4290    2.4130   -1.9650 C.ar   74  TYR74       0.0417
     91  CE2       75.5540    2.0630   -3.3950 C.ar   74  TYR74       0.0417
     92  CZ        76.1820    2.7830   -2.4080 C.ar   74  TYR74       0.1957
     93  OH        75.5560    3.8830   -1.8640 O.3    74  TYR74      -0.2866
     94  N         76.7230   -1.6190   -1.1910 N.am   75  LEU75      -0.1963
     95  CA        75.5020   -1.8160   -0.4200 C.3    75  LEU75       0.1728
     96  C         74.7920   -0.4790   -0.2670 C.2    75  LEU75       0.2616
     97  O         75.2990    0.4350    0.3750 O.2    75  LEU75      -0.2715
     98  CB        75.8280   -2.4230    0.9460 C.3    75  LEU75       0.0311
     99  CG        76.7090   -3.6770    0.8870 C.3    75  LEU75       0.0022
    100  CD1       77.2960   -3.9900    2.2450 C.3    75  LEU75       0.0001
    101  CD2       75.9290   -4.8710    0.3540 C.3    75  LEU75       0.0001
    102  N         73.6190   -0.3670   -0.8750 N.am   76  SER76      -0.1950
    103  CA        72.9080    0.9010   -0.9230 C.3    76  SER76       0.1924
    104  C         72.0050    1.1040    0.2890 C.2    76  SER76       0.2314
    105  O         71.6620    2.2330    0.6210 O.2    76  SER76      -0.2863
    106  CB        72.0720    0.9820   -2.2010 C.3    76  SER76       0.2116
    107  OG        71.0830   -0.0350   -2.2230 O.3    76  SER76      -0.2180
    108  N         72.5780    0.9620    3.2980 N.3    78  GLY78      -0.1210
    109  CA        73.2300    1.6590    4.3890 C.3    78  GLY78       0.1956
    110  C         73.1740    0.9160    5.7100 C.2    78  GLY78       0.2611
    111  O         72.8800   -0.2800    5.7580 O.2    78  GLY78      -0.2717
    112  N         73.4460    1.6770    6.7640 N.am   79  GLU79      -0.1979
    113  CA        73.5070    1.1820    8.1300 C.3    79  GLU79       0.1602
    114  C         72.1300    0.8420    8.6590 C.2    79  GLU79       0.2287
    115  O         71.1710    1.5520    8.4140 O.2    79  GLU79      -0.2864
    116  CB        74.1450    2.2220    9.0440 C.3    79  GLU79       0.0415
    117  CG        75.6490    2.2970    8.9520 C.3    79  GLU79       0.1163
    118  CD        76.2470    3.2360    9.9760 C.2    79  GLU79       0.3649
    119  OE1       75.8450    3.1760   11.1490 O.co2  79  GLU79      -0.2457
    120  OE2       77.1200    4.0370    9.6110 O.co2  79  GLU79      -0.2457
    121  N         75.3020   -3.6740    7.6340 N.3   125  MET125     -0.1245
    122  CA        74.8410   -2.9600    6.4530 C.3   125  MET125      0.1570
    123  C         73.6160   -3.6580    5.9000 C.2   125  MET125      0.2261
    124  O         73.3700   -4.8270    6.1930 O.2   125  MET125     -0.2867
    125  CB        75.9330   -2.9060    5.3820 C.3   125  MET125      0.0387
    126  CG        77.1980   -2.1630    5.8090 C.3   125  MET125      0.0595
    127  SD        76.9220   -0.4490    6.3420 S.3   125  MET125     -0.1393
    128  CE        76.2160    0.2900    4.8720 C.3   125  MET125      0.0692
    129  N         79.8570   -7.2150    7.1530 N.3   135  THR135     -0.1203
    130  CA        80.7200   -6.3850    6.3800 C.3   135  THR135      0.1994
    131  C         82.2470   -6.1860    6.6970 C.2   135  THR135      0.2617
    132  O         83.0440   -6.5430    5.8640 O.2   135  THR135     -0.2717
    133  CB        79.9830   -5.0840    6.3030 C.3   135  THR135      0.1784
    134  OG1       80.4030   -4.3520    5.1670 O.3   135  THR135     -0.2211
    135  CG2       80.2130   -4.3610    7.5250 C.3   135  THR135      0.0376
    136  N         82.6830   -5.6240    7.8210 N.am  136  ASP136     -0.1973
    137  CA        84.1240   -5.3590    8.0390 C.3   136  ASP136      0.1709
    138  C         84.9040   -6.5180    8.6670 C.2   136  ASP136      0.2293
    139  O         84.3640   -7.1810    9.5110 O.2   136  ASP136     -0.2864
    140  CB        84.2590   -4.1260    8.9210 C.3   136  ASP136      0.1436
    141  CG        85.6700   -3.5550    8.9790 C.2   136  ASP136      0.3671
    142  OD1       86.6370   -4.2340    8.6520 O.co2 136  ASP136     -0.2456
    143  OD2       85.8190   -2.4100    9.4080 O.co2 136  ASP136     -0.2456
@<TRIPOS>BOND
     1     1     2    1
     2    68    67    2
     3    35    36    1
     4    86    87    1
     5    86    83    1
     6    89    87   ar
     7    89    91   ar
     8    74    77    1
     9    74    73    1
    10    74    75    1
    11    38    37    2
    12    82    83    1
    13    82    75   am
    14    77    78    1
    15    67    73   am
    16    67    66    1
    17    87    88   ar
    18    65    66    1
    19    91    92   ar
    20    37    36    1
    21    36    39    1
    22    83    84    1
    23    75    76    2
    24    85    84    2
    25     2     5    1
    26     2     3    1
    27    66    69    1
    28     5     6    1
    29    81    79   ar
    30    88    90   ar
    31     6     7    1
    32    84    94   am
    33    92    90   ar
    34    92    93    1
    35     7     8    1
    36    78    79    1
    37   107   106    1
    38     4     3    2
    39   106   103    1
    40    79    80   ar
    41     8     9    2
    42    69    70    1
    43    94    95    1
    44    40    41    1
    45     9    11    1
    46     9    10    1
    47   103   102    1
    48   103   104    1
    49   102    96   am
    50    43    42    2
    51    70    72    1
    52    70    71    1
    53    95    96    1
    54    95    98    1
    55    96    97    2
    56    18    17    1
    57    42    41    1
    58    19    17    1
    59    41    44    1
    60    17    16    1
    61   104   105    2
    62   101    99    1
    63    30    31    2
    64    30    29    1
    65    60    61    2
    66    60    59    1
    67    64    62    1
    68    99    98    1
    69    99   100    1
    70    33    32    1
    71    44    45    1
    72    12    13    1
    73    29    32    1
    74    29    28    1
    75    59    62    1
    76    59    58    1
    77    16    13    1
    78    62    63    1
    79    13    14    1
    80    32    34    1
    81    45    46    1
    82   108   109    1
    83    46    47    1
    84    14    20   am
    85    14    15    2
    86    52    51    2
    87    20    21    1
    88    51    50    1
    89   109   110    1
    90    23    22    2
    91    54    55    1
    92    54    53    1
    93    47    48    1
    94   128   127    1
    95    55    57   ar
    96    55    56   ar
    97   134   133    1
    98    21    22    1
    99    53    50    1
   100    50    49    1
   101   125   126    1
   102   125   122    1
   103   110   111    2
   104   110   112   am
   105   126   127    1
   106   132   131    2
   107   123   124    2
   108   123   122    1
   109   133   130    1
   110   133   135    1
   111   130   131    1
   112   130   129    1
   113   122   121    1
   114   131   136   am
   115   112   113    1
   116   136   137    1
   117    24    25    1
   118   137   138    1
   119   137   140    1
   120   113   114    1
   121   113   116    1
   122   115   114    2
   123   142   141   ar
   124   138   139    2
   125    27    26    2
   126   140   141    1
   127   117   116    1
   128   117   118    1
   129   141   143   ar
   130    25    26    1
   131   120   118   ar
   132   118   119   ar
