@<TRIPOS>MOLECULE
tmp/4rlpA00.pdb
 130 123 0 0 0
SMALL
GASTEIGER

@<TRIPOS>ATOM
      1  N         71.2580   34.9020    4.3700 N.3    13  LEU13      -0.1231
      2  CA        71.7960   33.5800    4.2670 C.3    13  LEU13       0.1696
      3  C         71.8090   32.8890    5.5980 C.2    13  LEU13       0.2631
      4  O         71.4850   31.7370    5.6950 O.2    13  LEU13      -0.2714
      5  CB        73.1890   33.6500    3.7020 C.3    13  LEU13       0.0284
      6  CG        73.2800   34.1450    2.2820 C.3    13  LEU13       0.0019
      7  CD1       74.7110   34.3390    1.8960 C.3    13  LEU13       0.0001
      8  CD2       72.6520   33.1550    1.3560 C.3    13  LEU13       0.0001
      9  N         72.1830   33.6150    6.6300 N.am   14  GLY14      -0.1732
     10  CA        72.1230   33.0990    7.9630 C.2    14  GLY14       0.1340
     11  C         72.2120   34.1160    9.0610 C.2    14  GLY14       0.2521
     12  O         72.9290   35.0810    8.9740 O.2    14  GLY14      -0.2816
     13  N         74.4270   37.2020    8.0430 N.3    21  VAL21      -0.1245
     14  CA        75.0660   37.0580    6.7490 C.3    21  VAL21       0.1561
     15  C         74.0350   37.2490    5.6530 C.2    21  VAL21       0.2260
     16  O         72.9910   36.6250    5.6600 O.2    21  VAL21      -0.2867
     17  CB        75.7530   35.6860    6.6160 C.3    21  VAL21       0.0252
     18  CG1       76.1490   35.3930    5.1830 C.3    21  VAL21       0.0019
     19  CG2       76.9780   35.6400    7.4980 C.3    21  VAL21       0.0019
     20  N         78.4830   37.8050   -0.5380 N.3    37  ALA37      -0.1245
     21  CA        77.8800   37.5550    0.7430 C.3    37  ALA37       0.1562
     22  C         78.4060   38.5890    1.7150 C.2    37  ALA37       0.2260
     23  O         79.5910   38.8370    1.7710 O.2    37  ALA37      -0.2867
     24  CB        78.2080   36.1600    1.2040 C.3    37  ALA37       0.0290
     25  N         78.7630   39.8650    5.6460 N.3    39  LYS39      -0.1245
     26  CA        78.7130   39.4960    7.0480 C.3    39  LYS39       0.1561
     27  C         78.9060   40.7370    7.8950 C.2    39  LYS39       0.2260
     28  O         79.7740   41.5420    7.6130 O.2    39  LYS39      -0.2867
     29  CB        79.7920   38.4720    7.3610 C.3    39  LYS39       0.0271
     30  CG        80.0010   38.2310    8.8400 C.3    39  LYS39       0.0035
     31  CD        80.1250   36.7590    9.1560 C.3    39  LYS39       0.0206
     32  CE        79.6200   36.4460   10.5500 C.3    39  LYS39       0.1093
     33  NZ        80.6560   35.8010   11.4020 N.3    39  LYS39      -0.1314
     34  N         87.1330   30.4160    2.0940 N.3    56  VAL56      -0.1245
     35  CA        86.3670   31.4860    1.4790 C.3    56  VAL56       0.1561
     36  C         87.1760   32.7510    1.3320 C.2    56  VAL56       0.2260
     37  O         87.8180   33.1960    2.2660 O.2    56  VAL56      -0.2867
     38  CB        85.1340   31.8200    2.3200 C.3    56  VAL56       0.0252
     39  CG1       84.3240   32.9120    1.6670 C.3    56  VAL56       0.0019
     40  CG2       84.2810   30.5910    2.5100 C.3    56  VAL56       0.0019
     41  N         82.3200   38.8290    1.3380 N.3    72  LEU72      -0.1231
     42  CA        82.9200   37.5880    0.9180 C.3    72  LEU72       0.1693
     43  C         82.3340   37.1060   -0.3790 C.2    72  LEU72       0.2592
     44  O         81.3440   37.6240   -0.8510 O.2    72  LEU72      -0.2718
     45  CB        82.7030   36.5340    1.9830 C.3    72  LEU72       0.0284
     46  CG        83.0180   37.0340    3.3840 C.3    72  LEU72       0.0019
     47  CD1       81.8390   36.8660    4.3140 C.3    72  LEU72       0.0001
     48  CD2       84.2460   36.3480    3.9380 C.3    72  LEU72       0.0001
     49  N         82.9640   36.0980   -0.9510 N.am   73  GLU73      -0.1966
     50  CA        82.4770   35.5020   -2.1730 C.3    73  GLU73       0.1733
     51  C         81.2600   34.6690   -1.8590 C.2    73  GLU73       0.2616
     52  O         81.2000   34.0310   -0.8250 O.2    73  GLU73      -0.2715
     53  CB        83.5510   34.6250   -2.7970 C.3    73  GLU73       0.0429
     54  CG        84.0190   33.5200   -1.8850 C.3    73  GLU73       0.1163
     55  CD        84.5790   32.3390   -2.6350 C.2    73  GLU73       0.3649
     56  OE1       84.0810   32.0510   -3.7350 O.co2  73  GLU73      -0.2457
     57  OE2       85.5090   31.6970   -2.1170 O.co2  73  GLU73      -0.2457
     58  N         80.2830   34.6830   -2.7530 N.am   74  TYR74      -0.1960
     59  CA        79.0800   33.9040   -2.5490 C.3    74  TYR74       0.1771
     60  C         79.3080   32.4800   -2.9840 C.2    74  TYR74       0.2619
     61  O         79.8730   32.2310   -4.0340 O.2    74  TYR74      -0.2715
     62  CB        77.9200   34.4920   -3.3310 C.3    74  TYR74       0.0574
     63  CG        76.6630   33.6770   -3.2490 C.ar   74  TYR74      -0.0198
     64  CD1       76.0100   33.5040   -2.0530 C.ar   74  TYR74      -0.0009
     65  CD2       76.1300   33.0840   -4.3670 C.ar   74  TYR74      -0.0009
     66  CE1       74.8620   32.7570   -1.9710 C.ar   74  TYR74       0.0417
     67  CE2       74.9830   32.3360   -4.2930 C.ar   74  TYR74       0.0417
     68  CZ        74.3570   32.1780   -3.0890 C.ar   74  TYR74       0.1957
     69  OH        73.2130   31.4380   -3.0010 O.3    74  TYR74      -0.2866
     70  N         78.8440   31.5360   -2.1850 N.am   75  LEU75      -0.1963
     71  CA        78.9580   30.1520   -2.5650 C.3    75  LEU75       0.1728
     72  C         77.6040   29.5460   -2.8680 C.2    75  LEU75       0.2616
     73  O         76.7620   29.4030   -1.9980 O.2    75  LEU75      -0.2715
     74  CB        79.6490   29.3920   -1.4450 C.3    75  LEU75       0.0311
     75  CG        80.9200   30.0930   -0.9810 C.3    75  LEU75       0.0022
     76  CD1       81.2860   29.7080    0.4260 C.3    75  LEU75       0.0001
     77  CD2       82.0680   29.8020   -1.9170 C.3    75  LEU75       0.0001
     78  N         77.3780   29.1910   -4.1210 N.am   76  SER76      -0.1950
     79  CA        76.0910   28.6400   -4.4960 C.3    76  SER76       0.1924
     80  C         75.9260   27.2480   -3.9230 C.2    76  SER76       0.2314
     81  O         74.8220   26.8220   -3.6210 O.2    76  SER76      -0.2863
     82  CB        75.9430   28.6060   -6.0100 C.3    76  SER76       0.2116
     83  OG        77.1210   28.1200   -6.6180 O.3    76  SER76      -0.2180
     84  N         76.4250   26.1240   -1.1500 N.3    78  GLY78      -0.1210
     85  CA        75.8250   26.1220    0.1680 C.3    78  GLY78       0.1956
     86  C         76.3570   25.0330    1.0730 C.2    78  GLY78       0.2611
     87  O         77.4800   24.5710    0.9120 O.2    78  GLY78      -0.2717
     88  N         75.5320   24.6250    2.0300 N.am   79  GLU79      -0.1979
     89  CA        75.9170   23.6420    3.0320 C.3    79  GLU79       0.1602
     90  C         76.1310   22.2510    2.4590 C.2    79  GLU79       0.2287
     91  O         75.4440   21.8270    1.5340 O.2    79  GLU79      -0.2864
     92  CB        74.8480   23.5560    4.1220 C.3    79  GLU79       0.0415
     93  CG        75.0110   24.5280    5.2760 C.3    79  GLU79       0.1163
     94  CD        73.8630   24.4410    6.2590 C.2    79  GLU79       0.3649
     95  OE1       73.3330   23.3300    6.4560 O.co2  79  GLU79      -0.2457
     96  OE2       73.4870   25.4790    6.8340 O.co2  79  GLU79      -0.2457
     97  N         80.9750   24.5010    3.6320 N.3   125  MET125     -0.1245
     98  CA        80.2310   25.0440    2.5110 C.3   125  MET125      0.1570
     99  C         80.8860   24.6310    1.2080 C.2   125  MET125      0.2261
    100  O         82.0460   24.2590    1.1810 O.2   125  MET125     -0.2867
    101  CB        80.1890   26.5650    2.5760 C.3   125  MET125      0.0387
    102  CG        79.6970   27.1490    3.8850 C.3   125  MET125      0.0595
    103  SD        77.9160   27.1310    4.1440 S.3   125  MET125     -0.1393
    104  CE        77.2740   27.0840    2.4800 C.3   125  MET125      0.0692
    105  N         84.4190   28.4670    6.1660 N.3   135  THR135     -0.1203
    106  CA        83.7690   29.7480    6.2830 C.3   135  THR135      0.1994
    107  C         83.9780   30.5160    7.5740 C.2   135  THR135      0.2618
    108  O         84.6250   31.5250    7.5380 O.2   135  THR135     -0.2717
    109  CB        82.2470   29.6190    6.0460 C.3   135  THR135      0.1784
    110  OG1       81.9860   28.9220    4.8290 O.3   135  THR135     -0.2211
    111  CG2       81.6310   30.9580    5.9500 C.3   135  THR135      0.0376
    112  N         83.3980   30.0740    8.6910 N.am  136  ASP136     -0.1959
    113  CA        83.2960   30.9320    9.8770 C.3   136  ASP136      0.1840
    114  C         84.4740   30.9790   10.8140 C.2   136  ASP136      0.2622
    115  O         84.8780   29.9710   11.3600 O.2   136  ASP136     -0.2715
    116  CB        82.0320   30.6710   10.7030 C.3   136  ASP136      0.1450
    117  CG        81.8720   31.6730   11.8700 C.2   136  ASP136      0.3671
    118  OD1       82.6650   32.6140   11.9780 O.co2 136  ASP136     -0.2456
    119  OD2       80.9530   31.5300   12.6900 O.co2 136  ASP136     -0.2456
    120  N         84.9570   32.1930   11.0430 N.am  137  PHE137     -0.1974
    121  CA        86.1170   32.4200   11.8670 C.3   137  PHE137      0.1639
    122  C         85.7920   33.3420   13.0400 C.2   137  PHE137      0.2290
    123  O         86.4720   34.3190   13.2570 O.2   137  PHE137     -0.2864
    124  CB        87.2480   33.0050   11.0240 C.3   137  PHE137      0.0560
    125  CG        87.6810   32.1290    9.8800 C.ar  137  PHE137     -0.0200
    126  CD1       86.7690   31.4050    9.1700 C.ar  137  PHE137     -0.0042
    127  CD2       88.9970   32.0440    9.5100 C.ar  137  PHE137     -0.0042
    128  CE1       87.1300   30.6150    8.1080 C.ar  137  PHE137     -0.0003
    129  CE2       89.3750   31.2510    8.4510 C.ar  137  PHE137     -0.0003
    130  CZ        88.4360   30.5300    7.7560 C.ar  137  PHE137     -0.0000
@<TRIPOS>BOND
     1    83    82    1
     2    82    79    1
     3    79    78    1
     4    79    80    1
     5    65    67   ar
     6    65    63   ar
     7    67    68   ar
     8    78    72   am
     9    61    60    2
    10    80    81    2
    11    56    55   ar
    12    62    63    1
    13    62    59    1
    14    63    64   ar
    15    68    69    1
    16    68    66   ar
    17    60    59    1
    18    60    70   am
    19    72    71    1
    20    72    73    2
    21    53    50    1
    22    53    54    1
    23    58    59    1
    24    58    51   am
    25    55    57   ar
    26    55    54    1
    27    71    70    1
    28    71    74    1
    29    50    51    1
    30    50    49    1
    31    64    66   ar
    32    77    75    1
    33    51    52    2
    34    74    75    1
    35    84    85    1
    36    75    76    1
    37    49    43   am
    38    44    43    2
    39    20    21    1
    40    43    42    1
    41    85    86    1
    42    21    24    1
    43    21    22    1
    44    87    86    2
    45    42    41    1
    46    42    45    1
    47    86    88   am
    48   100    99    2
    49    99    98    1
    50    36    35    1
    51    36    37    2
    52     8     6    1
    53    35    34    1
    54    35    38    1
    55    91    90    2
    56    39    38    1
    57    22    23    2
    58     7     6    1
    59    45    46    1
    60    88    89    1
    61     6     5    1
    62    38    40    1
    63    90    89    1
    64   104   103    1
    65    98   101    1
    66    98    97    1
    67   101   102    1
    68    89    92    1
    69    46    48    1
    70    46    47    1
    71     5     2    1
    72   102   103    1
    73    92    93    1
    74     2     1    1
    75     2     3    1
    76   110   109    1
    77    18    17    1
    78    93    94    1
    79     3     4    2
    80     3     9    1
    81    25    26    1
    82    15    16    2
    83    15    14    1
    84   111   109    1
    85   109   106    1
    86   105   106    1
    87    94    95   ar
    88    94    96   ar
    89   106   107    1
    90    17    14    1
    91    17    19    1
    92     9    10    2
    93    14    13    1
    94    26    29    1
    95    26    27    1
    96    29    30    1
    97   108   107    2
    98   107   112   am
    99    28    27    2
   100   130   128   ar
   101   130   129   ar
   102    10    11    1
   103   128   126   ar
   104   129   127   ar
   105   112   113    1
   106    30    31    1
   107    12    11    2
   108    31    32    1
   109   126   125   ar
   110   127   125   ar
   111   113   116    1
   112   113   114    1
   113   125   124    1
   114    32    33    1
   115   116   117    1
   116   114   120   am
   117   114   115    2
   118   124   121    1
   119   120   121    1
   120   121   122    1
   121   117   118   ar
   122   117   119   ar
   123   122   123    2
