@<TRIPOS>MOLECULE
tmp/4rlrA00.pdb
 231 223 0 0 0
SMALL
GASTEIGER

@<TRIPOS>ATOM
      1  N         25.1720   10.9060   27.5010 N.3    13  PHE13      -0.1241
      2  CA        25.1570   10.6770   28.9290 C.3    13  PHE13       0.1605
      3  C         24.1950    9.5610   29.3030 C.2    13  PHE13       0.2264
      4  O         24.5340    8.7120   30.1220 O.2    13  PHE13      -0.2867
      5  CB        24.7960   11.9570   29.6920 C.3    13  PHE13       0.0534
      6  CG        24.9780   11.8200   31.1620 C.ar   13  PHE13      -0.0203
      7  CD1       23.9610   11.2980   31.9490 C.ar   13  PHE13      -0.0042
      8  CD2       26.1810   12.1520   31.7490 C.ar   13  PHE13      -0.0042
      9  CE1       24.1290   11.1290   33.3130 C.ar   13  PHE13      -0.0003
     10  CE2       26.3700   11.9850   33.1180 C.ar   13  PHE13      -0.0003
     11  CZ        25.3280   11.4550   33.8990 C.ar   13  PHE13      -0.0000
     12  N         26.0590    6.2710   28.3020 N.3    16  ARG16      -0.1231
     13  CA        27.4050    5.9740   28.7780 C.3    16  ARG16       0.1694
     14  C         27.7020    6.2770   30.2450 C.2    16  ARG16       0.2592
     15  O         28.7370    5.8250   30.7540 O.2    16  ARG16      -0.2718
     16  CB        28.4030    6.7080   27.8830 C.3    16  ARG16       0.0321
     17  CG        28.1780    6.3870   26.4010 C.3    16  ARG16       0.0489
     18  CD        29.4600    6.3200   25.6290 C.3    16  ARG16       0.2205
     19  NE        30.0980    4.9980   25.6960 N.pl3  16  ARG16      -0.0865
     20  CZ        29.8270    3.9760   24.8740 C.cat  16  ARG16       0.5346
     21  NH1       28.9210    4.0750   23.9050 N.pl3  16  ARG16       0.1354
     22  NH2       30.4760    2.8430   25.0240 N.pl3  16  ARG16       0.1354
     23  N         26.8100    7.0070   30.9200 N.am   17  CYS17      -0.1970
     24  CA        27.1300    7.5700   32.2350 C.3    17  CYS17       0.1712
     25  C         26.0210    7.3860   33.2810 C.2    17  CYS17       0.2296
     26  O         26.3000    7.2290   34.4600 O.2    17  CYS17      -0.2864
     27  CB        27.4010    9.0760   32.0970 C.3    17  CYS17       0.0983
     28  SG        28.3950    9.5840   30.6990 S.3    17  CYS17      -0.0798
     29  N         24.1140    4.9940   34.0150 N.3    19  GLY19      -0.1210
     30  CA        24.1250    3.7430   34.7490 C.3    19  GLY19       0.1956
     31  C         24.6080    3.8900   36.1880 C.2    19  GLY19       0.2612
     32  O         24.2140    3.1380   37.0790 O.2    19  GLY19      -0.2717
     33  N         25.4830    4.8590   36.4180 N.am   20  CYS20      -0.1956
     34  CA        26.1740    5.0160   37.7210 C.3    20  CYS20       0.1843
     35  C         25.9770    6.4310   38.2410 C.2    20  CYS20       0.2625
     36  O         26.4660    6.7950   39.3150 O.2    20  CYS20      -0.2714
     37  CB        27.6750    4.7430   37.5610 C.3    20  CYS20       0.0997
     38  SG        28.0850    3.1570   36.9030 S.3    20  CYS20      -0.0797
     39  N         25.3020    7.2530   37.4480 N.am   21  HIS21      -0.1973
     40  CA        25.1080    8.6490   37.7980 C.3    21  HIS21       0.1656
     41  C         23.6370    9.0720   37.6200 C.2    21  HIS21       0.2291
     42  O         23.3620   10.2420   37.4060 O.2    21  HIS21      -0.2864
     43  CB        26.0200    9.5570   36.9710 C.3    21  HIS21       0.0771
     44  CG        27.4820    9.4450   37.2870 C.ar   21  HIS21       0.0820
     45  ND1       28.0420    9.9560   38.4350 N.ar   21  HIS21      -0.2267
     46  CD2       28.5090    8.9300   36.5740 C.ar   21  HIS21       0.1154
     47  CE1       29.3420    9.7450   38.4230 C.ar   21  HIS21       0.1986
     48  NE2       29.6580    9.1280   37.2980 N.ar   21  HIS21      -0.2212
     49  N         26.2250   15.6350   45.2450 N.3    29  TYR29      -0.1241
     50  CA        27.6300   15.3950   45.5790 C.3    29  TYR29       0.1605
     51  C         27.8770   15.1560   47.0770 C.2    29  TYR29       0.2264
     52  O         28.5070   14.1760   47.4610 O.2    29  TYR29      -0.2867
     53  CB        28.5010   16.5580   45.1140 C.3    29  TYR29       0.0534
     54  CG        29.9380   16.2740   45.4100 C.ar   29  TYR29      -0.0201
     55  CD1       30.6070   15.2850   44.7050 C.ar   29  TYR29      -0.0009
     56  CD2       30.6060   16.9070   46.4540 C.ar   29  TYR29      -0.0009
     57  CE1       31.9020   14.9500   45.0040 C.ar   29  TYR29       0.0417
     58  CE2       31.9390   16.5750   46.7650 C.ar   29  TYR29       0.0417
     59  CZ        32.5760   15.5990   46.0320 C.ar   29  TYR29       0.1957
     60  OH        33.8840   15.2370   46.3030 O.3    29  TYR29      -0.2866
     61  N         26.8170   11.9240   48.4260 N.3    32  PHE32      -0.1241
     62  CA        27.8270   10.8910   48.1560 C.3    32  PHE32       0.1605
     63  C         29.0040   10.9860   49.1570 C.2    32  PHE32       0.2264
     64  O         29.3250   10.0160   49.8420 O.2    32  PHE32      -0.2867
     65  CB        28.3300   10.9920   46.6910 C.3    32  PHE32       0.0534
     66  CG        29.4520   10.0220   46.3660 C.ar   32  PHE32      -0.0203
     67  CD1       29.1850    8.6870   46.1270 C.ar   32  PHE32      -0.0042
     68  CD2       30.7730   10.4510   46.3210 C.ar   32  PHE32      -0.0042
     69  CE1       30.2090    7.7900   45.8580 C.ar   32  PHE32      -0.0003
     70  CE2       31.8110    9.5490   46.0480 C.ar   32  PHE32      -0.0003
     71  CZ        31.5160    8.2200   45.8120 C.ar   32  PHE32      -0.0000
     72  N         29.2020    3.3940   46.8340 N.3    40  LEU40      -0.1245
     73  CA        30.2880    2.6320   46.1900 C.3    40  LEU40       0.1561
     74  C         30.0300    1.1350   46.1350 C.2    40  LEU40       0.2260
     75  O         30.4620    0.4510   45.2000 O.2    40  LEU40      -0.2867
     76  CB        31.6230    2.8880   46.9030 C.3    40  LEU40       0.0270
     77  CG        32.2580    4.2430   46.6400 C.3    40  LEU40       0.0019
     78  CD1       33.6110    4.3250   47.3440 C.3    40  LEU40       0.0001
     79  CD2       32.3990    4.5440   45.1520 C.3    40  LEU40       0.0001
     80  N         28.4280    0.2250   43.1130 N.3    43  GLY43      -0.1210
     81  CA        29.1160    0.7620   41.9610 C.3    43  GLY43       0.1956
     82  C         28.6220    2.1350   41.5380 C.2    43  GLY43       0.2612
     83  O         29.0210    2.5940   40.4560 O.2    43  GLY43      -0.2717
     84  N         27.8280    2.8000   42.3920 N.am   44  GLN44      -0.1965
     85  CA        27.2320    4.0970   42.0830 C.3    44  GLN44       0.1733
     86  C         28.0130    5.3210   42.5710 C.2    44  GLN44       0.2617
     87  O         28.6040    5.2980   43.6390 O.2    44  GLN44      -0.2715
     88  CB        25.8520    4.1810   42.7010 C.3    44  GLN44       0.0408
     89  CG        24.8870    3.1410   42.1780 C.3    44  GLN44       0.0908
     90  CD        24.5030    3.4100   40.7510 C.2    44  GLN44       0.2608
     91  OE1       24.2040    4.5450   40.3850 O.2    44  GLN44      -0.2717
     92  NE2       24.5120    2.3690   39.9320 N.am   44  GLN44      -0.0878
     93  N         27.9760    6.3920   41.7730 N.am   45  GLY45      -0.1940
     94  CA        28.5170    7.6640   42.1490 C.3    45  GLY45       0.2014
     95  C         27.4310    8.6080   42.6100 C.2    45  GLY45       0.2638
     96  O         26.6090    8.2550   43.4800 O.2    45  GLY45      -0.2714
     97  N         27.4340    9.8100   42.0460 N.am   46  MET46      -0.1976
     98  CA        26.4290   10.8260   42.3570 C.3    46  MET46       0.1605
     99  C         25.6690   11.2660   41.0950 C.2    46  MET46       0.2287
    100  O         26.1700   11.1380   39.9620 O.2    46  MET46      -0.2864
    101  CB        27.0540   12.0370   43.0460 C.3    46  MET46       0.0413
    102  CG        28.0030   12.8780   42.1970 C.3    46  MET46       0.0598
    103  SD        29.4990   12.0850   41.6350 S.3    46  MET46      -0.1393
    104  CE        30.3730   11.7290   43.1620 C.3    46  MET46       0.0692
    105  N         24.0350   12.8720   38.0320 N.3    48  MET48      -0.1245
    106  CA        24.4100   13.8460   37.0100 C.3    48  MET48       0.1570
    107  C         23.4450   13.7900   35.8120 C.2    48  MET48       0.2261
    108  O         23.7550   14.2610   34.7390 O.2    48  MET48      -0.2867
    109  CB        25.8260   13.5530   36.5120 C.3    48  MET48       0.0387
    110  CG        26.8890   13.8260   37.4930 C.3    48  MET48       0.0595
    111  SD        28.5070   13.5420   36.7840 S.3    48  MET48      -0.1393
    112  CE        29.4280   13.3880   38.2860 C.3    48  MET48       0.0692
    113  N         29.4090   20.3530   37.8790 N.3    57  TYR57      -0.1241
    114  CA        30.7640   19.8400   37.7100 C.3    57  TYR57       0.1605
    115  C         31.5440   20.5620   36.6120 C.2    57  TYR57       0.2264
    116  O         32.5990   20.1120   36.1930 O.2    57  TYR57      -0.2867
    117  CB        30.6700   18.3450   37.4070 C.3    57  TYR57       0.0534
    118  CG        30.0020   17.6360   38.5560 C.ar   57  TYR57      -0.0201
    119  CD1       30.7410   17.2530   39.6730 C.ar   57  TYR57      -0.0009
    120  CD2       28.6110   17.3910   38.5550 C.ar   57  TYR57      -0.0009
    121  CE1       30.1330   16.6180   40.7490 C.ar   57  TYR57       0.0417
    122  CE2       27.9980   16.7590   39.6270 C.ar   57  TYR57       0.0417
    123  CZ        28.7570   16.3930   40.7230 C.ar   57  TYR57       0.1957
    124  OH        28.1680   15.7860   41.7850 O.3    57  TYR57      -0.2866
    125  N         31.7070   22.5270   41.5990 N.3    62  ASP62      -0.1239
    126  CA        32.8360   21.5930   41.5050 C.3    62  ASP62       0.1674
    127  C         33.5870   21.9230   40.2130 C.2    62  ASP62       0.2266
    128  O         33.6450   21.1140   39.2660 O.2    62  ASP62      -0.2867
    129  CB        32.3550   20.1460   41.5540 C.3    62  ASP62       0.1410
    130  CG        33.4710   19.1200   41.9140 C.2    62  ASP62       0.3668
    131  OD1       34.6690   19.4140   41.9520 O.co2  62  ASP62      -0.2456
    132  OD2       33.1270   17.9410   42.1510 O.co2  62  ASP62      -0.2456
    133  N         35.6430   19.6490   37.2800 N.3    65  ALA65      -0.1231
    134  CA        35.6280   18.1930   37.5270 C.3    65  ALA65       0.1694
    135  C         35.2900   17.3520   36.2910 C.2    65  ALA65       0.2591
    136  O         35.9310   16.3250   36.0300 O.2    65  ALA65      -0.2718
    137  CB        34.6760   17.8350   38.6850 C.3    65  ALA65       0.0304
    138  N         34.2910   17.7820   35.5280 N.am   66  LEU66      -0.1980
    139  CA        33.9040   17.0460   34.3370 C.3    66  LEU66       0.1596
    140  C         35.0470   17.0560   33.3390 C.2    66  LEU66       0.2287
    141  O         35.3060   16.0480   32.6500 O.2    66  LEU66      -0.2864
    142  CB        32.6700   17.6880   33.7210 C.3    66  LEU66       0.0297
    143  CG        32.1140   17.0590   32.4610 C.3    66  LEU66       0.0022
    144  CD1       31.6540   15.6540   32.7530 C.3    66  LEU66       0.0001
    145  CD2       30.9850   17.9050   31.9320 C.3    66  LEU66       0.0001
    146  N         38.3280   17.4390   34.1200 N.3    68  ARG68      -0.1231
    147  CA        39.3590   16.5580   34.6680 C.3    68  ARG68       0.1694
    148  C         39.0570   15.0670   34.4510 C.2    68  ARG68       0.2592
    149  O         39.9520   14.2960   34.1190 O.2    68  ARG68      -0.2718
    150  CB        39.5640   16.8110   36.1500 C.3    68  ARG68       0.0321
    151  CG        40.1920   18.1780   36.4700 C.3    68  ARG68       0.0489
    152  CD        40.6870   18.1950   37.8800 C.3    68  ARG68       0.2205
    153  NE        39.5920   18.2660   38.8300 N.pl3  68  ARG68      -0.0865
    154  CZ        38.8760   19.3580   39.0700 C.cat  68  ARG68       0.5346
    155  NH1       39.1360   20.4920   38.4110 N.pl3  68  ARG68       0.1354
    156  NH2       37.8950   19.3160   39.9620 N.pl3  68  ARG68       0.1354
    157  N         37.8100   14.6530   34.6520 N.am   69  ARG69      -0.1966
    158  CA        37.5280   13.2330   34.6650 C.3    69  ARG69       0.1729
    159  C         37.4070   12.7070   33.2390 C.2    69  ARG69       0.2616
    160  O         37.7490   11.5400   32.9800 O.2    69  ARG69      -0.2715
    161  CB        36.2870   12.9140   35.4820 C.3    69  ARG69       0.0348
    162  CG        36.3800   13.2520   36.9810 C.3    69  ARG69       0.0492
    163  CD        37.7440   12.9200   37.6010 C.3    69  ARG69       0.2205
    164  NE        37.7400   13.0560   39.0620 N.pl3  69  ARG69      -0.0865
    165  CZ        37.2240   12.1600   39.8980 C.cat  69  ARG69       0.5346
    166  NH1       36.6380   11.0510   39.4400 N.pl3  69  ARG69       0.1354
    167  NH2       37.2670   12.3690   41.2030 N.pl3  69  ARG69       0.1354
    168  N         36.9350   13.5520   32.3120 N.am   70  LEU70      -0.1977
    169  CA        36.8530   13.1320   30.9140 C.3    70  LEU70       0.1596
    170  C         38.1550   13.3450   30.0830 C.2    70  LEU70       0.2287
    171  O         38.2320   12.9190   28.9050 O.2    70  LEU70      -0.2864
    172  CB        35.6600   13.7740   30.2110 C.3    70  LEU70       0.0297
    173  CG        34.2640   13.3010   30.6420 C.3    70  LEU70       0.0022
    174  CD1       33.2470   13.8540   29.6790 C.3    70  LEU70       0.0001
    175  CD2       34.1680   11.7700   30.7490 C.3    70  LEU70       0.0001
    176  N         39.6890    9.4550   35.0620 N.3    80  ASN80      -0.1225
    177  CA        39.1860    8.1180   35.3300 C.3    80  ASN80       0.1785
    178  C         37.7620    7.8520   34.7890 C.2    80  ASN80       0.2597
    179  O         37.2320    6.7770   34.9800 O.2    80  ASN80      -0.2718
    180  CB        39.3020    7.8040   36.8310 C.3    80  ASN80       0.1169
    181  CG        38.2010    8.4420   37.6630 C.2    80  ASN80       0.2627
    182  OD1       37.5800    9.4310   37.2490 O.2    80  ASN80      -0.2716
    183  ND2       37.9500    7.8820   38.8490 N.am   80  ASN80      -0.0877
    184  N         37.1600    8.8070   34.0960 N.am   81  MET81      -0.1979
    185  CA        35.8680    8.5620   33.4440 C.3    81  MET81       0.1605
    186  C         35.9500    8.5510   31.9190 C.2    81  MET81       0.2287
    187  O         34.9580    8.2240   31.2450 O.2    81  MET81      -0.2864
    188  CB        34.8190    9.5800   33.8890 C.3    81  MET81       0.0413
    189  CG        34.5170    9.5300   35.3970 C.3    81  MET81       0.0598
    190  SD        33.5870    8.0810   35.9460 S.3    81  MET81      -0.1393
    191  CE        34.5660    7.5440   37.3480 C.3    81  MET81       0.0692
    192  N         37.2250    6.4560   29.9860 N.3    83  ARG83      -0.1231
    193  CA        37.0060    5.1220   29.4350 C.3    83  ARG83       0.1694
    194  C         35.5530    4.8990   29.0930 C.2    83  ARG83       0.2592
    195  O         35.2210    4.1330   28.1600 O.2    83  ARG83      -0.2718
    196  CB        37.5000    4.0110   30.3940 C.3    83  ARG83       0.0321
    197  CG        36.7520    3.8500   31.7130 C.3    83  ARG83       0.0489
    198  CD        37.5150    2.8480   32.6230 C.3    83  ARG83       0.2205
    199  NE        36.7830    2.5040   33.8460 N.pl3  83  ARG83      -0.0865
    200  CZ        35.9170    1.4910   33.9720 C.cat  83  ARG83       0.5346
    201  NH1       35.6660    0.6900   32.9450 N.pl3  83  ARG83       0.1354
    202  NH2       35.2850    1.2740   35.1360 N.pl3  83  ARG83       0.1354
    203  N         34.6780    5.5690   29.8410 N.am   84  HIS84      -0.1962
    204  CA        33.2560    5.4120   29.6410 C.3    84  HIS84       0.1787
    205  C         32.7390    6.0820   28.3930 C.2    84  HIS84       0.2620
    206  O         31.5860    5.8950   28.0470 O.2    84  HIS84      -0.2715
    207  CB        32.5100    5.9070   30.8840 C.3    84  HIS84       0.0785
    208  CG        32.8140    5.0750   32.0760 C.ar   84  HIS84       0.0821
    209  ND1       32.6230    3.7160   32.0700 N.ar   84  HIS84      -0.2267
    210  CD2       33.4090    5.3740   33.2560 C.ar   84  HIS84       0.1154
    211  CE1       33.0320    3.2140   33.2190 C.ar   84  HIS84       0.1986
    212  NE2       33.5170    4.1980   33.9540 N.ar   84  HIS84      -0.2212
    213  N         33.5880    6.8650   27.7240 N.am   85  LEU85      -0.1977
    214  CA        33.1610    7.5970   26.5290 C.3    85  LEU85       0.1596
    215  C         33.0460    6.7230   25.2710 C.2    85  LEU85       0.2287
    216  O         32.5320    7.1790   24.2240 O.2    85  LEU85      -0.2864
    217  CB        34.0740    8.8120   26.2720 C.3    85  LEU85       0.0297
    218  CG        33.8790   10.0240   27.1980 C.3    85  LEU85       0.0022
    219  CD1       34.9910   11.0690   26.9870 C.3    85  LEU85       0.0001
    220  CD2       32.4640   10.6800   27.0400 C.3    85  LEU85       0.0001
    221  N         31.8110   16.7310   24.2050 N.3    99  PHE99      -0.1241
    222  CA        31.8470   17.3700   25.5180 C.3    99  PHE99       0.1605
    223  C         32.6950   18.6500   25.5230 C.2    99  PHE99       0.2264
    224  O         32.3460   19.6090   26.2020 O.2    99  PHE99      -0.2867
    225  CB        32.3540   16.4190   26.6090 C.3    99  PHE99       0.0534
    226  CG        31.3060   15.4980   27.1690 C.ar   99  PHE99      -0.0203
    227  CD1       31.0520   14.2720   26.5630 C.ar   99  PHE99      -0.0042
    228  CD2       30.6100   15.8270   28.3110 C.ar   99  PHE99      -0.0042
    229  CE1       30.1120   13.4090   27.0820 C.ar   99  PHE99      -0.0003
    230  CE2       29.6680   14.9790   28.8500 C.ar   99  PHE99      -0.0003
    231  CZ        29.4110   13.7620   28.2310 C.ar   99  PHE99      -0.0000
@<TRIPOS>BOND
     1    21    20    1
     2   221   222    1
     3   216   215    2
     4    20    22    1
     5    20    19    2
     6   215   214    1
     7   222   223    1
     8   222   225    1
     9   223   224    2
    10    18    19    1
    11    18    17    1
    12   217   214    1
    13   217   218    1
    14    17    16    1
    15   214   213    1
    16   227   229   ar
    17   227   226   ar
    18   225   226    1
    19   219   218    1
    20   220   218    1
    21   229   231   ar
    22   226   228   ar
    23     1     2    1
    24   213   205   am
    25    16    13    1
    26   206   205    2
    27   195   194    2
    28   231   230   ar
    29    12    13    1
    30   228   230   ar
    31   205   204    1
    32    13    14    1
    33   171   170    2
    34     2     3    1
    35     2     5    1
    36   194   193    1
    37   194   203   am
    38     3     4    2
    39   193   192    1
    40   193   196    1
    41   204   203    1
    42   204   207    1
    43   174   173    1
    44     5     6    1
    45   170   169    1
    46   172   173    1
    47   172   169    1
    48    14    15    2
    49    14    23   am
    50   196   197    1
    51   173   175    1
    52    28    27    1
    53   207   208    1
    54   169   168    1
    55    23    24    1
    56     6     8   ar
    57     6     7   ar
    58   187   186    2
    59   197   198    1
    60     8    10   ar
    61   186   185    1
    62   145   143    1
    63     7     9   ar
    64   209   208   ar
    65   209   211   ar
    66   208   210   ar
    67    27    24    1
    68    24    25    1
    69   168   159   am
    70   143   144    1
    71   143   142    1
    72   198   199    1
    73   141   140    2
    74   201   200    1
    75   160   159    2
    76    10    11   ar
    77   211   212   ar
    78   159   158    1
    79   210   212   ar
    80    25    26    2
    81     9    11   ar
    82   140   139    1
    83   185   188    1
    84   185   184    1
    85   142   139    1
    86   199   200    2
    87   188   189    1
    88   200   202    1
    89    29    30    1
    90   184   178   am
    91   149   148    2
    92   146   147    1
    93   139   138    1
    94   148   157   am
    95   148   147    1
    96   157   158    1
    97   158   161    1
    98   147   150    1
    99   108   107    2
   100    30    31    1
   101   178   179    2
   102   178   177    1
   103   176   177    1
   104   177   180    1
   105   189   190    1
   106   161   162    1
   107   138   135   am
   108   107   106    1
   109   190   191    1
   110   136   135    2
   111   150   151    1
   112    31    33   am
   113    31    32    2
   114   116   115    2
   115   135   134    1
   116    33    34    1
   117   151   152    1
   118   109   106    1
   119   109   110    1
   120    46    44   ar
   121    46    48   ar
   122   115   114    1
   123   111   110    1
   124   111   112    1
   125   180   181    1
   126    38    37    1
   127    43    44    1
   128    43    40    1
   129   162   163    1
   130   106   105    1
   131   182   181    2
   132   133   134    1
   133    44    45   ar
   134    48    47   ar
   135    42    41    2
   136   117   114    1
   137   117   118    1
   138    39    40    1
   139    39    35   am
   140   134   137    1
   141    37    34    1
   142   163   164    1
   143    41    40    1
   144   181   183   am
   145   114   113    1
   146    34    35    1
   147   152   153    1
   148    35    36    2
   149   155   154    1
   150    47    45   ar
   151   120   118   ar
   152   120   122   ar
   153   118   119   ar
   154   153   154    2
   155   164   165    2
   156   154   156    1
   157   128   127    2
   158   166   165    1
   159   122   123   ar
   160   119   121   ar
   161   165   167    1
   162    92    90   am
   163   100    99    2
   164   127   126    1
   165    91    90    2
   166    83    82    2
   167   123   121   ar
   168   123   124    1
   169    90    89    1
   170    99    98    1
   171   126   129    1
   172   126   125    1
   173    82    81    1
   174    82    84   am
   175   129   130    1
   176   103   102    1
   177   103   104    1
   178    93    94    1
   179    93    86   am
   180   130   131   ar
   181   130   132   ar
   182    81    80    1
   183    97    98    1
   184    97    95   am
   185    85    84    1
   186    85    86    1
   187    85    88    1
   188    94    95    1
   189    89    88    1
   190   102   101    1
   191    98   101    1
   192    86    87    2
   193    95    96    2
   194    55    57   ar
   195    55    54   ar
   196    57    59   ar
   197    53    54    1
   198    53    50    1
   199    79    77    1
   200    75    74    2
   201    49    50    1
   202    54    56   ar
   203    50    51    1
   204    71    69   ar
   205    71    70   ar
   206    69    67   ar
   207    59    60    1
   208    59    58   ar
   209    70    68   ar
   210    67    66   ar
   211    74    73    1
   212    73    72    1
   213    73    76    1
   214    68    66   ar
   215    66    65    1
   216    56    58   ar
   217    77    76    1
   218    77    78    1
   219    65    62    1
   220    51    52    2
   221    62    61    1
   222    62    63    1
   223    63    64    2
