@<TRIPOS>MOLECULE
tmp/4rlsD01.pdb
 155 147 0 0 0
SMALL
GASTEIGER

@<TRIPOS>ATOM
      1  N        -10.0180   -2.4900   27.2810 N.3    29  ALA29      -0.1231
      2  CA        -8.9030   -3.3050   27.7500 C.3    29  ALA29       0.1694
      3  C         -7.8600   -3.4940   26.6560 C.2    29  ALA29       0.2591
      4  O         -6.6660   -3.4330   26.9100 O.2    29  ALA29      -0.2718
      5  CB        -9.4100   -4.6490   28.2360 C.3    29  ALA29       0.0304
      6  N         -8.3150   -3.6740   25.4300 N.am   30  VAL30      -0.1980
      7  CA        -7.4080   -3.8640   24.3080 C.3    30  VAL30       0.1595
      8  C         -6.6260   -2.6110   24.0150 C.2    30  VAL30       0.2287
      9  O         -5.3890   -2.6430   23.9680 O.2    30  VAL30      -0.2864
     10  CB        -8.1690   -4.3080   23.0490 C.3    30  VAL30       0.0276
     11  CG1       -7.2120   -4.4610   21.8810 C.3    30  VAL30       0.0022
     12  CG2       -8.8530   -5.6210   23.3490 C.3    30  VAL30       0.0022
     13  N        -17.4360   -4.6790   22.0190 N.3    98  ARG98      -0.1231
     14  CA       -16.7100   -5.8730   22.4240 C.3    98  ARG98       0.1694
     15  C        -17.7320   -6.9960   22.3440 C.2    98  ARG98       0.2591
     16  O        -18.8590   -6.8270   22.8160 O.2    98  ARG98      -0.2718
     17  CB       -16.1530   -5.6870   23.8320 C.3    98  ARG98       0.0321
     18  CG       -14.9640   -6.5680   24.1700 C.3    98  ARG98       0.0489
     19  CD       -15.3960   -7.7840   24.9750 C.3    98  ARG98       0.2205
     20  NE       -15.7810   -7.4650   26.3480 N.pl3  98  ARG98      -0.0865
     21  CZ       -16.2470   -8.3550   27.2240 C.cat  98  ARG98       0.5346
     22  NH1      -16.5690   -7.9670   28.4530 N.pl3  98  ARG98       0.1354
     23  NH2      -16.3980   -9.6340   26.8810 N.pl3  98  ARG98       0.1354
     24  N        -17.3790   -8.1170   21.7140 N.am   99  GLN99      -0.1979
     25  CA       -18.3930   -9.1330   21.4020 C.3    99  GLN99       0.1601
     26  C        -18.7840   -9.9340   22.6350 C.2    99  GLN99       0.2287
     27  O        -17.9610  -10.1550   23.5200 O.2    99  GLN99      -0.2864
     28  CB       -17.9320  -10.0910   20.2990 C.3    99  GLN99       0.0394
     29  CG       -19.0890  -10.8370   19.6350 C.3    99  GLN99       0.0908
     30  CD       -18.6780  -12.1300   18.9550 C.2    99  GLN99       0.2608
     31  OE1      -17.4920  -12.4460   18.8520 O.2    99  GLN99      -0.2717
     32  NE2      -19.6680  -12.8910   18.4880 N.am   99  GLN99      -0.0878
     33  N        -12.6720   -6.3290   15.6160 N.3   134  ASN134     -0.1240
     34  CA       -13.1780   -7.5320   14.9320 C.3   134  ASN134      0.1653
     35  C        -14.5390   -7.3950   14.2490 C.2   134  ASN134      0.2266
     36  O        -15.3650   -6.6050   14.6840 O.2   134  ASN134     -0.2867
     37  CB       -13.2570   -8.7030   15.9070 C.3   134  ASN134      0.1155
     38  CG       -11.9300   -9.3580   16.1010 C.2   134  ASN134      0.2627
     39  OD1      -11.2050   -9.5820   15.1290 O.2   134  ASN134     -0.2716
     40  ND2      -11.5770   -9.6480   17.3490 N.am  134  ASN134     -0.0877
     41  N         -1.3660  -12.2770   16.1280 N.3   161  LEU161     -0.1231
     42  CA        -1.5300  -12.9110   17.4350 C.3   161  LEU161      0.1693
     43  C         -1.7300  -14.4230   17.3130 C.2   161  LEU161      0.2592
     44  O         -1.1400  -15.1860   18.0870 O.2   161  LEU161     -0.2718
     45  CB        -2.6730  -12.2560   18.2130 C.3   161  LEU161      0.0284
     46  CG        -3.0060  -12.8300   19.5850 C.3   161  LEU161      0.0019
     47  CD1       -1.8240  -12.7030   20.5180 C.3   161  LEU161      0.0001
     48  CD2       -4.2330  -12.1270   20.1610 C.3   161  LEU161      0.0001
     49  N         -2.5430  -14.8500   16.3470 N.am  162  ASP162     -0.1974
     50  CA        -2.7360  -16.2780   16.0780 C.3   162  ASP162      0.1709
     51  C         -1.3640  -16.9520   15.9320 C.2   162  ASP162      0.2293
     52  O         -1.1070  -18.0060   16.5180 O.2   162  ASP162     -0.2864
     53  CB        -3.5580  -16.5460   14.8000 C.3   162  ASP162      0.1436
     54  CG        -4.7760  -15.6490   14.6580 C.2   162  ASP162      0.3671
     55  OD1       -4.6250  -14.4120   14.7340 O.co2 162  ASP162     -0.2456
     56  OD2       -5.8890  -16.1770   14.4460 O.co2 162  ASP162     -0.2456
     57  N          0.5770  -17.0700   19.2510 N.3   165  ARG165     -0.1245
     58  CA         0.0710  -18.1290   20.1220 C.3   165  ARG165      0.1563
     59  C          0.5980  -19.4820   19.6750 C.2   165  ARG165      0.2260
     60  O          1.0440  -20.2830   20.4940 O.2   165  ARG165     -0.2867
     61  CB        -1.4620  -18.1510   20.1660 C.3   165  ARG165      0.0307
     62  CG        -2.0610  -17.0550   21.0440 C.3   165  ARG165      0.0489
     63  CD        -3.5360  -17.3040   21.3170 C.3   165  ARG165      0.2205
     64  NE        -4.1100  -16.3260   22.2430 N.pl3 165  ARG165     -0.0865
     65  CZ        -5.0310  -15.4060   21.9600 C.cat 165  ARG165      0.5346
     66  NH1       -5.4570  -14.5970   22.9260 N.pl3 165  ARG165      0.1354
     67  NH2       -5.5400  -15.2700   20.7370 N.pl3 165  ARG165      0.1354
     68  N         -8.4620  -14.3440   10.2940 N.3   189  HIS189     -0.1226
     69  CA        -8.1770  -14.3480   11.7250 C.3   189  HIS189      0.1752
     70  C         -9.2340  -15.0950   12.5180 C.2   189  HIS189      0.2597
     71  O        -10.4200  -14.9870   12.2180 O.2   189  HIS189     -0.2718
     72  CB        -8.0990  -12.9190   12.2400 C.3   189  HIS189      0.0759
     73  CG        -8.0880  -12.8220   13.7320 C.ar  189  HIS189      0.0818
     74  ND1       -7.0520  -13.3130   14.4920 N.ar  189  HIS189     -0.2268
     75  CD2       -8.9970  -12.3240   14.6090 C.ar  189  HIS189      0.1154
     76  CE1       -7.3040  -13.0990   15.7710 C.ar  189  HIS189      0.1986
     77  NE2       -8.4740  -12.4890   15.8710 N.ar  189  HIS189     -0.2212
     78  N         -8.8000  -15.8470   13.5300 N.am  190  GLY190     -0.1942
     79  CA        -9.7220  -16.5460   14.4250 C.3   190  GLY190      0.2014
     80  C        -10.0930  -17.9620   14.0030 C.2   190  GLY190      0.2638
     81  O         -9.2270  -18.7570   13.6450 O.2   190  GLY190     -0.2714
     82  N        -11.3850  -18.2720   14.0310 N.am  191  ASP191     -0.1971
     83  CA       -11.8540  -19.6630   13.8630 C.3   191  ASP191      0.1709
     84  C        -11.3680  -20.3780   12.5990 C.2   191  ASP191      0.2293
     85  O        -11.0860  -21.5710   12.6540 O.2   191  ASP191     -0.2864
     86  CB       -13.3880  -19.7270   13.8890 C.3   191  ASP191      0.1436
     87  CG       -13.9690  -19.3340   15.2280 C.2   191  ASP191      0.3671
     88  OD1      -13.2560  -19.4330   16.2500 O.co2 191  ASP191     -0.2456
     89  OD2      -15.1460  -18.9310   15.2550 O.co2 191  ASP191     -0.2456
     90  N         -4.7250  -22.9040   19.4200 N.3   230  VAL230     -0.1231
     91  CA        -4.6630  -21.4770   19.0910 C.3   230  VAL230      0.1692
     92  C         -6.0840  -20.8920   19.1230 C.2   230  VAL230      0.2591
     93  O         -6.3130  -19.8220   19.6860 O.2   230  VAL230     -0.2718
     94  CB        -3.9780  -21.2290   17.7450 C.3   230  VAL230      0.0266
     95  CG1       -4.2410  -19.8130   17.2360 C.3   230  VAL230      0.0020
     96  CG2       -2.4810  -21.4490   17.8800 C.3   230  VAL230      0.0020
     97  N         -7.0400  -21.6070   18.5380 N.am  231  VAL231     -0.1980
     98  CA        -8.4670  -21.2410   18.6560 C.3   231  VAL231      0.1595
     99  C         -8.9770  -21.4210   20.1010 C.2   231  VAL231      0.2287
    100  O         -9.4440  -20.4690   20.7250 O.2   231  VAL231     -0.2864
    101  CB        -9.3420  -22.0630   17.6830 C.3   231  VAL231      0.0276
    102  CG1      -10.8190  -21.7240   17.8540 C.3   231  VAL231      0.0022
    103  CG2       -8.9180  -21.8260   16.2430 C.3   231  VAL231      0.0022
    104  N         -7.7820  -19.0260   23.1290 N.3   234  ALA234     -0.1231
    105  CA        -8.4510  -17.7260   23.1160 C.3   234  ALA234      0.1694
    106  C         -9.7970  -17.7410   23.8260 C.2   234  ALA234      0.2592
    107  O        -10.0440  -16.9050   24.7070 O.2   234  ALA234     -0.2718
    108  CB        -8.6430  -17.2630   21.6860 C.3   234  ALA234      0.0304
    109  N        -10.6740  -18.6780   23.4400 N.am  235  TYR235     -0.1976
    110  CA       -11.9990  -18.7520   24.0700 C.3   235  TYR235      0.1639
    111  C        -11.8630  -19.1360   25.5360 C.2   235  TYR235      0.2290
    112  O        -12.7090  -18.7730   26.3400 O.2   235  TYR235     -0.2864
    113  CB       -12.9250  -19.7420   23.3510 C.3   235  TYR235      0.0560
    114  CG       -13.3260  -19.2930   21.9600 C.ar  235  TYR235     -0.0198
    115  CD1      -14.1530  -18.1860   21.7790 C.ar  235  TYR235     -0.0009
    116  CD2      -12.8810  -19.9740   20.8250 C.ar  235  TYR235     -0.0009
    117  CE1      -14.5260  -17.7700   20.5060 C.ar  235  TYR235      0.0417
    118  CE2      -13.2480  -19.5650   19.5490 C.ar  235  TYR235      0.0417
    119  CZ       -14.0680  -18.4620   19.3930 C.ar  235  TYR235      0.1957
    120  OH       -14.4330  -18.0580   18.1310 O.3   235  TYR235     -0.2866
    121  N        -11.1510  -15.9560   27.5210 N.3   238  ILE238     -0.1245
    122  CA       -12.4160  -15.2070   27.6860 C.3   238  ILE238      0.1561
    123  C        -13.2970  -15.8220   28.7720 C.2   238  ILE238      0.2260
    124  O        -13.8790  -15.1060   29.5860 O.2   238  ILE238     -0.2867
    125  CB       -13.2200  -15.1510   26.3780 C.3   238  ILE238      0.0252
    126  CG1      -12.4620  -14.3390   25.3300 C.3   238  ILE238      0.0019
    127  CG2      -14.6110  -14.5460   26.5840 C.3   238  ILE238      0.0019
    128  CD1      -12.9890  -14.5860   23.9410 C.3   238  ILE238      0.0001
    129  N        -12.2650  -11.4780   28.9120 N.3   243  TYR243     -0.1227
    130  CA       -11.7130  -10.7430   27.7750 C.3   243  TYR243      0.1736
    131  C        -10.2240  -11.1060   27.6550 C.2   243  TYR243      0.2596
    132  O         -9.6730  -11.7650   28.5400 O.2   243  TYR243     -0.2718
    133  CB       -11.8550   -9.2270   27.9830 C.3   243  TYR243      0.0548
    134  CG       -11.1250   -8.6670   29.1940 C.ar  243  TYR243     -0.0200
    135  CD1      -11.7270   -8.6410   30.4580 C.ar  243  TYR243     -0.0009
    136  CD2       -9.8340   -8.1560   29.0730 C.ar  243  TYR243     -0.0009
    137  CE1      -11.0580   -8.1230   31.5560 C.ar  243  TYR243      0.0417
    138  CE2       -9.1610   -7.6410   30.1590 C.ar  243  TYR243      0.0417
    139  CZ        -9.7620   -7.6250   31.3950 C.ar  243  TYR243      0.1957
    140  OH        -9.0650   -7.1000   32.4570 O.3   243  TYR243     -0.2866
    141  N         -9.5770  -10.7060   26.5680 N.am  244  THR244     -0.1953
    142  CA        -8.1190  -10.8010   26.4830 C.3   244  THR244      0.1897
    143  C         -7.5620   -9.4160   26.2010 C.2   244  THR244      0.2313
    144  O         -8.2330   -8.5680   25.5940 O.2   244  THR244     -0.2863
    145  CB        -7.6070  -11.8270   25.4260 C.3   244  THR244      0.1794
    146  OG1       -7.4610  -11.2040   24.1420 O.3   244  THR244     -0.2208
    147  CG2       -8.5450  -13.0560   25.3170 C.3   244  THR244      0.0378
    148  N         -2.6960   -9.3470   22.9820 N.3   248  ILE248     -0.1245
    149  CA        -3.0170   -8.5140   21.8010 C.3   248  ILE248      0.1561
    150  C         -2.2630   -7.1850   21.8550 C.2   248  ILE248      0.2260
    151  O         -1.7780   -6.7010   20.8280 O.2   248  ILE248     -0.2867
    152  CB        -4.5290   -8.2690   21.5980 C.3   248  ILE248      0.0252
    153  CG1       -4.7790   -7.3520   20.3920 C.3   248  ILE248      0.0019
    154  CG2       -5.1650   -7.6250   22.8180 C.3   248  ILE248      0.0019
    155  CD1       -4.5090   -8.0040   19.0500 C.3   248  ILE248      0.0001
@<TRIPOS>BOND
     1    68    69    1
     2    69    72    1
     3    69    70    1
     4    71    70    2
     5    72    73    1
     6    70    78   am
     7    84    85    2
     8    84    83    1
     9    78    79    1
    10    81    80    2
    11    73    74   ar
    12    73    75   ar
    13    83    86    1
    14    83    82    1
    15    86    87    1
    16    80    82   am
    17    80    79    1
    18    35    36    2
    19    35    34    1
    20    56    54   ar
    21    74    76   ar
    22    75    77   ar
    23    54    55   ar
    24    54    53    1
    25    53    50    1
    26    34    33    1
    27    34    37    1
    28    39    38    2
    29    87    89   ar
    30    87    88   ar
    31    76    77   ar
    32    37    38    1
    33    51    50    1
    34    51    52    2
    35    50    49    1
    36    38    40   am
    37    41    42    1
    38   103   101    1
    39    49    43   am
    40    95    94    1
    41    43    42    1
    42    43    44    2
    43    42    45    1
    44   101   102    1
    45   101    98    1
    46    94    96    1
    47    94    91    1
    48   120   119    1
    49    45    46    1
    50    32    30   am
    51    97    98    1
    52    97    92   am
    53    98    99    1
    54    31    30    2
    55    30    29    1
    56   155   153    1
    57    91    92    1
    58    91    90    1
    59    92    93    2
    60    57    58    1
    61   119   118   ar
    62   119   117   ar
    63   118   116   ar
    64    46    48    1
    65    46    47    1
    66    29    28    1
    67    59    58    1
    68    59    60    2
    69    99   100    2
    70    58    61    1
    71    61    62    1
    72    28    25    1
    73   153   152    1
    74   117   115   ar
    75    67    65    1
    76   116   114   ar
    77   151   150    2
    78    62    63    1
    79    63    64    1
    80    25    24    1
    81    25    26    1
    82   152   149    1
    83   152   154    1
    84   108   105    1
    85    24    15   am
    86   115   114   ar
    87   149   150    1
    88   149   148    1
    89    11    10    1
    90   114   113    1
    91    65    64    2
    92    65    66    1
    93    13    14    1
    94    15    14    1
    95    15    16    2
    96    14    17    1
    97    26    27    2
    98    10    12    1
    99    10     7    1
   100   105   104    1
   101   105   106    1
   102   113   110    1
   103   109   106   am
   104   109   110    1
   105   106   107    2
   106    17    18    1
   107   128   126    1
   108     9     8    2
   109     8     7    1
   110   110   111    1
   111   146   145    1
   112    18    19    1
   113     7     6    1
   114    19    20    1
   115   147   145    1
   116   126   125    1
   117   145   142    1
   118     6     3   am
   119   111   112    2
   120   144   143    2
   121   143   142    1
   122    20    21    2
   123   125   127    1
   124   125   122    1
   125   142   141    1
   126   141   131   am
   127     3     4    2
   128     3     2    1
   129    23    21    1
   130    21    22    1
   131     1     2    1
   132   121   122    1
   133   131   130    1
   134   131   132    2
   135   122   123    1
   136     2     5    1
   137   130   133    1
   138   130   129    1
   139   133   134    1
   140   123   124    2
   141   136   134   ar
   142   136   138   ar
   143   134   135   ar
   144   138   139   ar
   145   135   137   ar
   146   139   137   ar
   147   139   140    1
