@<TRIPOS>MOLECULE
tmp/4rm0A00.pdb
 116 113 0 0 0
SMALL
GASTEIGER

@<TRIPOS>ATOM
      1  N         19.4090    1.3330   25.4270 N.3    74  ASP74      -0.1225
      2  CA        19.0650    2.7350   25.2250 C.3    74  ASP74       0.1805
      3  C         18.2130    3.2310   26.4000 C.2    74  ASP74       0.2598
      4  O         17.4160    2.4790   26.9560 O.2    74  ASP74      -0.2718
      5  CB        18.3380    2.9000   23.8880 C.3    74  ASP74       0.1424
      6  CG        17.9440    4.3270   23.6100 C.2    74  ASP74       0.3668
      7  OD1       18.8150    5.0990   23.1550 O.co2  74  ASP74      -0.2456
      8  OD2       16.7640    4.6770   23.8420 O.co2  74  ASP74      -0.2456
      9  N         18.3910    4.4910   26.7820 N.am   75  TYR75      -0.1962
     10  CA        17.6930    5.0640   27.9400 C.3    75  TYR75       0.1771
     11  C         16.1550    4.9950   27.8500 C.2    75  TYR75       0.2620
     12  O         15.4680    4.5810   28.8010 O.2    75  TYR75      -0.2715
     13  CB        18.1370    6.5230   28.1520 C.3    75  TYR75       0.0574
     14  CG        17.7810    7.4500   26.9990 C.ar   75  TYR75      -0.0198
     15  CD1       16.6670    8.2880   27.0650 C.ar   75  TYR75      -0.0009
     16  CD2       18.5470    7.4730   25.8370 C.ar   75  TYR75      -0.0009
     17  CE1       16.3280    9.1340   26.0000 C.ar   75  TYR75       0.0417
     18  CE2       18.2220    8.3160   24.7700 C.ar   75  TYR75       0.0417
     19  CZ        17.1110    9.1430   24.8580 C.ar   75  TYR75       0.1957
     20  OH        16.7890    9.9790   23.8050 O.3    75  TYR75      -0.2866
     21  N         15.6220    5.4070   26.7050 N.am   76  TRP76      -0.1960
     22  CA        14.1750    5.5190   26.5200 C.3    76  TRP76       0.1771
     23  C         13.6080    4.2180   25.9670 C.2    76  TRP76       0.2619
     24  O         12.9040    3.4850   26.6760 O.2    76  TRP76      -0.2715
     25  CB        13.8440    6.7190   25.6120 C.3    76  TRP76       0.0590
     26  CG        12.3580    6.9700   25.4000 C.ar   76  TRP76       0.0006
     27  CD1       11.5990    6.5440   24.3470 C.ar   76  TRP76       0.0946
     28  CD2       11.4760    7.7020   26.2550 C.ar   76  TRP76       0.0152
     29  NE1       10.2960    6.9570   24.4990 N.ar   76  TRP76      -0.2442
     30  CE2       10.1900    7.6680   25.6650 C.ar   76  TRP76       0.0810
     31  CE3       11.6400    8.3790   27.4670 C.ar   76  TRP76       0.0012
     32  CZ2        9.0830    8.2880   26.2380 C.ar   76  TRP76       0.0191
     33  CZ3       10.5290    8.9990   28.0410 C.ar   76  TRP76       0.0001
     34  CH2        9.2680    8.9420   27.4250 C.ar   76  TRP76       0.0015
     35  N         13.9440    3.9050   24.7160 N.am   77  ASP77      -0.1971
     36  CA        13.4310    2.6950   24.0850 C.3    77  ASP77       0.1709
     37  C         14.2510    1.4660   24.4390 C.2    77  ASP77       0.2293
     38  O         15.1060    1.0430   23.6630 O.2    77  ASP77      -0.2864
     39  CB        13.3790    2.8830   22.5720 C.3    77  ASP77       0.1436
     40  CG        12.3870    3.9520   22.1700 C.2    77  ASP77       0.3671
     41  OD1       11.1930    3.7840   22.4920 O.co2  77  ASP77      -0.2456
     42  OD2       12.8010    4.9680   21.5760 O.co2  77  ASP77      -0.2456
     43  N          2.0710   13.1360   16.3950 N.3   107  ARG107     -0.1245
     44  CA         3.3320   13.1830   17.1260 C.3   107  ARG107      0.1563
     45  C          3.0070   13.3040   18.5940 C.2   107  ARG107      0.2260
     46  O          2.4090   14.2920   19.0330 O.2   107  ARG107     -0.2867
     47  CB         4.2310   14.3300   16.6450 C.3   107  ARG107      0.0307
     48  CG         4.7180   14.1440   15.2100 C.3   107  ARG107      0.0489
     49  CD         5.6790   15.2640   14.7580 C.3   107  ARG107      0.2205
     50  NE         7.0370   15.0450   15.2450 N.pl3 107  ARG107     -0.0865
     51  CZ         7.8920   14.1860   14.6950 C.cat 107  ARG107      0.5346
     52  NH1        7.5250   13.4710   13.6330 N.pl3 107  ARG107      0.1354
     53  NH2        9.1140   14.0410   15.2010 N.pl3 107  ARG107      0.1354
     54  N          3.1560   10.8180   22.7140 N.3   109  ILE109     -0.1245
     55  CA         3.3970    9.5520   23.3950 C.3   109  ILE109      0.1561
     56  C          2.0920    8.7870   23.5340 C.2   109  ILE109      0.2260
     57  O          1.1420    9.2710   24.1370 O.2   109  ILE109     -0.2867
     58  CB         4.0220    9.7210   24.7880 C.3   109  ILE109      0.0252
     59  CG1        5.3310   10.5130   24.7140 C.3   109  ILE109      0.0019
     60  CG2        4.2990    8.3540   25.4070 C.3   109  ILE109      0.0019
     61  CD1        5.9380   10.7820   26.0920 C.3   109  ILE109      0.0001
     62  N          6.5620    6.4880   21.7970 N.3   134  SER134     -0.1217
     63  CA         6.6820    7.8560   21.3240 C.3   134  SER134      0.1889
     64  C          6.8940    7.9060   19.8200 C.2   134  SER134      0.2288
     65  O          7.8510    7.3450   19.2900 O.2   134  SER134     -0.2866
     66  CB         7.8280    8.5750   22.0310 C.3   134  SER134      0.2089
     67  OG         7.9710    9.8790   21.5090 O.3   134  SER134     -0.2183
     68  N          7.7660   10.4410   18.2910 N.3   136  THR136     -0.1203
     69  CA         8.8570   11.3750   17.9710 C.3   136  THR136      0.1994
     70  C         10.2230   10.7420   18.2190 C.2   136  THR136      0.2619
     71  O         11.2600   11.3740   17.9980 O.2   136  THR136     -0.2717
     72  CB         8.8020   12.7140   18.7560 C.3   136  THR136      0.1784
     73  OG1        9.0130   12.4710   20.1530 O.3   136  THR136     -0.2211
     74  CG2        7.4850   13.4260   18.5470 C.3   136  THR136      0.0376
     75  N         10.2240    9.4980   18.6920 N.am  137  SER137     -0.1937
     76  CA        11.4730    8.7920   18.9400 C.3   137  SER137      0.2055
     77  C         12.1790    8.4990   17.6330 C.2   137  SER137      0.2642
     78  O         11.5340    8.1790   16.6330 O.2   137  SER137     -0.2714
     79  CB        11.2210    7.4740   19.6730 C.3   137  SER137      0.2130
     80  OG        12.4130    6.7170   19.7530 O.3   137  SER137     -0.2179
     81  N         13.5050    8.5960   17.6380 N.am  138  GLU138     -0.1976
     82  CA        14.2910    8.1700   16.4850 C.3   138  GLU138      0.1602
     83  C         14.1230    6.6610   16.2500 C.2   138  GLU138      0.2287
     84  O         14.3970    6.1480   15.1630 O.2   138  GLU138     -0.2864
     85  CB        15.7690    8.5570   16.6640 C.3   138  GLU138      0.0415
     86  CG        16.5040    7.8050   17.7670 C.3   138  GLU138      0.1163
     87  CD        16.3170    8.3940   19.1690 C.2   138  GLU138      0.3649
     88  OE1       17.0760    7.9740   20.0710 O.co2 138  GLU138     -0.2457
     89  OE2       15.4270    9.2600   19.3740 O.co2 138  GLU138     -0.2457
     90  N          5.0080   14.5730   28.2420 N.3   172  ASN172     -0.1225
     91  CA         6.0870   14.8860   29.1630 C.3   172  ASN172      0.1785
     92  C          6.7400   16.2220   28.7860 C.2   172  ASN172      0.2598
     93  O          6.2260   16.9500   27.9400 O.2   172  ASN172     -0.2718
     94  CB         7.1050   13.7270   29.2740 C.3   172  ASN172      0.1169
     95  CG         7.8440   13.4720   27.9800 C.2   172  ASN172      0.2627
     96  OD1        7.7290   14.2470   27.0360 O.2   172  ASN172     -0.2716
     97  ND2        8.6220   12.3860   27.9320 N.am  172  ASN172     -0.0877
     98  N          7.8620   16.5410   29.4180 N.am  173  GLY173     -0.1942
     99  CA         8.4900   17.8440   29.2500 C.3   173  GLY173      0.2014
    100  C          8.8640   18.2380   27.8330 C.2   173  GLY173      0.2639
    101  O          8.9010   19.4250   27.5070 O.2   173  GLY173     -0.2714
    102  N          9.1320   17.2660   26.9680 N.am  174  ASN174     -0.1958
    103  CA         9.5470   17.6150   25.6130 C.3   174  ASN174      0.1819
    104  C          8.7590   16.9050   24.5160 C.2   174  ASN174      0.2621
    105  O          9.1620   16.9000   23.3610 O.2   174  ASN174     -0.2715
    106  CB        11.0470   17.3890   25.4290 C.3   174  ASN174      0.1195
    107  CG        11.4200   15.9230   25.4970 C.2   174  ASN174      0.2630
    108  OD1       10.5960   15.0800   25.8480 O.2   174  ASN174     -0.2716
    109  ND2       12.6670   15.6130   25.1690 N.am  174  ASN174     -0.0877
    110  N          7.6250   16.3170   24.8780 N.am  175  THR175     -0.1951
    111  CA         6.7820   15.6720   23.8970 C.3   175  THR175      0.1897
    112  C          5.3270   16.0910   24.0840 C.2   175  THR175      0.2313
    113  O          4.5340   15.3570   24.6680 O.2   175  THR175     -0.2863
    114  CB         6.8980   14.1350   24.0000 C.3   175  THR175      0.1794
    115  OG1        8.2730   13.7790   24.2170 O.3   175  THR175     -0.2208
    116  CG2        6.3950   13.4760   22.7330 C.3   175  THR175      0.0378
@<TRIPOS>BOND
     1    52    51    1
     2    51    53    1
     3    51    50    2
     4    49    48    1
     5    49    50    1
     6    84    83    2
     7    48    47    1
     8    83    82    1
     9    43    44    1
    10    82    85    1
    11    82    81    1
    12    78    77    2
    13    47    44    1
    14    85    86    1
    15    44    45    1
    16    77    81   am
    17    77    76    1
    18    86    87    1
    19    69    70    1
    20    69    68    1
    21    69    72    1
    22    71    70    2
    23    70    75   am
    24    74    72    1
    25    45    46    2
    26    75    76    1
    27    72    73    1
    28    76    79    1
    29    87    89   ar
    30    87    88   ar
    31    65    64    2
    32    79    80    1
    33    64    63    1
    34    63    62    1
    35    63    66    1
    36    67    66    1
    37    42    40   ar
    38    40    41   ar
    39    40    39    1
    40    39    36    1
    41    54    55    1
    42   116   114    1
    43     7     6   ar
    44   105   104    2
    45    55    56    1
    46    55    58    1
    47    56    57    2
    48     6     8   ar
    49     6     5    1
    50    38    37    2
    51    20    19    1
    52     5     2    1
    53   111   114    1
    54   111   112    1
    55   111   110    1
    56   114   115    1
    57   112   113    2
    58    36    37    1
    59    36    35    1
    60    27    29   ar
    61    27    26   ar
    62    29    30   ar
    63   104   110   am
    64   104   103    1
    65    59    58    1
    66    59    61    1
    67    35    23   am
    68    18    19   ar
    69    18    16   ar
    70    58    60    1
    71    19    17   ar
    72   109   107   am
    73     2     1    1
    74     2     3    1
    75    26    25    1
    76    26    28   ar
    77   106   107    1
    78   106   103    1
    79   107   108    2
    80    25    22    1
    81   103   102    1
    82    30    32   ar
    83    30    28   ar
    84    16    14   ar
    85    23    22    1
    86    23    24    2
    87    17    15   ar
    88    32    34   ar
    89    28    31   ar
    90     3     9   am
    91     3     4    2
    92    22    21    1
    93    21    11   am
    94     9    10    1
    95   102   100   am
    96    14    15   ar
    97    14    13    1
    98    96    95    2
    99    34    33   ar
   100    31    33   ar
   101   101   100    2
   102   100    99    1
   103    11    10    1
   104    11    12    2
   105    97    95   am
   106    10    13    1
   107    93    92    2
   108    95    94    1
   109    90    91    1
   110    92    91    1
   111    92    98   am
   112    91    94    1
   113    99    98    1
