@<TRIPOS>MOLECULE
tmp/4rm1C00.pdb
 113 102 0 0 0
SMALL
GASTEIGER

@<TRIPOS>ATOM
      1  N         20.8130   53.6650    2.5540 N.3    91  MET91      -0.1245
      2  CA        19.9110   54.1750    3.5690 C.3    91  MET91       0.1570
      3  C         19.7360   53.0980    4.6370 C.2    91  MET91       0.2261
      4  O         18.6470   52.7840    5.0520 O.2    91  MET91      -0.2867
      5  CB        18.5380   54.5160    2.9810 C.3    91  MET91       0.0387
      6  CG        18.4880   55.4650    1.7930 C.3    91  MET91       0.0595
      7  SD        16.8640   55.5020    1.0240 S.3    91  MET91      -0.1393
      8  CE        16.7760   57.1830    0.4710 C.3    91  MET91       0.0692
      9  N          8.1540   47.4040    7.2240 N.3   150  GLY150     -0.1210
     10  CA         8.7100   47.9540    6.0100 C.3   150  GLY150      0.1956
     11  C          7.8230   48.8970    5.2050 C.2   150  GLY150      0.2612
     12  O          6.6100   48.8480    5.2570 O.2   150  GLY150     -0.2717
     13  N          8.4630   49.7550    4.4180 N.am  151  GLY151     -0.1942
     14  CA         7.7880   50.7730    3.6160 C.3   151  GLY151      0.2014
     15  C          7.0610   50.2370    2.4000 C.2   151  GLY151      0.2639
     16  O          6.1350   50.9040    1.9440 O.2   151  GLY151     -0.2714
     17  N          7.4700   49.0750    1.8640 N.am  152  SER152     -0.1949
     18  CA         6.7260   48.4500    0.7550 C.3   152  SER152      0.1924
     19  C          5.3230   48.1320    1.1690 C.2   152  SER152      0.2314
     20  O          4.3910   48.2950    0.4090 O.2   152  SER152     -0.2863
     21  CB         7.4010   47.1610    0.2750 C.3   152  SER152      0.2116
     22  OG         8.6670   47.4380   -0.2380 O.3   152  SER152     -0.2180
     23  N          3.3170   51.4840    1.4140 N.3   155  ASN155     -0.1240
     24  CA         2.8630   51.8680    0.0660 C.3   155  ASN155      0.1653
     25  C          1.7620   50.9550   -0.4500 C.2   155  ASN155      0.2266
     26  O          0.7590   51.4280   -0.9860 O.2   155  ASN155     -0.2867
     27  CB         4.0380   51.8590   -0.9240 C.3   155  ASN155      0.1155
     28  CG         5.0190   52.9720   -0.6630 C.2   155  ASN155      0.2627
     29  OD1        4.6720   53.9740   -0.0630 O.2   155  ASN155     -0.2716
     30  ND2        6.2410   52.8070   -1.1120 N.am  155  ASN155     -0.0877
     31  N          9.8580   54.6470   -6.2610 N.3   190  HIS190     -0.1241
     32  CA        10.2210   53.2970   -5.7920 C.3   190  HIS190      0.1621
     33  C          9.5700   52.0940   -6.4750 C.2   190  HIS190      0.2264
     34  O          8.4250   52.1270   -6.7980 O.2   190  HIS190     -0.2867
     35  CB        10.0320   53.2050   -4.2740 C.3   190  HIS190      0.0745
     36  CG        10.9640   52.2530   -3.5990 C.ar  190  HIS190      0.0817
     37  ND1       10.6760   50.9250   -3.4200 N.ar  190  HIS190     -0.2268
     38  CD2       12.1770   52.4490   -3.0430 C.ar  190  HIS190      0.1154
     39  CE1       11.6800   50.3370   -2.8090 C.ar  190  HIS190      0.1986
     40  NE2       12.6020   51.2440   -2.5690 N.ar  190  HIS190     -0.2212
     41  N          8.5990   49.5120   -5.2610 N.3   192  SER192     -0.1217
     42  CA         7.5380   48.9130   -4.4690 C.3   192  SER192      0.1889
     43  C          6.2080   49.3290   -5.0210 C.2   192  SER192      0.2288
     44  O          5.1930   48.7120   -4.7090 O.2   192  SER192     -0.2866
     45  CB         7.6130   49.3010   -2.9940 C.3   192  SER192      0.2089
     46  OG         7.6500   50.7160   -2.8130 O.3   192  SER192     -0.2183
     47  N          7.1320   61.4630   -4.3920 N.3   243  THR243     -0.1218
     48  CA         8.1960   60.8580   -3.6050 C.3   243  THR243      0.1862
     49  C          9.0280   61.9270   -2.8980 C.2   243  THR243      0.2287
     50  O          9.6970   62.7370   -3.5360 O.2   243  THR243     -0.2866
     51  CB         9.0920   59.9560   -4.4970 C.3   243  THR243      0.1770
     52  OG1        8.2590   58.9630   -5.1070 O.3   243  THR243     -0.2211
     53  CG2       10.1340   59.2640   -3.6820 C.3   243  THR243      0.0375
     54  N         12.0230   62.2400   -1.3010 N.3   245  GLY245     -0.1225
     55  CA        13.2930   61.5770   -1.1530 C.3   245  GLY245      0.1811
     56  C         13.3970   60.2880   -1.9290 C.2   245  GLY245      0.2280
     57  O         13.2020   59.2160   -1.3910 O.2   245  GLY245     -0.2866
     58  N         14.8720   57.1410   -3.8480 N.3   247  THR247     -0.1218
     59  CA        15.8620   56.2410   -3.2980 C.3   247  THR247      0.1862
     60  C         17.2520   56.4630   -3.8800 C.2   247  THR247      0.2287
     61  O         18.1960   56.5270   -3.1570 O.2   247  THR247     -0.2866
     62  CB        15.4400   54.7790   -3.4870 C.3   247  THR247      0.1770
     63  OG1       14.1300   54.6070   -2.9690 O.3   247  THR247     -0.2211
     64  CG2       16.4000   53.8520   -2.7910 C.3   247  THR247      0.0375
     65  N          5.1160   59.2580   -0.7220 N.3   272  ASP272     -0.1239
     66  CA         6.1260   58.3320   -0.3130 C.3   272  ASP272      0.1674
     67  C          7.3200   59.0600    0.2770 C.2   272  ASP272      0.2266
     68  O          8.2780   59.3570   -0.3780 O.2   272  ASP272     -0.2867
     69  CB         6.4520   57.2950   -1.3920 C.3   272  ASP272      0.1410
     70  CG         7.4460   56.2310   -0.9260 C.2   272  ASP272      0.3668
     71  OD1        7.8730   56.2860    0.2340 O.co2 272  ASP272     -0.2456
     72  OD2        7.7880   55.3570   -1.7260 O.co2 272  ASP272     -0.2456
     73  N          9.2230   57.8550    2.6890 N.3   274  ALA274     -0.1231
     74  CA         9.8960   56.8370    3.4510 C.3   274  ALA274      0.1694
     75  C         11.1870   57.3400    4.0460 C.2   274  ALA274      0.2592
     76  O         11.4390   57.1350    5.1900 O.2   274  ALA274     -0.2718
     77  CB        10.1160   55.5970    2.6260 C.3   274  ALA274      0.0304
     78  N         11.9950   58.0070    3.2460 N.am  275  TYR275     -0.1976
     79  CA        13.2360   58.5580    3.7010 C.3   275  TYR275      0.1639
     80  C         13.0630   59.9770    4.1710 C.2   275  TYR275      0.2290
     81  O         13.3990   60.2980    5.2430 O.2   275  TYR275     -0.2864
     82  CB        14.3100   58.5100    2.6160 C.3   275  TYR275      0.0560
     83  CG        15.6780   58.8150    3.0940 C.ar  275  TYR275     -0.0198
     84  CD1       16.3750   57.9380    3.8840 C.ar  275  TYR275     -0.0009
     85  CD2       16.2930   59.9680    2.7500 C.ar  275  TYR275     -0.0009
     86  CE1       17.6140   58.2120    4.3200 C.ar  275  TYR275      0.0417
     87  CE2       17.5510   60.2560    3.1920 C.ar  275  TYR275      0.0417
     88  CZ        18.2070   59.3600    3.9820 C.ar  275  TYR275      0.1957
     89  OH        19.4670   59.5890    4.4510 O.3   275  TYR275     -0.2866
     90  N          9.4740   55.9090    6.9910 N.3   301  ASN301     -0.1240
     91  CA        10.3450   54.8480    7.5100 C.3   301  ASN301      0.1653
     92  C         11.4030   55.3090    8.5170 C.2   301  ASN301      0.2266
     93  O         12.5410   55.6090    8.1180 O.2   301  ASN301     -0.2867
     94  CB        11.1170   54.1700    6.3780 C.3   301  ASN301      0.1155
     95  CG        10.2470   53.3770    5.4730 C.2   301  ASN301      0.2627
     96  OD1        9.1030   53.7140    5.1570 O.2   301  ASN301     -0.2716
     97  ND2       10.7850   52.2980    5.0430 N.am  301  ASN301     -0.0877
     98  N         13.1860   53.5210   10.1720 N.3   303  GLN303     -0.1245
     99  CA        14.3540   52.6630   10.0640 C.3   303  GLN303      0.1566
    100  C         15.4570   53.2570    9.1260 C.2   303  GLN303      0.2260
    101  O         16.5790   52.7510    9.1320 O.2   303  GLN303     -0.2867
    102  CB        13.9420   51.2740    9.5840 C.3   303  GLN303      0.0367
    103  CG        13.7740   51.3040    8.1030 C.3   303  GLN303      0.0905
    104  CD        12.8900   50.2450    7.5480 C.2   303  GLN303      0.2608
    105  OE1       12.1010   49.5700    8.2260 O.2   303  GLN303     -0.2717
    106  NE2       13.0050   50.0990    6.2630 N.am  303  GLN303     -0.0878
    107  N         12.8750   46.2490   11.2880 N.3   310  THR310     -0.1218
    108  CA        12.1580   47.1750   10.4360 C.3   310  THR310      0.1862
    109  C         11.3060   48.1270   11.2560 C.2   310  THR310      0.2287
    110  O         10.8200   47.7740   12.3190 O.2   310  THR310     -0.2866
    111  CB        11.2490   46.4900    9.4040 C.3   310  THR310      0.1770
    112  OG1       10.5800   45.3730    9.9880 O.3   310  THR310     -0.2211
    113  CG2       12.0530   46.0350    8.2200 C.3   310  THR310      0.0375
@<TRIPOS>BOND
     1    34    33    2
     2    33    32    1
     3    31    32    1
     4    32    35    1
     5    41    42    1
     6    52    51    1
     7    43    44    2
     8    43    42    1
     9    51    53    1
    10    51    48    1
    11    42    45    1
    12    47    48    1
    13    35    36    1
    14    60    59    1
    15    60    61    2
    16    58    59    1
    17    48    49    1
    18    36    37   ar
    19    36    38   ar
    20    50    49    2
    21    62    59    1
    22    62    63    1
    23    62    64    1
    24    37    39   ar
    25    38    40   ar
    26    45    46    1
    27    39    40   ar
    28    56    57    2
    29    56    55    1
    30    72    70   ar
    31    69    70    1
    32    69    66    1
    33    54    55    1
    34    30    28   am
    35    26    25    2
    36    70    71   ar
    37    27    28    1
    38    27    24    1
    39    65    66    1
    40    28    29    2
    41    25    24    1
    42    68    67    2
    43    66    67    1
    44    22    21    1
    45    24    23    1
    46    21    18    1
    47    20    19    2
    48     8     7    1
    49    18    19    1
    50    18    17    1
    51     7     6    1
    52     6     5    1
    53    17    15   am
    54    16    15    2
    55    15    14    1
    56     1     2    1
    57    82    83    1
    58    82    79    1
    59    77    74    1
    60    73    74    1
    61    85    83   ar
    62    85    87   ar
    63     5     2    1
    64    83    84   ar
    65    87    88   ar
    66    78    79    1
    67    78    75   am
    68    74    75    1
    69     2     3    1
    70    14    13    1
    71    79    80    1
    72    84    86   ar
    73    88    86   ar
    74    88    89    1
    75    75    76    2
    76    80    81    2
    77    13    11   am
    78     3     4    2
    79    97    95   am
    80    96    95    2
    81    11    12    2
    82    11    10    1
    83    95    94    1
    84    10     9    1
    85   106   104   am
    86    94    91    1
    87    90    91    1
    88    91    92    1
    89   104   103    1
    90   104   105    2
    91   103   102    1
    92    93    92    2
    93   113   111    1
    94   100   101    2
    95   100    99    1
    96   111   112    1
    97   111   108    1
    98   102    99    1
    99    99    98    1
   100   108   109    1
   101   108   107    1
   102   109   110    2
