@<TRIPOS>MOLECULE
tmp/4rm2A01.pdb
 99 95 0 0 0
SMALL
GASTEIGER

@<TRIPOS>ATOM
      1  N         -3.5120    6.0590   19.5500 N.3   216  ALA216     -0.1231
      2  CA        -3.1090    6.9420   20.6490 C.3   216  ALA216      0.1694
      3  C         -3.5730    6.2860   21.9360 C.2   216  ALA216      0.2591
      4  O         -2.9270    6.4620   22.9750 O.2   216  ALA216     -0.2718
      5  CB        -3.7360    8.3420   20.5420 C.3   216  ALA216      0.0304
      6  N         -4.6910    5.5560   21.8740 N.am  217  ALA217     -0.1980
      7  CA        -5.1800    4.7320   22.9590 C.3   217  ALA217      0.1597
      8  C         -4.2580    3.5670   23.1910 C.2   217  ALA217      0.2287
      9  O         -4.0930    2.7310   22.3350 O.2   217  ALA217     -0.2864
     10  CB        -6.6300    4.2510   22.7080 C.3   217  ALA217      0.0319
     11  N          0.7150   10.4550   24.4360 N.3   246  PRO246     -0.2102
     12  CA         0.3430   11.0800   23.1660 C.3   246  PRO246      0.1504
     13  C          0.0980   12.6050   23.3660 C.2   246  PRO246      0.2576
     14  O         -0.4800   13.0440   24.3930 O.2   246  PRO246     -0.2718
     15  CB        -0.9360   10.3250   22.7300 C.3   246  PRO246      0.0282
     16  CG        -1.4650    9.7320   23.9770 C.3   246  PRO246      0.0208
     17  CD        -0.2900    9.4940   24.9120 C.3   246  PRO246      0.0893
     18  N          0.6610   13.3740   22.4690 N.am  247  THR247     -0.1940
     19  CA         0.4630   14.8070   22.3510 C.3   247  THR247      0.2013
     20  C          0.2920   15.0310   20.8500 C.2   247  THR247      0.2484
     21  O          0.7060   14.2110   20.0450 O.2   247  THR247     -0.2729
     22  CB         1.7450   15.5410   22.8090 C.3   247  THR247      0.1807
     23  OG1        2.8680   15.1280   21.9830 O.3   247  THR247     -0.2208
     24  CG2        2.0380   15.2800   24.2960 C.3   247  THR247      0.0379
     25  N         -0.1770   16.2150   20.4320 N.am  248  PRO248     -0.2726
     26  CA        -0.1800   16.4290   18.9980 C.3   248  PRO248      0.1402
     27  C          1.1410   16.2280   18.2930 C.2   248  PRO248      0.2269
     28  O          1.1670   15.5540   17.2440 O.2   248  PRO248     -0.2865
     29  CB        -0.7200   17.8470   18.8590 C.3   248  PRO248      0.0296
     30  CG        -1.6280   17.9430   20.0240 C.3   248  PRO248      0.0237
     31  CD        -0.8850   17.2860   21.1480 C.3   248  PRO248      0.0939
     32  N          2.1180   12.5470   17.9230 N.3   251  VAL251     -0.1245
     33  CA         1.2700   11.8910   16.9120 C.3   251  VAL251      0.1561
     34  C          1.6600   12.3290   15.5110 C.2   251  VAL251      0.2260
     35  O          1.8770   11.5070   14.6190 O.2   251  VAL251     -0.2867
     36  CB        -0.2210   12.1140   17.1650 C.3   251  VAL251      0.0252
     37  CG1       -1.0620   11.6920   15.9480 C.3   251  VAL251      0.0019
     38  CG2       -0.6490   11.3840   18.4470 C.3   251  VAL251      0.0019
     39  N         -5.6290    5.5450   12.0880 N.3   267  PHE267     -0.1241
     40  CA        -5.4270    6.1850   13.3490 C.3   267  PHE267      0.1605
     41  C         -6.6430    6.0860   14.2080 C.2   267  PHE267      0.2264
     42  O         -7.7300    6.0770   13.7320 O.2   267  PHE267     -0.2867
     43  CB        -5.0770    7.6610   13.2130 C.3   267  PHE267      0.0534
     44  CG        -4.7920    8.3530   14.5350 C.ar  267  PHE267     -0.0203
     45  CD1       -3.6070    8.1510   15.2380 C.ar  267  PHE267     -0.0042
     46  CD2       -5.7640    9.2180   15.0910 C.ar  267  PHE267     -0.0042
     47  CE1       -3.3910    8.7300   16.5110 C.ar  267  PHE267     -0.0003
     48  CE2       -5.5160    9.8480   16.2950 C.ar  267  PHE267     -0.0003
     49  CZ        -4.3110    9.6110   16.9890 C.ar  267  PHE267     -0.0000
     50  N         -8.0890    7.3760   18.2890 N.3   269  GLY269     -0.1210
     51  CA        -7.8820    8.1740   19.4200 C.3   269  GLY269      0.1956
     52  C         -9.1850    8.6900   20.0250 C.2   269  GLY269      0.2611
     53  O        -10.2720    8.3600   19.5850 O.2   269  GLY269     -0.2717
     54  N         -9.0330    9.5430   21.0020 N.am  270  ALA270     -0.1979
     55  CA       -10.1760   10.1500   21.6760 C.3   270  ALA270      0.1597
     56  C        -10.5420   11.5020   21.0380 C.2   270  ALA270      0.2287
     57  O         -9.6300   12.2360   20.5810 O.2   270  ALA270     -0.2864
     58  CB        -9.8610   10.3350   23.1620 C.3   270  ALA270      0.0319
     59  N        -10.9460   14.2750   22.5440 N.3   272  THR272     -0.1203
     60  CA       -10.0770   15.2670   23.1270 C.3   272  THR272      0.1994
     61  C         -8.8120   15.4240   22.3480 C.2   272  THR272      0.2618
     62  O         -8.2980   16.5680   22.1550 O.2   272  THR272     -0.2717
     63  CB        -9.8220   14.9490   24.6080 C.3   272  THR272      0.1784
     64  OG1      -11.0780   15.1850   25.3240 O.3   272  THR272     -0.2211
     65  CG2       -8.7460   15.7980   25.1560 C.3   272  THR272      0.0376
     66  N         -8.2640   14.2940   21.9220 N.am  273  GLY273     -0.1942
     67  CA        -7.0070   14.3230   21.1410 C.3   273  GLY273      0.2014
     68  C         -7.2180   14.9320   19.7660 C.2   273  GLY273      0.2638
     69  O         -6.3800   15.7000   19.2850 O.2   273  GLY273     -0.2714
     70  N         -8.2530   14.5320   19.0850 N.am  274  TYR274     -0.1973
     71  CA        -8.5640   15.0940   17.7690 C.3   274  TYR274      0.1639
     72  C         -8.7560   16.6330   17.8830 C.2   274  TYR274      0.2290
     73  O         -8.2260   17.3720   17.0540 O.2   274  TYR274     -0.2864
     74  CB        -9.8020   14.4990   17.1540 C.3   274  TYR274      0.0560
     75  CG        -9.6180   13.1120   16.5810 C.ar  274  TYR274     -0.0198
     76  CD1       -8.9540   12.9110   15.3870 C.ar  274  TYR274     -0.0009
     77  CD2      -10.0190   11.9730   17.2770 C.ar  274  TYR274     -0.0009
     78  CE1       -8.7900   11.6270   14.8520 C.ar  274  TYR274      0.0417
     79  CE2       -9.8540   10.6930   16.7370 C.ar  274  TYR274      0.0417
     80  CZ        -9.2450   10.5380   15.4970 C.ar  274  TYR274      0.1957
     81  OH        -9.0180    9.3100   14.8580 O.3   274  TYR274     -0.2866
     82  N         -7.3650   18.6400   20.1520 N.3   276  GLY276     -0.1210
     83  CA        -6.0070   19.1200   20.4510 C.3   276  GLY276      0.1956
     84  C         -5.1520   19.1400   19.1860 C.2   276  GLY276      0.2611
     85  O         -4.4060   20.1470   18.9030 O.2   276  GLY276     -0.2717
     86  N         -5.2780   18.1170   18.3400 N.am  277  MET277     -0.1979
     87  CA        -4.5680   18.1560   17.0470 C.3   277  MET277      0.1605
     88  C         -5.0530   19.2880   16.1180 C.2   277  MET277      0.2287
     89  O         -4.2190   19.9450   15.4840 O.2   277  MET277     -0.2864
     90  CB        -4.6420   16.8170   16.3010 C.3   277  MET277      0.0413
     91  CG        -3.8120   15.8170   17.0720 C.3   277  MET277      0.0598
     92  SD        -3.6330   14.2030   16.2740 S.3   277  MET277     -0.1393
     93  CE        -5.3180   13.6460   16.1550 C.3   277  MET277      0.0692
     94  N        -11.9000   11.9050   28.0570 N.3   424  SER424     -0.1217
     95  CA       -10.8850   11.5100   27.1370 C.3   424  SER424      0.1889
     96  C        -10.5320   10.0630   27.2460 C.2   424  SER424      0.2288
     97  O         -9.3490    9.7560   27.2190 O.2   424  SER424     -0.2866
     98  CB        -9.6250   12.3130   27.4180 C.3   424  SER424      0.2089
     99  OG        -8.7100   12.0850   26.3640 O.3   424  SER424     -0.2183
@<TRIPOS>BOND
     1    39    40    1
     2    43    40    1
     3    43    44    1
     4    40    41    1
     5    42    41    2
     6    44    46   ar
     7    44    45   ar
     8    35    34    2
     9    78    76   ar
    10    78    80   ar
    11    81    80    1
    12    46    48   ar
    13    45    47   ar
    14    76    75   ar
    15    89    88    2
    16    80    79   ar
    17    34    33    1
    18    37    36    1
    19    88    87    1
    20    93    92    1
    21    92    91    1
    22    48    49   ar
    23    90    87    1
    24    90    91    1
    25    47    49   ar
    26    75    74    1
    27    75    77   ar
    28    79    77   ar
    29    33    36    1
    30    33    32    1
    31    87    86    1
    32    73    72    2
    33    74    71    1
    34    36    38    1
    35    28    27    2
    36    71    72    1
    37    71    70    1
    38    50    51    1
    39    27    26    1
    40    86    84   am
    41    29    26    1
    42    29    30    1
    43    85    84    2
    44    26    25    1
    45    70    68   am
    46    84    83    1
    47    69    68    2
    48    51    52    1
    49     1     2    1
    50    53    52    2
    51    68    67    1
    52    30    31    1
    53    52    54   am
    54    21    20    2
    55    82    83    1
    56    25    20   am
    57    25    31    1
    58     5     2    1
    59    57    56    2
    60     2     3    1
    61    20    19    1
    62    54    55    1
    63    56    55    1
    64    67    66    1
    65    55    58    1
    66     6     3   am
    67     6     7    1
    68    66    61   am
    69     3     4    2
    70    23    22    1
    71    62    61    2
    72     9     8    2
    73    61    60    1
    74    19    18    1
    75    19    22    1
    76    18    13   am
    77    59    60    1
    78    10     7    1
    79    15    12    1
    80    15    16    1
    81    22    24    1
    82     7     8    1
    83    60    63    1
    84    12    13    1
    85    12    11    1
    86    13    14    2
    87    16    17    1
    88    11    17    1
    89    63    65    1
    90    63    64    1
    91    99    98    1
    92    95    96    1
    93    95    98    1
    94    95    94    1
    95    97    96    2
