@<TRIPOS>MOLECULE
tmp/4rm2B00.pdb
 106 102 0 0 0
SMALL
GASTEIGER

@<TRIPOS>ATOM
      1  N         -1.2660    0.4590   71.8780 N.3   222  ALA222     -0.1231
      2  CA        -1.4530   -0.3970   73.0340 C.3   222  ALA222      0.1694
      3  C         -0.8710    0.2000   74.3410 C.2   222  ALA222      0.2592
      4  O         -1.5040    0.0520   75.3910 O.2   222  ALA222     -0.2718
      5  CB        -0.7860   -1.7410   72.7850 C.3   222  ALA222      0.0304
      6  N          0.3240    0.8210   74.2650 N.am  223  TYR223     -0.1976
      7  CA         0.9560    1.4470   75.4220 C.3   223  TYR223      0.1639
      8  C         -0.0200    2.5090   76.0570 C.2   223  TYR223      0.2290
      9  O         -0.3250    2.4510   77.2600 O.2   223  TYR223     -0.2864
     10  CB         2.2640    2.1290   75.0110 C.3   223  TYR223      0.0560
     11  CG         3.0640    2.8330   76.1130 C.ar  223  TYR223     -0.0198
     12  CD1        3.3490    2.2330   77.3020 C.ar  223  TYR223     -0.0009
     13  CD2        3.6120    4.0940   75.8760 C.ar  223  TYR223     -0.0009
     14  CE1        4.0590    2.8860   78.2990 C.ar  223  TYR223      0.0417
     15  CE2        4.3720    4.7450   76.8770 C.ar  223  TYR223      0.0417
     16  CZ         4.6010    4.1330   78.0810 C.ar  223  TYR223      0.1957
     17  OH         5.3580    4.7610   79.0980 O.3   223  TYR223     -0.2866
     18  N          8.2210    3.9560   77.3610 N.3   297  ALA297     -0.1231
     19  CA         8.2360    2.8280   76.4050 C.3   297  ALA297      0.1694
     20  C          8.2460    3.3670   74.9990 C.2   297  ALA297      0.2592
     21  O          7.8790    4.5170   74.7420 O.2   297  ALA297     -0.2718
     22  CB         6.9630    1.9490   76.5970 C.3   297  ALA297      0.0304
     23  N          8.5820    2.5100   74.0410 N.am  298  GLY298     -0.1957
     24  CA         8.4950    2.8620   72.6630 C.3   298  GLY298      0.1869
     25  C          9.8020    2.7760   71.9070 C.2   298  GLY298      0.2309
     26  O          9.7840    2.7030   70.7050 O.2   298  GLY298     -0.2863
     27  N         10.1560    0.2580   80.3490 N.3   320  GLY320     -0.1210
     28  CA         9.8360   -1.1210   80.1070 C.3   320  GLY320      0.1956
     29  C          9.4330   -1.3910   78.6530 C.2   320  GLY320      0.2612
     30  O          9.2570   -0.4730   77.8660 O.2   320  GLY320     -0.2717
     31  N          9.3280   -2.6470   78.2900 N.am  321  ILE321     -0.1965
     32  CA         8.9490   -3.0020   76.9520 C.3   321  ILE321      0.1727
     33  C          7.7190   -3.8790   76.9120 C.2   321  ILE321      0.2617
     34  O          7.5960   -4.8380   77.6340 O.2   321  ILE321     -0.2715
     35  CB        10.1440   -3.5780   76.1650 C.3   321  ILE321      0.0290
     36  CG1        9.6720   -3.9240   74.8190 C.3   321  ILE321      0.0022
     37  CG2       10.6750   -4.8570   76.8120 C.3   321  ILE321      0.0023
     38  CD1       10.5750   -3.5330   73.7490 C.3   321  ILE321      0.0001
     39  N          6.7960   -3.5170   76.0340 N.am  322  GLY322     -0.1940
     40  CA         5.6270   -4.3090   75.6930 C.3   322  GLY322      0.2014
     41  C          5.5530   -4.4580   74.1860 C.2   322  GLY322      0.2640
     42  O          6.4760   -4.0820   73.4530 O.2   322  GLY322     -0.2714
     43  N          4.4390   -5.0010   73.6990 N.am  323  SER323     -0.1935
     44  CA         4.2070   -5.0890   72.2450 C.3   323  SER323      0.2055
     45  C          2.7270   -5.0220   71.9920 C.2   323  SER323      0.2643
     46  O          1.8990   -5.2820   72.8950 O.2   323  SER323     -0.2714
     47  CB         4.8430   -6.3730   71.6610 C.3   323  SER323      0.2130
     48  OG         4.1140   -7.5330   72.1300 O.3   323  SER323     -0.2179
     49  N          2.3570   -4.7220   70.7520 N.am  324  THR324     -0.1950
     50  CA         0.9690   -4.8690   70.3850 C.3   324  THR324      0.1897
     51  C          0.3900   -6.2510   70.7050 C.2   324  THR324      0.2313
     52  O         -0.7450   -6.3760   71.2590 O.2   324  THR324     -0.2863
     53  CB         0.7890   -4.5350   68.8790 C.3   324  THR324      0.1794
     54  OG1        1.4720   -3.2930   68.6170 O.3   324  THR324     -0.2208
     55  CG2       -0.6220   -4.3050   68.5400 C.3   324  THR324      0.0378
     56  N         -0.0310   -6.8290   74.3680 N.3   327  LEU327     -0.1231
     57  CA        -0.9480   -5.7750   74.9080 C.3   327  LEU327      0.1693
     58  C         -0.3100   -4.6950   75.7900 C.2   327  LEU327      0.2592
     59  O         -0.5800   -3.5150   75.5920 O.2   327  LEU327     -0.2718
     60  CB        -2.1820   -6.3880   75.5850 C.3   327  LEU327      0.0284
     61  CG        -3.2980   -5.3360   75.8430 C.3   327  LEU327      0.0019
     62  CD1       -3.6500   -4.5330   74.6310 C.3   327  LEU327      0.0001
     63  CD2       -4.5350   -5.9560   76.4520 C.3   327  LEU327      0.0001
     64  N          0.5780   -5.0770   76.6890 N.am  328  HIS328     -0.1962
     65  CA         1.3460   -4.1210   77.4770 C.3   328  HIS328      0.1787
     66  C          2.6970   -4.7210   77.9220 C.2   328  HIS328      0.2620
     67  O          3.1870   -5.7400   77.3400 O.2   328  HIS328     -0.2715
     68  CB         0.4500   -3.4760   78.5910 C.3   328  HIS328      0.0785
     69  CG         0.7690   -2.0350   78.8320 C.ar  328  HIS328      0.0821
     70  ND1        1.8270   -1.6370   79.6400 N.ar  328  HIS328     -0.2267
     71  CD2        0.2140   -0.8940   78.3510 C.ar  328  HIS328      0.1154
     72  CE1        1.8880   -0.3150   79.6550 C.ar  328  HIS328      0.1986
     73  NE2        0.9120    0.1630   78.8850 N.ar  328  HIS328     -0.2212
     74  N          3.2950   -4.0870   78.9120 N.am  329  ILE329     -0.1977
     75  CA         4.6730   -4.2750   79.2490 C.3   329  ILE329      0.1596
     76  C          4.8490   -5.6040   80.0110 C.2   329  ILE329      0.2287
     77  O          4.1210   -5.9030   80.9660 O.2   329  ILE329     -0.2864
     78  CB         5.1800   -3.0540   80.0200 C.3   329  ILE329      0.0276
     79  CG1        5.2780   -1.8530   79.0890 C.3   329  ILE329      0.0022
     80  CG2        6.5440   -3.3130   80.7090 C.3   329  ILE329      0.0022
     81  CD1        5.6160   -0.5520   79.7610 C.3   329  ILE329      0.0001
     82  N         12.0160    1.3090   65.0550 N.3   422  LYS422     -0.1245
     83  CA        11.0030    1.7250   66.0030 C.3   422  LYS422      0.1561
     84  C         11.2520    3.1860   66.3850 C.2   422  LYS422      0.2260
     85  O         12.2190    3.5040   67.0930 O.2   422  LYS422     -0.2867
     86  CB        10.9740    0.7860   67.1960 C.3   422  LYS422      0.0271
     87  CG         9.6290    0.7880   67.9110 C.3   422  LYS422      0.0035
     88  CD         9.6960   -0.1180   69.1420 C.3   422  LYS422      0.0206
     89  CE         8.3680   -0.1920   69.9130 C.3   422  LYS422      0.1093
     90  NZ         8.4820   -0.9500   71.2390 N.3   422  LYS422     -0.1314
     91  N          8.0730    5.0230   69.4870 N.3   425  GLY425     -0.1225
     92  CA         6.9270    4.2380   69.8580 C.3   425  GLY425      0.1811
     93  C          6.2270    3.5990   68.7050 C.2   425  GLY425      0.2280
     94  O          5.4060    2.6850   68.9080 O.2   425  GLY425     -0.2866
     95  N          6.5430    1.4570   65.2150 N.3   427  TYR427     -0.1241
     96  CA         7.1880    0.5790   64.2580 C.3   427  TYR427      0.1605
     97  C          6.9640    1.1130   62.8600 C.2   427  TYR427      0.2264
     98  O          5.8330    1.3530   62.4440 O.2   427  TYR427     -0.2867
     99  CB         6.6910   -0.8620   64.3790 C.3   427  TYR427      0.0534
    100  CG         7.5440   -1.6730   65.3380 C.ar  427  TYR427     -0.0201
    101  CD1        8.8880   -1.8510   65.0960 C.ar  427  TYR427     -0.0009
    102  CD2        7.0130   -2.2440   66.4960 C.ar  427  TYR427     -0.0009
    103  CE1        9.7090   -2.5540   65.9790 C.ar  427  TYR427      0.0417
    104  CE2        7.8260   -2.9570   67.3940 C.ar  427  TYR427      0.0417
    105  CZ         9.1890   -3.1120   67.1320 C.ar  427  TYR427      0.1957
    106  OH        10.0740   -3.7720   68.0240 O.3   427  TYR427     -0.2866
@<TRIPOS>BOND
     1    98    97    2
     2    97    96    1
     3    96    99    1
     4    96    95    1
     5    99   100    1
     6    82    83    1
     7   101   100   ar
     8   101   103   ar
     9   100   102   ar
    10   103   105   ar
    11    83    84    1
    12    83    86    1
    13    84    85    2
    14   102   104   ar
    15   105   104   ar
    16   105   106    1
    17    86    87    1
    18    87    88    1
    19    55    53    1
    20    54    53    1
    21    93    94    2
    22    93    92    1
    23    53    50    1
    24    88    89    1
    25    91    92    1
    26    89    90    1
    27    50    51    1
    28    50    49    1
    29    51    52    2
    30    26    25    2
    31    49    45   am
    32    47    48    1
    33    47    44    1
    34     1     2    1
    35    25    24    1
    36    45    44    1
    37    45    46    2
    38    44    43    1
    39    24    23    1
    40     5     2    1
    41     2     3    1
    42    42    41    2
    43    43    41   am
    44    38    36    1
    45    23    20   am
    46    41    40    1
    47     6     3   am
    48     6     7    1
    49     3     4    2
    50    56    57    1
    51    62    61    1
    52    21    20    2
    53    36    35    1
    54    57    60    1
    55    57    58    1
    56    20    19    1
    57    10     7    1
    58    10    11    1
    59     7     8    1
    60    60    61    1
    61    59    58    2
    62    40    39    1
    63    58    64   am
    64    61    63    1
    65    13    11   ar
    66    13    15   ar
    67    39    33   am
    68     8     9    2
    69    11    12   ar
    70    35    37    1
    71    35    32    1
    72    19    22    1
    73    19    18    1
    74    64    65    1
    75    15    16   ar
    76    33    32    1
    77    33    34    2
    78    32    31    1
    79    12    14   ar
    80    67    66    2
    81    65    66    1
    82    65    68    1
    83    30    29    2
    84    66    74   am
    85    16    14   ar
    86    16    17    1
    87    31    29   am
    88    71    69   ar
    89    71    73   ar
    90    68    69    1
    91    29    28    1
    92    69    70   ar
    93    73    72   ar
    94    74    75    1
    95    79    81    1
    96    79    78    1
    97    75    76    1
    98    75    78    1
    99    70    72   ar
   100    76    77    2
   101    78    80    1
   102    28    27    1
