@<TRIPOS>MOLECULE
tmp/4rm3A00.pdb
 102 98 0 0 0
SMALL
GASTEIGER

@<TRIPOS>ATOM
      1  N          9.1150    1.3850   26.3060 N.3   223  ALA223     -0.1231
      2  CA         9.7870    2.3040   25.4050 C.3   223  ALA223      0.1694
      3  C          9.7100    1.7320   23.9420 C.2   223  ALA223      0.2592
      4  O          9.5250    2.4960   22.9620 O.2   223  ALA223     -0.2718
      5  CB        11.2140    2.3740   25.8490 C.3   223  ALA223      0.0304
      6  N          9.9820    0.4360   23.7910 N.am  224  TYR224     -0.1976
      7  CA        10.0480   -0.1530   22.4390 C.3   224  TYR224      0.1639
      8  C          8.7010    0.0590   21.7820 C.2   224  TYR224      0.2290
      9  O          8.5750    0.5830   20.6630 O.2   224  TYR224     -0.2864
     10  CB        10.2840   -1.6480   22.6420 C.3   224  TYR224      0.0560
     11  CG        10.3670   -2.4930   21.3520 C.ar  224  TYR224     -0.0198
     12  CD1       11.1190   -2.0190   20.2510 C.ar  224  TYR224     -0.0009
     13  CD2        9.7760   -3.7870   21.2950 C.ar  224  TYR224     -0.0009
     14  CE1       11.2190   -2.8340   19.0660 C.ar  224  TYR224      0.0417
     15  CE2        9.8400   -4.5800   20.1430 C.ar  224  TYR224      0.0417
     16  CZ        10.5240   -4.0870   19.0380 C.ar  224  TYR224      0.1957
     17  OH        10.6220   -4.8590   17.8930 O.3   224  TYR224     -0.2866
     18  N         12.9640   -6.8000   19.5650 N.3   298  ALA298     -0.1231
     19  CA        13.7840   -6.2660   20.6100 C.3   298  ALA298      0.1694
     20  C         13.2270   -6.7520   21.9190 C.2   298  ALA298      0.2592
     21  O         12.0950   -7.2330   21.9620 O.2   298  ALA298     -0.2718
     22  CB        13.8380   -4.7590   20.6110 C.3   298  ALA298      0.0304
     23  N         13.9840   -6.5610   23.0010 N.am  299  GLY299     -0.1957
     24  CA        13.4550   -6.9370   24.3670 C.3   299  GLY299      0.1869
     25  C         14.2440   -8.1390   24.9450 C.2   299  GLY299      0.2309
     26  O         14.1770   -8.4100   26.1600 O.2   299  GLY299     -0.2863
     27  N         18.6890   -3.3830   19.8120 N.3   322  ILE322     -0.1231
     28  CA        18.6530   -3.2490   21.2630 C.3   322  ILE322      0.1692
     29  C         18.4440   -1.7300   21.5290 C.2   322  ILE322      0.2593
     30  O         19.1410   -0.9240   20.9550 O.2   322  ILE322     -0.2718
     31  CB        19.9450   -3.7740   21.9780 C.3   322  ILE322      0.0266
     32  CG1       19.7140   -3.5680   23.5180 C.3   322  ILE322      0.0019
     33  CG2       21.2300   -3.0610   21.4510 C.3   322  ILE322      0.0020
     34  CD1       20.5860   -4.5430   24.4550 C.3   322  ILE322      0.0001
     35  N         17.4760   -1.3900   22.3830 N.am  323  GLY323     -0.1942
     36  CA        17.4550   -0.0370   22.9430 C.3   323  GLY323      0.2014
     37  C         17.3090   -0.1130   24.4510 C.2   323  GLY323      0.2640
     38  O         17.5370   -1.1710   25.0860 O.2   323  GLY323     -0.2714
     39  N         17.0190    1.0210   25.0680 N.am  324  SER324     -0.1935
     40  CA        16.6660    0.8900   26.5100 C.3   324  SER324      0.2055
     41  C         15.6370    1.8960   26.8900 C.2   324  SER324      0.2643
     42  O         15.3460    2.7930   26.1030 O.2   324  SER324     -0.2714
     43  CB        17.9480    1.0890   27.3700 C.3   324  SER324      0.2130
     44  OG        18.4560    2.4240   27.1920 O.3   324  SER324     -0.2179
     45  N         15.1180    1.8030   28.1320 N.am  325  THR325     -0.1950
     46  CA        14.2070    2.8350   28.6230 C.3   325  THR325      0.1897
     47  C         14.9010    4.2070   28.6640 C.2   325  THR325      0.2313
     48  O         14.3470    5.2080   28.2100 O.2   325  THR325     -0.2863
     49  CB        13.7090    2.4490   30.0390 C.3   325  THR325      0.1794
     50  OG1       13.1470    1.1240   29.9520 O.3   325  THR325     -0.2208
     51  CG2       12.6460    3.4440   30.5020 C.3   325  THR325      0.0378
     52  N         15.4290    5.4820   25.1960 N.3   328  LEU328     -0.1231
     53  CA        14.1260    5.6840   24.5630 C.3   328  LEU328      0.1693
     54  C         13.8280    4.6760   23.4540 C.2   328  LEU328      0.2592
     55  O         12.7030    4.1390   23.3860 O.2   328  LEU328     -0.2718
     56  CB        13.7970    7.1410   24.0910 C.3   328  LEU328      0.0284
     57  CG        12.3040    7.3920   23.7390 C.3   328  LEU328      0.0019
     58  CD1       11.3830    6.9780   24.9520 C.3   328  LEU328      0.0001
     59  CD2       12.0450    8.7780   23.2620 C.3   328  LEU328      0.0001
     60  N         14.7740    4.4220   22.5530 N.am  329  HIS329     -0.1962
     61  CA        14.5410    3.3220   21.5750 C.3   329  HIS329      0.1787
     62  C         15.8910    2.7720   21.1170 C.2   329  HIS329      0.2620
     63  O         16.8990    2.9450   21.7740 O.2   329  HIS329     -0.2715
     64  CB        13.6660    3.8200   20.4040 C.3   329  HIS329      0.0785
     65  CG        12.7770    2.7390   19.8150 C.ar  329  HIS329      0.0821
     66  ND1       13.1870    1.8680   18.8330 N.ar  329  HIS329     -0.2267
     67  CD2       11.4580    2.4590   20.0280 C.ar  329  HIS329      0.1154
     68  CE1       12.2090    1.0320   18.5040 C.ar  329  HIS329      0.1986
     69  NE2       11.1240    1.3720   19.2170 N.ar  329  HIS329     -0.2212
     70  N         15.9100    2.1710   19.9530 N.am  330  ILE330     -0.1977
     71  CA        17.0080    1.3260   19.5450 C.3   330  ILE330      0.1596
     72  C         18.2110    2.1660   19.0700 C.2   330  ILE330      0.2287
     73  O         18.1100    3.0630   18.2680 O.2   330  ILE330     -0.2864
     74  CB        16.4860    0.3320   18.4340 C.3   330  ILE330      0.0276
     75  CG1       15.6260   -0.7420   19.0640 C.3   330  ILE330      0.0022
     76  CG2       17.6400   -0.3350   17.7210 C.3   330  ILE330      0.0022
     77  CD1       14.7810   -1.6460   18.1270 C.3   330  ILE330      0.0001
     78  N         16.5960  -10.4020   31.4260 N.3   423  LYS423     -0.1245
     79  CA        15.6890   -9.7590   30.5130 C.3   423  LYS423      0.1561
     80  C         14.7940  -10.8030   29.8900 C.2   423  LYS423      0.2260
     81  O         15.2010  -11.5090   28.9830 O.2   423  LYS423     -0.2867
     82  CB        16.4530   -8.9610   29.4610 C.3   423  LYS423      0.0271
     83  CG        15.7750   -7.6470   29.1840 C.3   423  LYS423      0.0035
     84  CD        16.5260   -6.8560   28.0880 C.3   423  LYS423      0.0206
     85  CE        15.5780   -5.7860   27.4710 C.3   423  LYS423      0.1093
     86  NZ        16.4060   -5.0640   26.3870 N.3   423  LYS423     -0.1314
     87  N         11.3580   -8.9800   27.0030 N.3   426  GLY426     -0.1225
     88  CA        11.1230   -7.5380   27.0470 C.3   426  GLY426      0.1811
     89  C         11.0290   -6.8640   28.3960 C.2   426  GLY426      0.2280
     90  O         11.0560   -5.6390   28.4780 O.2   426  GLY426     -0.2866
     91  N         12.4960   -6.5750   32.3150 N.3   428  TYR428     -0.1241
     92  CA        13.5140   -6.8130   33.2630 C.3   428  TYR428      0.1605
     93  C         12.8760   -7.4780   34.4950 C.2   428  TYR428      0.2264
     94  O         11.8690   -6.9970   35.0110 O.2   428  TYR428     -0.2867
     95  CB        14.1840   -5.4860   33.5740 C.3   428  TYR428      0.0534
     96  CG        15.2140   -5.1360   32.5460 C.ar  428  TYR428     -0.0201
     97  CD1       16.4050   -5.8630   32.5000 C.ar  428  TYR428     -0.0009
     98  CD2       15.0160   -4.1240   31.5900 C.ar  428  TYR428     -0.0009
     99  CE1       17.4100   -5.5890   31.5730 C.ar  428  TYR428      0.0417
    100  CE2       16.0590   -3.8390   30.6200 C.ar  428  TYR428      0.0417
    101  CZ        17.2380   -4.5930   30.6580 C.ar  428  TYR428      0.1957
    102  OH        18.2810   -4.4300   29.7730 O.3   428  TYR428     -0.2866
@<TRIPOS>BOND
     1    76    74    1
     2    17    16    1
     3    77    75    1
     4    73    72    2
     5    74    75    1
     6    74    71    1
     7    68    66   ar
     8    68    69   ar
     9    66    65   ar
    10    16    14   ar
    11    16    15   ar
    12    14    12   ar
    13    72    71    1
    14    69    67   ar
    15    71    70    1
    16    18    19    1
    17    27    28    1
    18    65    67   ar
    19    65    64    1
    20    70    62   am
    21    15    13   ar
    22    12    11   ar
    23    64    61    1
    24    19    22    1
    25    19    20    1
    26     9     8    2
    27    30    29    2
    28    62    61    1
    29    62    63    2
    30    28    29    1
    31    28    31    1
    32    13    11   ar
    33    11    10    1
    34    33    31    1
    35    29    35   am
    36    61    60    1
    37     8     7    1
    38    20    21    2
    39    20    23   am
    40    31    32    1
    41    35    36    1
    42     7    10    1
    43     7     6    1
    44    60    54   am
    45    36    37    1
    46     4     3    2
    47    23    24    1
    48    59    57    1
    49    55    54    2
    50    54    53    1
    51    32    34    1
    52    57    56    1
    53    57    58    1
    54     6     3   am
    55     3     2    1
    56    56    53    1
    57    24    25    1
    58    37    39   am
    59    37    38    2
    60    53    52    1
    61    25    26    2
    62    39    40    1
    63     2     5    1
    64     2     1    1
    65    42    41    2
    66    86    85    1
    67    40    41    1
    68    40    43    1
    69    41    45   am
    70    87    88    1
    71    88    89    1
    72    44    43    1
    73    85    84    1
    74    84    83    1
    75    45    46    1
    76    48    47    2
    77    89    90    2
    78    46    47    1
    79    46    49    1
    80    81    80    2
    81    83    82    1
    82    82    79    1
    83   102   101    1
    84    80    79    1
    85    50    49    1
    86    49    51    1
    87    79    78    1
    88   100   101   ar
    89   100    98   ar
    90   101    99   ar
    91    99    97   ar
    92    98    96   ar
    93    91    92    1
    94    97    96   ar
    95    96    95    1
    96    92    95    1
    97    92    93    1
    98    93    94    2
