@<TRIPOS>MOLECULE
tmp/4rmcA01.pdb
 211 200 0 0 0
SMALL
GASTEIGER

@<TRIPOS>ATOM
      1  N         65.1000   39.6840   35.8340 N.3    21  VAL21      -0.1245
      2  CA        65.6260   40.2200   34.5820 C.3    21  VAL21       0.1561
      3  C         65.0960   39.4740   33.3550 C.2    21  VAL21       0.2260
      4  O         64.8540   40.0790   32.3090 O.2    21  VAL21      -0.2867
      5  CB        67.1640   40.1830   34.5660 C.3    21  VAL21       0.0252
      6  CG1       67.6850   40.4550   33.1630 C.3    21  VAL21       0.0019
      7  CG2       67.7100   41.2260   35.5250 C.3    21  VAL21       0.0019
      8  N         61.5600   40.5020   32.8720 N.3    24  ILE24      -0.1231
      9  CA        61.5660   41.8460   32.3270 C.3    24  ILE24       0.1692
     10  C         61.7840   41.7930   30.8110 C.2    24  ILE24       0.2592
     11  O         61.1020   42.4860   30.0610 O.2    24  ILE24      -0.2718
     12  CB        62.6660   42.6950   33.0150 C.3    24  ILE24       0.0266
     13  CG1       62.2490   42.9810   34.4590 C.3    24  ILE24       0.0019
     14  CG2       62.8860   44.0010   32.2730 C.3    24  ILE24       0.0020
     15  CD1       63.3820   43.4440   35.3640 C.3    24  ILE24       0.0001
     16  N         62.7210   40.9630   30.3610 N.am   25  CYS25      -0.1970
     17  CA        62.9960   40.8370   28.9300 C.3    25  CYS25       0.1712
     18  C         61.8220   40.2210   28.1630 C.2    25  CYS25       0.2296
     19  O         61.5590   40.5930   27.0210 O.2    25  CYS25      -0.2864
     20  CB        64.2490   39.9940   28.6930 C.3    25  CYS25       0.0983
     21  SG        65.7930   40.7240   29.2860 S.3    25  CYS25      -0.0798
     22  N         58.7410   40.5670   28.9260 N.3    27  ALA27      -0.1231
     23  CA        57.7430   41.6200   28.8710 C.3    27  ALA27       0.1694
     24  C         58.0790   42.6530   27.8020 C.2    27  ALA27       0.2591
     25  O         57.1950   43.1390   27.0930 O.2    27  ALA27      -0.2718
     26  CB        57.6380   42.2970   30.2250 C.3    27  ALA27       0.0304
     27  N         59.3580   42.9890   27.6940 N.am   28  ALA28      -0.1980
     28  CA        59.8000   43.9790   26.7250 C.3    28  ALA28       0.1597
     29  C         59.5630   43.4800   25.3080 C.2    28  ALA28       0.2287
     30  O         59.1680   44.2500   24.4260 O.2    28  ALA28      -0.2864
     31  CB        61.2690   44.2880   26.9300 C.3    28  ALA28       0.0319
     32  N         55.8790   43.8180   24.7440 N.3    31  GLN31      -0.1245
     33  CA        55.4750   45.1860   24.4880 C.3    31  GLN31       0.1566
     34  C         55.9420   45.7630   23.1550 C.2    31  GLN31       0.2260
     35  O         55.3590   46.7330   22.6570 O.2    31  GLN31      -0.2867
     36  CB        55.9190   46.0780   25.6460 C.3    31  GLN31       0.0367
     37  CG        55.1760   45.7830   26.9330 C.3    31  GLN31       0.0905
     38  CD        53.6690   45.7700   26.7380 C.2    31  GLN31       0.2608
     39  OE1       53.0910   44.7580   26.3320 O.2    31  GLN31      -0.2717
     40  NE2       53.0250   46.9050   27.0090 N.am   31  GLN31      -0.0878
     41  N         62.1100   53.0860   20.8970 N.3    61  TRP61      -0.1227
     42  CA        61.4380   51.9870   21.5700 C.3    61  TRP61       0.1737
     43  C         61.7470   51.8520   23.0680 C.2    61  TRP61       0.2595
     44  O         60.8400   51.5850   23.8580 O.2    61  TRP61      -0.2718
     45  CB        61.7450   50.6590   20.8830 C.3    61  TRP61       0.0564
     46  CG        63.1190   50.1560   21.1160 C.ar   61  TRP61       0.0003
     47  CD1       64.2150   50.3880   20.3500 C.ar   61  TRP61       0.0946
     48  CD2       63.5370   49.2800   22.1660 C.ar   61  TRP61       0.0152
     49  NE1       65.2950   49.7010   20.8480 N.ar   61  TRP61      -0.2442
     50  CE2       64.9050   49.0120   21.9650 C.ar   61  TRP61       0.0810
     51  CE3       62.8850   48.6920   23.2610 C.ar   61  TRP61       0.0012
     52  CZ2       65.6400   48.1770   22.8170 C.ar   61  TRP61       0.0191
     53  CZ3       63.6180   47.8610   24.1090 C.ar   61  TRP61       0.0001
     54  CH2       64.9830   47.6120   23.8780 C.ar   61  TRP61       0.0015
     55  N         63.0070   52.0370   23.4670 N.am   62  ASN62      -0.1974
     56  CA        63.3530   51.8930   24.8810 C.3    62  ASN62       0.1688
     57  C         62.7330   52.9660   25.7750 C.2    62  ASN62       0.2292
     58  O         62.0780   52.6310   26.7640 O.2    62  ASN62      -0.2864
     59  CB        64.8770   51.8120   25.0730 C.3    62  ASN62       0.1181
     60  CG        65.6060   53.0300   24.5460 C.2    62  ASN62       0.2629
     61  OD1       65.3040   53.5400   23.4600 O.2    62  ASN62      -0.2716
     62  ND2       66.5920   53.4950   25.3050 N.am   62  ASN62      -0.0877
     63  N         58.9660   52.5160   25.9230 N.3    65  LEU65      -0.1231
     64  CA        58.5580   51.3960   26.7630 C.3    65  LEU65       0.1693
     65  C         58.7990   51.6630   28.2410 C.2    65  LEU65       0.2591
     66  O         58.0870   51.1270   29.0890 O.2    65  LEU65      -0.2718
     67  CB        59.2920   50.1160   26.3550 C.3    65  LEU65       0.0284
     68  CG        58.9340   49.5000   25.0010 C.3    65  LEU65       0.0019
     69  CD1       59.5060   48.0800   24.8930 C.3    65  LEU65       0.0001
     70  CD2       57.4320   49.4580   24.8630 C.3    65  LEU65       0.0001
     71  N         59.8000   52.4840   28.5570 N.am   66  ILE66      -0.1980
     72  CA        60.0870   52.7870   29.9530 C.3    66  ILE66       0.1595
     73  C         59.0600   53.7640   30.5260 C.2    66  ILE66       0.2287
     74  O         58.7020   53.6740   31.6950 O.2    66  ILE66      -0.2864
     75  CB        61.4860   53.3810   30.1320 C.3    66  ILE66       0.0276
     76  CG1       62.5410   52.3480   29.7470 C.3    66  ILE66       0.0022
     77  CG2       61.6780   53.8080   31.5880 C.3    66  ILE66       0.0022
     78  CD1       63.9600   52.8960   29.7320 C.3    66  ILE66       0.0001
     79  N         55.8880   54.0010   29.6080 N.3    68  SER68      -0.1202
     80  CA        54.6760   53.2160   29.8120 C.3    68  SER68       0.2020
     81  C         54.5830   52.4360   31.1270 C.2    68  SER68       0.2618
     82  O         53.6430   52.6380   31.9020 O.2    68  SER68      -0.2717
     83  CB        54.4770   52.2340   28.6550 C.3    68  SER68       0.2103
     84  OG        53.8640   52.8600   27.5480 O.3    68  SER68      -0.2182
     85  N         55.5320   51.5380   31.3900 N.am   69  PHE69      -0.1975
     86  CA        55.4360   50.7660   32.6200 C.3    69  PHE69       0.1639
     87  C         55.7320   51.5800   33.8800 C.2    69  PHE69       0.2290
     88  O         55.4030   51.1610   34.9880 O.2    69  PHE69      -0.2864
     89  CB        56.3000   49.4940   32.5490 C.3    69  PHE69       0.0560
     90  CG        57.7770   49.7350   32.5970 C.ar   69  PHE69      -0.0200
     91  CD1       58.3740   50.2990   33.7220 C.ar   69  PHE69      -0.0042
     92  CD2       58.5850   49.3470   31.5300 C.ar   69  PHE69      -0.0042
     93  CE1       59.7540   50.4720   33.7890 C.ar   69  PHE69      -0.0003
     94  CE2       59.9700   49.5150   31.5850 C.ar   69  PHE69      -0.0003
     95  CZ        60.5540   50.0790   32.7200 C.ar   69  PHE69      -0.0000
     96  N         52.4840   53.0690   34.5820 N.3    72  ARG72      -0.1245
     97  CA        51.6240   51.9500   34.9350 C.3    72  ARG72       0.1563
     98  C         51.8630   51.5390   36.3880 C.2    72  ARG72       0.2260
     99  O         50.9730   50.9920   37.0320 O.2    72  ARG72      -0.2867
    100  CB        51.9170   50.7600   34.0180 C.3    72  ARG72       0.0307
    101  CG        51.0010   49.5600   34.2110 C.3    72  ARG72       0.0489
    102  CD        51.5940   48.3000   33.5870 C.3    72  ARG72       0.2205
    103  NE        51.8380   48.4290   32.1490 N.pl3  72  ARG72      -0.0865
    104  CZ        52.8880   47.9060   31.5150 C.cat  72  ARG72       0.5346
    105  NH1       53.8000   47.2210   32.1880 N.pl3  72  ARG72       0.1354
    106  NH2       53.0270   48.0590   30.2040 N.pl3  72  ARG72       0.1354
    107  N         57.7060   47.8630   39.9990 N.3    80  ILE80      -0.1245
    108  CA        56.9830   48.1760   38.7780 C.3    80  ILE80       0.1561
    109  C         56.0620   47.0210   38.3960 C.2    80  ILE80       0.2260
    110  O         56.3190   45.8680   38.7470 O.2    80  ILE80      -0.2867
    111  CB        57.9390   48.4660   37.5990 C.3    80  ILE80       0.0252
    112  CG1       58.5150   47.1640   37.0680 C.3    80  ILE80       0.0019
    113  CG2       59.0670   49.3760   38.0500 C.3    80  ILE80       0.0019
    114  CD1       59.1700   47.3070   35.7280 C.3    80  ILE80       0.0001
    115  N         54.8340   44.8670   35.4610 N.3    82  LEU82      -0.1231
    116  CA        55.1110   44.4650   34.0830 C.3    82  LEU82       0.1693
    117  C         53.8200   44.1780   33.3250 C.2    82  LEU82       0.2591
    118  O         52.7900   43.8900   33.9390 O.2    82  LEU82      -0.2718
    119  CB        55.9870   43.2140   34.0540 C.3    82  LEU82       0.0284
    120  CG        57.3100   43.2480   34.8140 C.3    82  LEU82       0.0019
    121  CD1       58.0360   41.9430   34.5680 C.3    82  LEU82       0.0001
    122  CD2       58.1610   44.4150   34.3570 C.3    82  LEU82       0.0001
    123  N         53.8830   44.2420   31.9940 N.am   83  ALA83      -0.1980
    124  CA        52.7090   44.0000   31.1530 C.3    83  ALA83       0.1597
    125  C         52.2950   42.5320   31.1720 C.2    83  ALA83       0.2287
    126  O         51.1380   42.1990   30.9040 O.2    83  ALA83      -0.2864
    127  CB        52.9820   44.4500   29.7280 C.3    83  ALA83       0.0319
    128  N         70.4790   44.3400   39.6010 N.3    98  VAL98      -0.1245
    129  CA        70.1240   45.5420   38.8520 C.3    98  VAL98       0.1561
    130  C         69.3870   46.5650   39.7130 C.2    98  VAL98       0.2260
    131  O         68.5020   47.2700   39.2380 O.2    98  VAL98      -0.2867
    132  CB        69.2460   45.1880   37.6310 C.3    98  VAL98       0.0252
    133  CG1       70.0550   44.3770   36.6340 C.3    98  VAL98       0.0019
    134  CG2       68.0210   44.4020   38.0750 C.3    98  VAL98       0.0019
    135  N         69.8220   50.8010   38.6130 N.3   101  ILE101     -0.1231
    136  CA        68.9590   51.3080   37.5560 C.3   101  ILE101      0.1692
    137  C         67.5030   51.2480   38.0010 C.2   101  ILE101      0.2592
    138  O         66.7390   52.1870   37.7740 O.2   101  ILE101     -0.2718
    139  CB        69.1270   50.5160   36.2270 C.3   101  ILE101      0.0266
    140  CG1       68.2650   51.1480   35.1350 C.3   101  ILE101      0.0019
    141  CG2       68.7140   49.0620   36.4090 C.3   101  ILE101      0.0020
    142  CD1       68.6970   52.5350   34.7340 C.3   101  ILE101      0.0001
    143  N         67.1200   50.1530   38.6480 N.am  102  PHE102     -0.1976
    144  CA        65.7480   50.0080   39.1130 C.3   102  PHE102      0.1639
    145  C         65.4090   51.1580   40.0640 C.2   102  PHE102      0.2290
    146  O         64.3080   51.7050   40.0360 O.2   102  PHE102     -0.2864
    147  CB        65.5730   48.6800   39.8360 C.3   102  PHE102      0.0560
    148  CG        64.1410   48.2550   39.9940 C.ar  102  PHE102     -0.0200
    149  CD1       63.5470   47.4160   39.0570 C.ar  102  PHE102     -0.0042
    150  CD2       63.4050   48.6450   41.1090 C.ar  102  PHE102     -0.0042
    151  CE1       62.2380   46.9600   39.2340 C.ar  102  PHE102     -0.0003
    152  CE2       62.1000   48.1980   41.2950 C.ar  102  PHE102     -0.0003
    153  CZ        61.5140   47.3520   40.3590 C.ar  102  PHE102     -0.0000
    154  N         64.7190   54.3160   38.2120 N.3   105  VAL105     -0.1245
    155  CA        63.4040   54.3370   37.5920 C.3   105  VAL105      0.1561
    156  C         62.3320   54.6990   38.6230 C.2   105  VAL105      0.2260
    157  O         61.3930   55.4390   38.3260 O.2   105  VAL105     -0.2867
    158  CB        63.0510   52.9800   36.9670 C.3   105  VAL105      0.0252
    159  CG1       61.5920   52.9680   36.5500 C.3   105  VAL105      0.0019
    160  CG2       63.9330   52.7270   35.7620 C.3   105  VAL105      0.0019
    161  N         69.6480   51.5530   30.4390 N.3   188  CYS188     -0.1221
    162  CA        68.9630   50.2870   30.2790 C.3   188  CYS188      0.1808
    163  C         69.4710   49.5060   29.0840 C.2   188  CYS188      0.2601
    164  O         69.6100   48.2890   29.1630 O.2   188  CYS188     -0.2717
    165  CB        67.4580   50.5060   30.1640 C.3   188  CYS188      0.0970
    166  SG        66.6910   50.9060   31.7680 S.3   188  CYS188     -0.0800
    167  N         69.7470   50.1950   27.9800 N.am  189  LEU189     -0.1979
    168  CA        70.2570   49.5220   26.7860 C.3   189  LEU189      0.1596
    169  C         71.6280   48.9260   27.0500 C.2   189  LEU189      0.2287
    170  O         71.9120   47.8210   26.6050 O.2   189  LEU189     -0.2864
    171  CB        70.3690   50.4800   25.5950 C.3   189  LEU189      0.0297
    172  CG        69.2580   50.5450   24.5480 C.3   189  LEU189      0.0022
    173  CD1       69.7800   51.3240   23.3500 C.3   189  LEU189      0.0001
    174  CD2       68.8410   49.1450   24.1170 C.3   189  LEU189      0.0001
    175  N         72.7810   47.7120   29.7210 N.3   191  HIS191     -0.1226
    176  CA        72.5220   46.4750   30.4520 C.3   191  HIS191      0.1752
    177  C         72.0630   45.3900   29.4950 C.2   191  HIS191      0.2595
    178  O         72.5050   44.2440   29.5880 O.2   191  HIS191     -0.2718
    179  CB        71.4360   46.6880   31.5120 C.3   191  HIS191      0.0759
    180  CG        71.9030   47.4250   32.7260 C.ar  191  HIS191      0.0818
    181  ND1       72.0270   46.8230   33.9580 N.ar  191  HIS191     -0.2268
    182  CD2       72.2750   48.7150   32.9000 C.ar  191  HIS191      0.1154
    183  CE1       72.4550   47.7100   34.8390 C.ar  191  HIS191      0.1986
    184  NE2       72.6140   48.8670   34.2230 N.ar  191  HIS191     -0.2212
    185  N         71.1710   45.7560   28.5780 N.am  192  LEU192     -0.1980
    186  CA        70.6470   44.8100   27.6080 C.3   192  LEU192      0.1596
    187  C         71.7580   44.2640   26.7290 C.2   192  LEU192      0.2287
    188  O         71.7380   43.0900   26.3660 O.2   192  LEU192     -0.2864
    189  CB        69.5800   45.4640   26.7350 C.3   192  LEU192      0.0297
    190  CG        68.2830   44.6560   26.6730 C.3   192  LEU192      0.0022
    191  CD1       67.3020   45.3510   25.7680 C.3   192  LEU192      0.0001
    192  CD2       68.5590   43.2440   26.1740 C.3   192  LEU192      0.0001
    193  N         73.8130   41.7960   28.9180 N.3   195  PHE195     -0.1241
    194  CA        73.1040   40.5300   29.1040 C.3   195  PHE195      0.1605
    195  C         73.2480   39.6670   27.8610 C.2   195  PHE195      0.2264
    196  O         73.4180   38.4500   27.9490 O.2   195  PHE195     -0.2867
    197  CB        71.6130   40.7700   29.3670 C.3   195  PHE195      0.0534
    198  CG        71.3220   41.4810   30.6580 C.ar  195  PHE195     -0.0203
    199  CD1       70.0650   42.0120   30.8940 C.ar  195  PHE195     -0.0042
    200  CD2       72.3020   41.6290   31.6330 C.ar  195  PHE195     -0.0042
    201  CE1       69.7870   42.6820   32.0790 C.ar  195  PHE195     -0.0003
    202  CE2       72.0300   42.3010   32.8280 C.ar  195  PHE195     -0.0003
    203  CZ        70.7730   42.8270   33.0490 C.ar  195  PHE195     -0.0000
    204  N         63.0220   41.5960   20.4930 N.3   207  LEU207     -0.1245
    205  CA        63.8930   42.3880   21.3430 C.3   207  LEU207      0.1561
    206  C         65.3130   42.2680   20.7840 C.2   207  LEU207      0.2260
    207  O         66.0760   43.2270   20.7800 O.2   207  LEU207     -0.2867
    208  CB        63.8470   41.8690   22.7750 C.3   207  LEU207      0.0270
    209  CG        64.7360   42.6280   23.7530 C.3   207  LEU207      0.0019
    210  CD1       64.3020   44.0840   23.8230 C.3   207  LEU207      0.0001
    211  CD2       64.6510   41.9730   25.1190 C.3   207  LEU207      0.0001
@<TRIPOS>BOND
     1    47    49   ar
     2    47    46   ar
     3   204   205    1
     4   207   206    2
     5   206   205    1
     6    49    50   ar
     7    45    46    1
     8    45    42    1
     9    41    42    1
    10    46    48   ar
    11   205   208    1
    12    42    43    1
    13    50    48   ar
    14    50    52   ar
    15    48    51   ar
    16    35    34    2
    17   208   209    1
    18    52    54   ar
    19    43    55   am
    20    43    44    2
    21    34    33    1
    22    51    53   ar
    23   173   172    1
    24    61    60    2
    25    55    56    1
    26   209   210    1
    27   209   211    1
    28    54    53   ar
    29   174   172    1
    30    30    29    2
    31    33    32    1
    32    33    36    1
    33    60    59    1
    34    60    62   am
    35   172   171    1
    36    70    68    1
    37    56    59    1
    38    56    57    1
    39    69    68    1
    40    68    67    1
    41    29    28    1
    42   171   168    1
    43    36    37    1
    44   191   190    1
    45    57    58    2
    46    63    64    1
    47   192   190    1
    48    39    38    2
    49    67    64    1
    50   188   187    2
    51   170   169    2
    52   190   189    1
    53    28    31    1
    54    28    27    1
    55   187   186    1
    56   189   186    1
    57    38    37    1
    58    38    40   am
    59    64    65    1
    60   168   169    1
    61   168   167    1
    62    19    18    2
    63    25    24    2
    64    84    83    1
    65   186   185    1
    66    27    24   am
    67    24    23    1
    68   195   196    2
    69   195   194    1
    70   167   163   am
    71    18    17    1
    72    65    71   am
    73    65    66    2
    74    71    72    1
    75   185   177   am
    76    83    80    1
    77    20    17    1
    78    20    21    1
    79    23    22    1
    80    23    26    1
    81   193   194    1
    82    17    16    1
    83   163   164    2
    84   163   162    1
    85   194   197    1
    86   197   198    1
    87   177   178    2
    88   177   176    1
    89    79    80    1
    90   175   176    1
    91   127   124    1
    92    78    76    1
    93    76    75    1
    94    80    81    1
    95    72    75    1
    96    72    73    1
    97    11    10    2
    98    75    77    1
    99   165   162    1
   100   165   166    1
   101   106   104    1
   102   162   161    1
   103    16    10   am
   104   176   179    1
   105    73    74    2
   106   198   199   ar
   107   198   200   ar
   108    10     9    1
   109   199   201   ar
   110   126   125    2
   111    81    85   am
   112    81    82    2
   113   124   125    1
   114   124   123    1
   115    85    86    1
   116   179   180    1
   117   104   103    2
   118   104   105    1
   119    92    94   ar
   120    92    90   ar
   121    94    95   ar
   122   200   202   ar
   123   123   117   am
   124   201   203   ar
   125   103   102    1
   126    14    12    1
   127     4     3    2
   128     9     8    1
   129     9    12    1
   130    89    90    1
   131    89    86    1
   132    90    91   ar
   133    86    87    1
   134    95    93   ar
   135   180   182   ar
   136   180   181   ar
   137   202   203   ar
   138   182   184   ar
   139    12    13    1
   140     6     5    1
   141   117   118    2
   142   117   116    1
   143     3     2    1
   144   102   101    1
   145    91    93   ar
   146    87    88    2
   147   181   183   ar
   148   100   101    1
   149   100    97    1
   150   119   116    1
   151   119   120    1
   152   116   115    1
   153   184   183   ar
   154   122   120    1
   155    13    15    1
   156     5     2    1
   157     5     7    1
   158   121   120    1
   159     2     1    1
   160    96    97    1
   161   142   140    1
   162    97    98    1
   163   140   139    1
   164   114   112    1
   165   160   158    1
   166   139   141    1
   167   139   136    1
   168    98    99    2
   169   159   158    1
   170   133   132    1
   171   158   155    1
   172   112   111    1
   173   136   137    1
   174   136   135    1
   175   155   154    1
   176   155   156    1
   177   111   113    1
   178   111   108    1
   179   132   134    1
   180   132   129    1
   181   138   137    2
   182   137   143   am
   183   157   156    2
   184   109   110    2
   185   109   108    1
   186   143   144    1
   187   108   107    1
   188   129   128    1
   189   129   130    1
   190   149   151   ar
   191   149   148   ar
   192   144   147    1
   193   144   145    1
   194   151   153   ar
   195   131   130    2
   196   147   148    1
   197   148   150   ar
   198   146   145    2
   199   153   152   ar
   200   150   152   ar
