@<TRIPOS>MOLECULE
tmp/4rmdA01.pdb
 203 193 0 0 0
SMALL
GASTEIGER

@<TRIPOS>ATOM
      1  N         65.3660   39.7330   35.6390 N.3    21  VAL21      -0.1245
      2  CA        65.9090   40.2340   34.3820 C.3    21  VAL21       0.1561
      3  C         65.2910   39.5010   33.1890 C.2    21  VAL21       0.2260
      4  O         64.9390   40.1190   32.1850 O.2    21  VAL21      -0.2867
      5  CB        67.4440   40.0840   34.3420 C.3    21  VAL21       0.0252
      6  CG1       67.9670   40.4100   32.9470 C.3    21  VAL21       0.0019
      7  CG2       68.0760   41.0200   35.3630 C.3    21  VAL21       0.0019
      8  N         61.8360   40.6910   32.7480 N.3    24  ILE24      -0.1231
      9  CA        61.8530   42.0350   32.1980 C.3    24  ILE24       0.1692
     10  C         62.1020   41.9540   30.6860 C.2    24  ILE24       0.2592
     11  O         61.4150   42.6030   29.9020 O.2    24  ILE24      -0.2718
     12  CB        62.9420   42.8930   32.8830 C.3    24  ILE24       0.0266
     13  CG1       62.5430   43.1480   34.3430 C.3    24  ILE24       0.0019
     14  CG2       63.1190   44.2160   32.1420 C.3    24  ILE24       0.0020
     15  CD1       63.6730   43.7030   35.2150 C.3    24  ILE24       0.0001
     16  N         63.0720   41.1450   30.2700 N.am   25  CYS25      -0.1970
     17  CA        63.3580   41.0150   28.8450 C.3    25  CYS25       0.1712
     18  C         62.1970   40.3890   28.0770 C.2    25  CYS25       0.2296
     19  O         61.9830   40.7020   26.9110 O.2    25  CYS25      -0.2864
     20  CB        64.6350   40.1950   28.6210 C.3    25  CYS25       0.0983
     21  SG        66.1510   41.0790   29.0950 S.3    25  CYS25      -0.0798
     22  N         58.9710   40.7200   28.8760 N.3    27  ALA27      -0.1231
     23  CA        57.9400   41.7460   28.8000 C.3    27  ALA27       0.1694
     24  C         58.3170   42.7650   27.7220 C.2    27  ALA27       0.2591
     25  O         57.4560   43.2520   26.9880 O.2    27  ALA27      -0.2718
     26  CB        57.7940   42.4370   30.1520 C.3    27  ALA27       0.0304
     27  N         59.6070   43.0830   27.6270 N.am   28  ALA28      -0.1980
     28  CA        60.0760   44.0500   26.6350 C.3    28  ALA28       0.1597
     29  C         59.7750   43.5770   25.2120 C.2    28  ALA28       0.2287
     30  O         59.2650   44.3400   24.3930 O.2    28  ALA28      -0.2864
     31  CB        61.5830   44.2940   26.7970 C.3    28  ALA28       0.0319
     32  N         56.0680   43.7810   24.5430 N.3    31  GLN31      -0.1245
     33  CA        55.6300   45.1530   24.3370 C.3    31  GLN31       0.1566
     34  C         56.1120   45.8050   23.0450 C.2    31  GLN31       0.2260
     35  O         55.5270   46.7890   22.5960 O.2    31  GLN31      -0.2867
     36  CB        56.0040   46.0140   25.5450 C.3    31  GLN31       0.0367
     37  CG        55.1830   45.7000   26.7900 C.3    31  GLN31       0.0905
     38  CD        53.6950   45.5460   26.4950 C.2    31  GLN31       0.2608
     39  OE1       53.2210   44.4490   26.1870 O.2    31  GLN31      -0.2717
     40  NE2       52.9560   46.6470   26.5740 N.am   31  GLN31      -0.0878
     41  N         62.3080   53.2300   20.8530 N.3    61  TRP61      -0.1227
     42  CA        61.6260   52.1330   21.5420 C.3    61  TRP61       0.1737
     43  C         61.9470   51.9710   23.0300 C.2    61  TRP61       0.2595
     44  O         61.0420   51.7960   23.8440 O.2    61  TRP61      -0.2718
     45  CB        61.8810   50.7920   20.8390 C.3    61  TRP61       0.0564
     46  CG        63.2490   50.2370   21.0370 C.ar   61  TRP61       0.0003
     47  CD1       64.3580   50.4920   20.2820 C.ar   61  TRP61       0.0946
     48  CD2       63.6650   49.3440   22.0750 C.ar   61  TRP61       0.0152
     49  NE1       65.4390   49.8130   20.7870 N.ar   61  TRP61      -0.2442
     50  CE2       65.0430   49.1010   21.8890 C.ar   61  TRP61       0.0810
     51  CE3       63.0060   48.7270   23.1480 C.ar   61  TRP61       0.0012
     52  CZ2       65.7790   48.2660   22.7400 C.ar   61  TRP61       0.0191
     53  CZ3       63.7370   47.8950   23.9960 C.ar   61  TRP61       0.0001
     54  CH2       65.1130   47.6740   23.7830 C.ar   61  TRP61       0.0015
     55  N         63.2230   52.0390   23.3970 N.am   62  ASN62      -0.1974
     56  CA        63.5760   51.8540   24.7990 C.3    62  ASN62       0.1688
     57  C         62.9910   52.9380   25.6960 C.2    62  ASN62       0.2292
     58  O         62.4480   52.6260   26.7550 O.2    62  ASN62      -0.2864
     59  CB        65.1000   51.7450   24.9650 C.3    62  ASN62       0.1181
     60  CG        65.8360   52.9490   24.4330 C.2    62  ASN62       0.2629
     61  OD1       65.5830   53.4040   23.3200 O.2    62  ASN62      -0.2716
     62  ND2       66.7720   53.4650   25.2220 N.am   62  ASN62      -0.0877
     63  N         59.0910   52.4660   25.8980 N.3    65  LEU65      -0.1231
     64  CA        58.6460   51.3900   26.7710 C.3    65  LEU65       0.1693
     65  C         58.8750   51.7250   28.2440 C.2    65  LEU65       0.2591
     66  O         58.0400   51.4080   29.0900 O.2    65  LEU65      -0.2718
     67  CB        59.3550   50.0750   26.4130 C.3    65  LEU65       0.0284
     68  CG        59.0680   49.5080   25.0180 C.3    65  LEU65       0.0019
     69  CD1       59.6850   48.1120   24.9050 C.3    65  LEU65       0.0001
     70  CD2       57.5590   49.4390   24.7840 C.3    65  LEU65       0.0001
     71  N         59.9990   52.3760   28.5440 N.am   66  ILE66      -0.1980
     72  CA        60.3070   52.7530   29.9220 C.3    66  ILE66       0.1595
     73  C         59.2610   53.7360   30.4560 C.2    66  ILE66       0.2287
     74  O         58.8060   53.6180   31.5920 O.2    66  ILE66      -0.2864
     75  CB        61.7150   53.3890   30.0150 C.3    66  ILE66       0.0276
     76  CG1       62.7750   52.3200   29.7160 C.3    66  ILE66       0.0022
     77  CG2       61.9410   53.9740   31.4050 C.3    66  ILE66       0.0022
     78  CD1       64.1640   52.8940   29.4510 C.3    66  ILE66       0.0001
     79  N         56.2000   53.9880   29.5620 N.3    68  SER68      -0.1202
     80  CA        54.9830   53.2190   29.7790 C.3    68  SER68       0.2020
     81  C         54.9580   52.3650   31.0400 C.2    68  SER68       0.2618
     82  O         53.9910   52.4350   31.7940 O.2    68  SER68      -0.2717
     83  CB        54.6860   52.3410   28.5610 C.3    68  SER68       0.2103
     84  OG        54.3020   53.1560   27.4700 O.3    68  SER68      -0.2182
     85  N         55.9860   51.5560   31.2920 N.am   69  PHE69      -0.1975
     86  CA        55.9290   50.7470   32.5060 C.3    69  PHE69       0.1639
     87  C         56.1430   51.5880   33.7570 C.2    69  PHE69       0.2290
     88  O         55.6940   51.2180   34.8450 O.2    69  PHE69      -0.2864
     89  CB        56.8710   49.5180   32.4420 C.3    69  PHE69       0.0560
     90  CG        58.3470   49.8260   32.5070 C.ar   69  PHE69      -0.0200
     91  CD1       58.9190   50.3830   33.6480 C.ar   69  PHE69      -0.0042
     92  CD2       59.1780   49.4820   31.4410 C.ar   69  PHE69      -0.0042
     93  CE1       60.2980   50.5870   33.7260 C.ar   69  PHE69      -0.0003
     94  CE2       60.5560   49.6830   31.5130 C.ar   69  PHE69      -0.0003
     95  CZ        61.1130   50.2350   32.6580 C.ar   69  PHE69      -0.0000
     96  N         52.6890   53.1000   34.5210 N.3    72  ARG72      -0.1245
     97  CA        51.8340   52.0010   34.9340 C.3    72  ARG72       0.1563
     98  C         52.0610   51.6340   36.4020 C.2    72  ARG72       0.2260
     99  O         51.1570   51.1330   37.0730 O.2    72  ARG72      -0.2867
    100  CB        52.1300   50.7740   34.0680 C.3    72  ARG72       0.0307
    101  CG        51.2730   49.5610   34.3790 C.3    72  ARG72       0.0489
    102  CD        51.7970   48.3310   33.6670 C.3    72  ARG72       0.2205
    103  NE        51.8660   48.5030   32.2190 N.pl3  72  ARG72      -0.0865
    104  CZ        52.9190   48.1600   31.4820 C.cat  72  ARG72       0.5346
    105  NH1       53.9890   47.6320   32.0600 N.pl3  72  ARG72       0.1354
    106  NH2       52.9010   48.3370   30.1690 N.pl3  72  ARG72       0.1354
    107  N         57.8560   47.5740   40.0950 N.3    80  ILE80      -0.1245
    108  CA        57.3840   47.8770   38.7540 C.3    80  ILE80       0.1561
    109  C         56.4420   46.7840   38.2820 C.2    80  ILE80       0.2260
    110  O         56.7060   45.6000   38.5030 O.2    80  ILE80      -0.2867
    111  CB        58.5540   47.9470   37.7520 C.3    80  ILE80       0.0252
    112  CG1       59.4670   49.1280   38.0920 C.3    80  ILE80       0.0019
    113  CG2       58.0070   48.0360   36.3330 C.3    80  ILE80       0.0019
    114  CD1       58.8310   50.4860   37.8630 C.3    80  ILE80       0.0001
    115  N         55.0780   44.7580   35.2690 N.3    82  LEU82      -0.1231
    116  CA        55.4070   44.4250   33.8870 C.3    82  LEU82       0.1693
    117  C         54.1290   44.1960   33.0880 C.2    82  LEU82       0.2591
    118  O         53.0810   43.8910   33.6590 O.2    82  LEU82      -0.2718
    119  CB        56.2710   43.1660   33.8320 C.3    82  LEU82       0.0284
    120  CG        57.5480   43.1860   34.6750 C.3    82  LEU82       0.0019
    121  CD1       58.3070   41.8860   34.4470 C.3    82  LEU82       0.0001
    122  CD2       58.4140   44.3950   34.2960 C.3    82  LEU82       0.0001
    123  N         54.2190   44.3330   31.7700 N.am   83  ALA83      -0.1980
    124  CA        53.0530   44.1440   30.9070 C.3    83  ALA83       0.1597
    125  C         52.5240   42.7140   30.9730 C.2    83  ALA83       0.2287
    126  O         51.3530   42.4590   30.6830 O.2    83  ALA83      -0.2864
    127  CB        53.4050   44.4990   29.4750 C.3    83  ALA83       0.0319
    128  N         70.7320   44.3430   39.5530 N.3    98  VAL98      -0.1245
    129  CA        70.2980   45.4970   38.7740 C.3    98  VAL98       0.1561
    130  C         69.5830   46.5280   39.6420 C.2    98  VAL98       0.2260
    131  O         68.6790   47.2210   39.1830 O.2    98  VAL98      -0.2867
    132  CB        69.3770   45.0740   37.6070 C.3    98  VAL98       0.0252
    133  CG1       70.1850   44.2830   36.5860 C.3    98  VAL98       0.0019
    134  CG2       68.2120   44.2420   38.1180 C.3    98  VAL98       0.0019
    135  N         70.0350   50.7570   38.4970 N.3   101  ILE101     -0.1231
    136  CA        69.1500   51.2790   37.4570 C.3   101  ILE101      0.1692
    137  C         67.6900   51.2240   37.9050 C.2   101  ILE101      0.2592
    138  O         66.9010   52.1220   37.5910 O.2   101  ILE101     -0.2718
    139  CB        69.3370   50.5060   36.1130 C.3   101  ILE101      0.0266
    140  CG1       68.5580   51.2060   34.9960 C.3   101  ILE101      0.0019
    141  CG2       68.8600   49.0660   36.2460 C.3   101  ILE101      0.0020
    142  CD1       68.9730   52.6430   34.7770 C.3   101  ILE101      0.0001
    143  N         67.3290   50.1830   38.6530 N.am  102  PHE102     -0.1976
    144  CA        65.9590   50.0470   39.1380 C.3   102  PHE102      0.1639
    145  C         65.6050   51.2600   40.0040 C.2   102  PHE102      0.2290
    146  O         64.5290   51.8570   39.8550 O.2   102  PHE102     -0.2864
    147  CB        65.8040   48.7740   39.9780 C.3   102  PHE102      0.0560
    148  CG        64.3740   48.3190   40.1290 C.ar  102  PHE102     -0.0200
    149  CD1       63.7690   47.5440   39.1400 C.ar  102  PHE102     -0.0042
    150  CD2       63.6340   48.6580   41.2600 C.ar  102  PHE102     -0.0042
    151  CE1       62.4470   47.1090   39.2750 C.ar  102  PHE102     -0.0003
    152  CE2       62.3070   48.2280   41.4070 C.ar  102  PHE102     -0.0003
    153  CZ        61.7140   47.4500   40.4110 C.ar  102  PHE102     -0.0000
    154  N         64.9020   54.4130   38.0280 N.3   105  VAL105     -0.1245
    155  CA        63.5570   54.4070   37.4500 C.3   105  VAL105      0.1561
    156  C         62.5140   54.8100   38.4980 C.2   105  VAL105      0.2260
    157  O         61.6380   55.6340   38.2290 O.2   105  VAL105     -0.2867
    158  CB        63.1980   53.0190   36.8890 C.3   105  VAL105      0.0252
    159  CG1       61.7040   52.9530   36.5350 C.3   105  VAL105      0.0019
    160  CG2       64.0450   52.7360   35.6440 C.3   105  VAL105      0.0019
    161  N         69.8220   51.4600   30.2530 N.3   188  CYS188     -0.1221
    162  CA        69.1140   50.1990   30.0480 C.3   188  CYS188      0.1808
    163  C         69.6450   49.4700   28.8170 C.2   188  CYS188      0.2601
    164  O         69.7790   48.2410   28.8240 O.2   188  CYS188     -0.2717
    165  CB        67.6120   50.4620   29.9340 C.3   188  CYS188      0.0970
    166  SG        66.8920   50.9400   31.5330 S.3   188  CYS188     -0.0800
    167  N         69.9740   50.2210   27.7670 N.am  189  LEU189     -0.1979
    168  CA        70.5170   49.6010   26.5620 C.3   189  LEU189      0.1596
    169  C         71.8760   48.9810   26.8730 C.2   189  LEU189      0.2287
    170  O         72.1840   47.8830   26.4100 O.2   189  LEU189     -0.2864
    171  CB        70.6580   50.6240   25.4290 C.3   189  LEU189      0.0297
    172  CG        69.4060   50.9300   24.6060 C.3   189  LEU189      0.0022
    173  CD1       69.7400   51.9870   23.5570 C.3   189  LEU189      0.0001
    174  CD2       68.8990   49.6520   23.9380 C.3   189  LEU189      0.0001
    175  N         72.8710   47.7030   29.6300 N.3   191  HIS191     -0.1226
    176  CA        72.6120   46.4470   30.3330 C.3   191  HIS191      0.1752
    177  C         72.2290   45.3500   29.3460 C.2   191  HIS191      0.2595
    178  O         72.7200   44.2220   29.4340 O.2   191  HIS191     -0.2718
    179  CB        71.4830   46.6180   31.3550 C.3   191  HIS191      0.0759
    180  CG        71.9140   47.2650   32.6340 C.ar  191  HIS191      0.0818
    181  ND1       72.6010   46.5850   33.6170 N.ar  191  HIS191     -0.2268
    182  CD2       71.7840   48.5370   33.0790 C.ar  191  HIS191      0.1154
    183  CE1       72.8760   47.4110   34.6110 C.ar  191  HIS191      0.1986
    184  NE2       72.3920   48.6030   34.3090 N.ar  191  HIS191     -0.2212
    185  N         71.3420   45.6880   28.4120 N.am  192  LEU192     -0.1980
    186  CA        70.8850   44.7390   27.4030 C.3   192  LEU192      0.1596
    187  C         72.0320   44.2140   26.5530 C.2   192  LEU192      0.2287
    188  O         72.1070   43.0180   26.2740 O.2   192  LEU192     -0.2864
    189  CB        69.8400   45.3900   26.4950 C.3   192  LEU192      0.0297
    190  CG        68.3750   45.1100   26.8220 C.3   192  LEU192      0.0022
    191  CD1       67.4770   45.9880   25.9530 C.3   192  LEU192      0.0001
    192  CD2       68.0790   43.6290   26.5880 C.3   192  LEU192      0.0001
    193  N         73.9990   41.7750   28.6290 N.3   195  PHE195     -0.1241
    194  CA        73.2860   40.5050   28.7740 C.3   195  PHE195      0.1605
    195  C         73.4600   39.6690   27.5100 C.2   195  PHE195      0.2264
    196  O         73.6840   38.4570   27.5780 O.2   195  PHE195     -0.2867
    197  CB        71.7900   40.7460   29.0140 C.3   195  PHE195      0.0534
    198  CG        71.4820   41.4860   30.2880 C.ar  195  PHE195     -0.0203
    199  CD1       70.2550   42.1240   30.4470 C.ar  195  PHE195     -0.0042
    200  CD2       72.4070   41.5450   31.3250 C.ar  195  PHE195     -0.0042
    201  CE1       69.9540   42.8100   31.6170 C.ar  195  PHE195     -0.0003
    202  CE2       72.1160   42.2310   32.5050 C.ar  195  PHE195     -0.0003
    203  CZ        70.8860   42.8660   32.6500 C.ar  195  PHE195     -0.0000
@<TRIPOS>BOND
     1    47    49   ar
     2    47    46   ar
     3    49    50   ar
     4    45    46    1
     5    45    42    1
     6    41    42    1
     7    46    48   ar
     8    42    43    1
     9    50    48   ar
    10    50    52   ar
    11    48    51   ar
    12    35    34    2
    13    52    54   ar
    14    43    55   am
    15    43    44    2
    16    34    33    1
    17    51    53   ar
    18    61    60    2
    19    55    56    1
    20   173   172    1
    21    54    53   ar
    22   174   172    1
    23    33    32    1
    24    33    36    1
    25    30    29    2
    26    60    59    1
    27    60    62   am
    28   172   171    1
    29    70    68    1
    30    56    59    1
    31    56    57    1
    32    69    68    1
    33    68    67    1
    34    29    28    1
    35   171   168    1
    36    36    37    1
    37    57    58    2
    38    63    64    1
    39   191   190    1
    40    39    38    2
    41   188   187    2
    42   170   169    2
    43    67    64    1
    44   189   190    1
    45   189   186    1
    46    38    40   am
    47    38    37    1
    48   187   186    1
    49   168   169    1
    50   168   167    1
    51   192   190    1
    52    28    31    1
    53    28    27    1
    54    64    65    1
    55    19    18    2
    56    25    24    2
    57   186   185    1
    58    84    83    1
    59   195   196    2
    60   195   194    1
    61    27    24   am
    62    24    23    1
    63   167   163   am
    64    18    17    1
    65    65    71   am
    66    65    66    2
    67   185   177   am
    68    71    72    1
    69    83    80    1
    70    20    17    1
    71    20    21    1
    72   193   194    1
    73   194   197    1
    74    23    22    1
    75    23    26    1
    76   163   164    2
    77   163   162    1
    78    17    16    1
    79   197   198    1
    80   177   178    2
    81   177   176    1
    82    78    76    1
    83   127   124    1
    84    79    80    1
    85   175   176    1
    86    76    75    1
    87    80    81    1
    88    11    10    2
    89    72    75    1
    90    72    73    1
    91   165   162    1
    92   165   166    1
    93    75    77    1
    94   162   161    1
    95   106   104    1
    96    16    10   am
    97   198   199   ar
    98   198   200   ar
    99   176   179    1
   100   199   201   ar
   101    73    74    2
   102   126   125    2
   103    10     9    1
   104   124   125    1
   105   124   123    1
   106    81    85   am
   107    81    82    2
   108    85    86    1
   109   200   202   ar
   110   179   180    1
   111    92    94   ar
   112    92    90   ar
   113   104   105    1
   114   104   103    2
   115    94    95   ar
   116   201   203   ar
   117   123   117   am
   118    14    12    1
   119     4     3    2
   120     9     8    1
   121     9    12    1
   122   103   102    1
   123    89    86    1
   124    89    90    1
   125   202   203   ar
   126    86    87    1
   127    90    91   ar
   128   180   182   ar
   129   180   181   ar
   130    95    93   ar
   131    12    13    1
   132     6     5    1
   133   182   184   ar
   134   117   118    2
   135   117   116    1
   136     3     2    1
   137   181   183   ar
   138    91    93   ar
   139   102   101    1
   140    87    88    2
   141   119   116    1
   142   119   120    1
   143   116   115    1
   144   100   101    1
   145   100    97    1
   146   122   120    1
   147   184   183   ar
   148     5     2    1
   149     5     7    1
   150    13    15    1
   151     2     1    1
   152   121   120    1
   153    96    97    1
   154   142   140    1
   155    97    98    1
   156   140   139    1
   157   160   158    1
   158   139   141    1
   159   139   136    1
   160   113   111    1
   161    98    99    2
   162   159   158    1
   163   133   132    1
   164   158   155    1
   165   155   154    1
   166   155   156    1
   167   136   137    1
   168   136   135    1
   169   138   137    2
   170   132   134    1
   171   132   129    1
   172   111   112    1
   173   111   108    1
   174   114   112    1
   175   137   143   am
   176   157   156    2
   177   109   110    2
   178   109   108    1
   179   143   144    1
   180   108   107    1
   181   129   128    1
   182   129   130    1
   183   144   147    1
   184   144   145    1
   185   149   151   ar
   186   149   148   ar
   187   131   130    2
   188   151   153   ar
   189   146   145    2
   190   147   148    1
   191   148   150   ar
   192   153   152   ar
   193   150   152   ar
