@<TRIPOS>MOLECULE
tmp/4rmgA00.pdb
 193 190 0 0 0
SMALL
GASTEIGER

@<TRIPOS>ATOM
      1  N        -25.5870  -20.0080    7.8450 N.3    40  ILE40      -0.1231
      2  CA       -24.3680  -20.4850    8.4880 C.3    40  ILE40       0.1678
      3  C        -23.2530  -19.4380    8.3140 C.2    40  ILE40       0.2434
      4  O        -22.7320  -19.2830    7.2380 O.2    40  ILE40      -0.2733
      5  CB       -23.9310  -21.8470    7.9300 C.3    40  ILE40       0.0265
      6  CG1      -25.0930  -22.8280    8.0190 C.3    40  ILE40       0.0019
      7  CG2      -22.6880  -22.3680    8.6550 C.3    40  ILE40       0.0020
      8  CD1      -24.7400  -24.2280    7.5930 C.3    40  ILE40       0.0001
      9  N        -22.9530  -18.6690    9.3710 N.am   41  PRO41      -0.2729
     10  CA       -21.9510  -17.6030    9.3770 C.3    41  PRO41       0.1401
     11  C        -20.5660  -18.1490    9.1180 C.2    41  PRO41       0.2269
     12  O        -20.2730  -19.3000    9.4980 O.2    41  PRO41      -0.2865
     13  CB       -22.0380  -17.0340   10.8150 C.3    41  PRO41       0.0296
     14  CG       -23.3370  -17.4810   11.3400 C.3    41  PRO41       0.0237
     15  CD       -23.6810  -18.7590   10.6460 C.3    41  PRO41       0.0939
     16  N        -17.4800  -17.0210   10.1190 N.3    43  PHE43      -0.1241
     17  CA       -16.4530  -16.5560   11.0710 C.3    43  PHE43       0.1605
     18  C        -15.3800  -15.6230   10.4860 C.2    43  PHE43       0.2264
     19  O        -14.1560  -15.9090   10.5150 O.2    43  PHE43      -0.2867
     20  CB       -15.7740  -17.7290   11.7520 C.3    43  PHE43       0.0534
     21  CG       -16.7220  -18.7210   12.2780 C.ar   43  PHE43      -0.0203
     22  CD1      -17.8720  -18.3270   12.9620 C.ar   43  PHE43      -0.0042
     23  CD2      -16.4470  -20.0560   12.1390 C.ar   43  PHE43      -0.0042
     24  CE1      -18.7410  -19.2680   13.4730 C.ar   43  PHE43      -0.0003
     25  CE2      -17.2990  -21.0040   12.6320 C.ar   43  PHE43      -0.0003
     26  CZ       -18.4520  -20.6170   13.3060 C.ar   43  PHE43      -0.0000
     27  N        -16.3620  -15.2350   16.5390 N.3    47  LEU47      -0.1245
     28  CA       -16.0560  -16.5090   17.2160 C.3    47  LEU47       0.1561
     29  C        -15.2810  -16.3260   18.5080 C.2    47  LEU47       0.2260
     30  O        -15.5500  -16.9950   19.5040 O.2    47  LEU47      -0.2867
     31  CB       -15.2270  -17.4220   16.3130 C.3    47  LEU47       0.0270
     32  CG       -14.9750  -18.8550   16.8310 C.3    47  LEU47       0.0019
     33  CD1      -16.2750  -19.5970   17.0570 C.3    47  LEU47       0.0001
     34  CD2      -14.1420  -19.6570   15.8580 C.3    47  LEU47       0.0001
     35  N         -8.8570  -24.2090   21.0970 N.3    62  ILE62      -0.1231
     36  CA       -10.1400  -24.8270   20.6560 C.3    62  ILE62       0.1692
     37  C         -9.9970  -25.6080   19.3540 C.2    62  ILE62       0.2592
     38  O        -10.7400  -26.5470   19.1140 O.2    62  ILE62      -0.2718
     39  CB       -11.2610  -23.7700   20.4750 C.3    62  ILE62       0.0266
     40  CG1      -12.6510  -24.4160   20.4620 C.3    62  ILE62       0.0019
     41  CG2      -11.1190  -22.9970   19.1740 C.3    62  ILE62       0.0020
     42  CD1      -13.1380  -24.7990   21.8370 C.3    62  ILE62       0.0001
     43  N         -9.0620  -25.1730   18.5000 N.am   63  PHE63      -0.1976
     44  CA        -8.7970  -25.8170   17.2600 C.3    63  PHE63       0.1639
     45  C         -7.7320  -26.8930   17.3500 C.2    63  PHE63       0.2290
     46  O         -7.4970  -27.5500   16.3600 O.2    63  PHE63      -0.2864
     47  CB        -8.3530  -24.7770   16.2110 C.3    63  PHE63       0.0560
     48  CG        -9.3370  -23.6680   16.0150 C.ar   63  PHE63      -0.0200
     49  CD1      -10.5240  -23.8890   15.3190 C.ar   63  PHE63      -0.0042
     50  CD2       -9.0970  -22.4110   16.5330 C.ar   63  PHE63      -0.0042
     51  CE1      -11.4540  -22.8760   15.1680 C.ar   63  PHE63      -0.0003
     52  CE2      -10.0130  -21.3760   16.3510 C.ar   63  PHE63      -0.0003
     53  CZ       -11.1930  -21.6060   15.6720 C.ar   63  PHE63      -0.0000
     54  N        -14.7950  -27.6560   23.0080 N.3    75  PHE75      -0.1241
     55  CA       -15.1660  -27.9220   21.6270 C.3    75  PHE75       0.1605
     56  C        -16.6440  -28.3440   21.5470 C.2    75  PHE75       0.2264
     57  O        -17.3830  -27.7980   20.7550 O.2    75  PHE75      -0.2867
     58  CB       -14.3080  -28.9990   20.9670 C.3    75  PHE75       0.0534
     59  CG       -14.8620  -29.4290   19.6220 C.ar   75  PHE75      -0.0203
     60  CD1      -14.6370  -28.6680   18.4910 C.ar   75  PHE75      -0.0042
     61  CD2      -15.6950  -30.5480   19.5170 C.ar   75  PHE75      -0.0042
     62  CE1      -15.1610  -29.0410   17.2820 C.ar   75  PHE75      -0.0003
     63  CE2      -16.2320  -30.9340   18.2980 C.ar   75  PHE75      -0.0003
     64  CZ       -15.9630  -30.1670   17.1760 C.ar   75  PHE75      -0.0000
     65  N        -19.0450  -25.5240   22.1700 N.3    78  LEU78      -0.1231
     66  CA       -19.0650  -24.6240   21.0350 C.3    78  LEU78       0.1693
     67  C        -19.8950  -25.2040   19.8970 C.2    78  LEU78       0.2591
     68  O        -20.7040  -24.4900   19.2490 O.2    78  LEU78      -0.2718
     69  CB       -17.6500  -24.4030   20.5490 C.3    78  LEU78       0.0284
     70  CG       -17.4940  -23.4660   19.3550 C.3    78  LEU78       0.0019
     71  CD1      -18.0060  -22.0670   19.7400 C.3    78  LEU78       0.0001
     72  CD2      -16.0240  -23.4680   18.9230 C.3    78  LEU78       0.0001
     73  N        -19.6880  -26.4970   19.6470 N.am   79  ALA79      -0.1980
     74  CA       -20.3720  -27.1620   18.5550 C.3    79  ALA79       0.1597
     75  C        -21.8850  -27.0540   18.7820 C.2    79  ALA79       0.2287
     76  O        -22.6630  -26.8510   17.8280 O.2    79  ALA79      -0.2864
     77  CB       -19.9290  -28.6110   18.4310 C.3    79  ALA79       0.0319
     78  N        -22.9410  -23.4140   17.9580 N.3    82  LEU82      -0.1231
     79  CA       -22.8460  -23.1440   16.5500 C.3    82  LEU82       0.1693
     80  C        -23.6530  -24.0810   15.6340 C.2    82  LEU82       0.2592
     81  O        -23.6460  -23.8720   14.4350 O.2    82  LEU82      -0.2718
     82  CB       -21.3710  -23.1890   16.1610 C.3    82  LEU82       0.0284
     83  CG       -20.4530  -22.1730   16.8180 C.3    82  LEU82       0.0019
     84  CD1      -19.0570  -22.3840   16.2570 C.3    82  LEU82       0.0001
     85  CD2      -20.9750  -20.7650   16.5810 C.3    82  LEU82       0.0001
     86  N        -24.3160  -25.0960   16.1630 N.am   83  TYR83      -0.1963
     87  CA       -24.9990  -26.1040   15.3520 C.3    83  TYR83       0.1756
     88  C        -26.1020  -25.4240   14.5100 C.2    83  TYR83       0.2461
     89  O        -27.0160  -24.8270   15.0740 O.2    83  TYR83      -0.2730
     90  CB       -25.6180  -27.2020   16.2310 C.3    83  TYR83       0.0574
     91  CG       -25.7340  -28.5400   15.5360 C.ar   83  TYR83      -0.0198
     92  CD1      -26.7180  -28.7730   14.5540 C.ar   83  TYR83      -0.0009
     93  CD2      -24.8030  -29.5450   15.7840 C.ar   83  TYR83      -0.0009
     94  CE1      -26.7880  -29.9880   13.8880 C.ar   83  TYR83       0.0417
     95  CE2      -24.8450  -30.7370   15.1070 C.ar   83  TYR83       0.0417
     96  CZ       -25.8330  -30.9730   14.1760 C.ar   83  TYR83       0.1957
     97  OH       -25.8300  -32.2010   13.5200 O.3    83  TYR83      -0.2866
     98  N        -26.0480  -25.5350   13.1610 N.am   84  PRO84      -0.2727
     99  CA       -27.1950  -24.8890   12.4460 C.3    84  PRO84       0.1402
    100  C        -28.5750  -25.4320   12.8180 C.2    84  PRO84       0.2269
    101  O        -28.7570  -26.6330   13.0580 O.2    84  PRO84      -0.2865
    102  CB       -26.8640  -25.1120   10.9560 C.3    84  PRO84       0.0296
    103  CG       -25.3760  -25.2650   10.9280 C.3    84  PRO84       0.0237
    104  CD       -24.9800  -25.9470   12.2350 C.3    84  PRO84       0.0939
    105  N        -30.7470  -27.1210    7.6150 N.3    87  PHE87      -0.1241
    106  CA       -29.7920  -27.5380    6.6150 C.3    87  PHE87       0.1605
    107  C        -30.4390  -27.5420    5.2200 C.2    87  PHE87       0.2264
    108  O        -30.8310  -28.5980    4.6550 O.2    87  PHE87      -0.2867
    109  CB       -29.2300  -28.9000    6.9830 C.3    87  PHE87       0.0534
    110  CG       -28.3490  -28.8780    8.1890 C.ar   87  PHE87      -0.0203
    111  CD1      -28.9020  -29.0570    9.4780 C.ar   87  PHE87      -0.0042
    112  CD2      -26.9400  -28.7260    8.0700 C.ar   87  PHE87      -0.0042
    113  CE1      -28.0750  -29.0660   10.6070 C.ar   87  PHE87      -0.0003
    114  CE2      -26.1240  -28.7630    9.2030 C.ar   87  PHE87      -0.0003
    115  CZ       -26.6850  -28.9010   10.4630 C.ar   87  PHE87      -0.0000
    116  N        -17.6450  -27.7180    6.4930 N.3   113  ILE113     -0.1231
    117  CA       -17.8560  -28.9230    7.2830 C.3   113  ILE113      0.1692
    118  C        -19.3440  -29.1470    7.5130 C.2   113  ILE113      0.2592
    119  O        -19.7260  -30.0780    8.2310 O.2   113  ILE113     -0.2718
    120  CB       -17.1290  -28.8050    8.6470 C.3   113  ILE113      0.0266
    121  CG1      -17.6290  -27.5560    9.3980 C.3   113  ILE113      0.0019
    122  CG2      -15.6270  -28.6840    8.3750 C.3   113  ILE113      0.0020
    123  CD1      -16.9030  -27.2140   10.6760 C.3   113  ILE113      0.0001
    124  N        -20.1900  -28.3590    6.8340 N.am  114  ASP114     -0.1960
    125  CA       -21.6300  -28.3430    7.1550 C.3   114  ASP114      0.1840
    126  C        -22.5090  -29.4290    6.4950 C.2   114  ASP114      0.2622
    127  O        -23.7270  -29.5500    6.8330 O.2   114  ASP114     -0.2715
    128  CB       -22.1680  -26.9650    6.8980 C.3   114  ASP114      0.1450
    129  CG       -22.0420  -26.5450    5.4210 C.2   114  ASP114      0.3671
    130  OD1      -22.1060  -27.4720    4.5680 O.co2 114  ASP114     -0.2456
    131  OD2      -21.8160  -25.3140    5.1390 O.co2 114  ASP114     -0.2456
    132  N        -21.8980  -30.2360    5.6330 N.am  115  THR115     -0.1951
    133  CA       -22.5380  -31.3320    4.9030 C.3   115  THR115      0.1897
    134  C        -23.5520  -30.8950    3.7980 C.2   115  THR115      0.2313
    135  O        -24.2040  -31.7570    3.1960 O.2   115  THR115     -0.2863
    136  CB       -23.3000  -32.3240    5.8120 C.3   115  THR115      0.1794
    137  OG1      -24.5670  -31.8000    6.2430 O.3   115  THR115     -0.2208
    138  CG2      -22.4050  -32.7260    7.0370 C.3   115  THR115      0.0378
    139  N        -11.4620  -29.9830    4.5810 N.3   131  HIS131     -0.1241
    140  CA       -11.3330  -29.7550    6.0340 C.3   131  HIS131      0.1621
    141  C        -12.1090  -30.7150    6.8590 C.2   131  HIS131      0.2264
    142  O        -12.3490  -30.4910    8.0520 O.2   131  HIS131     -0.2867
    143  CB       -11.6480  -28.3550    6.4210 C.3   131  HIS131      0.0745
    144  CG       -10.6440  -27.3800    5.9460 C.ar  131  HIS131      0.0817
    145  ND1      -10.7330  -26.0410    6.2350 N.ar  131  HIS131     -0.2268
    146  CD2       -9.5120  -27.5370    5.2110 C.ar  131  HIS131      0.1154
    147  CE1       -9.7130  -25.4030    5.6910 C.ar  131  HIS131      0.1986
    148  NE2       -8.9700  -26.2850    5.0430 N.ar  131  HIS131     -0.2212
    149  N        -18.5710  -32.9130    9.4720 N.3   134  PHE134     -0.1241
    150  CA       -19.3270  -33.4620   10.5640 C.3   134  PHE134      0.1605
    151  C        -20.1200  -34.6990   10.1690 C.2   134  PHE134      0.2264
    152  O        -20.7380  -35.3510   11.0280 O.2   134  PHE134     -0.2867
    153  CB       -20.3160  -32.4190   11.1110 C.3   134  PHE134      0.0534
    154  CG       -19.7670  -31.5830   12.2110 C.ar  134  PHE134     -0.0203
    155  CD1      -19.8590  -32.0230   13.5290 C.ar  134  PHE134     -0.0042
    156  CD2      -19.1910  -30.3730   11.9520 C.ar  134  PHE134     -0.0042
    157  CE1      -19.3800  -31.2580   14.5490 C.ar  134  PHE134     -0.0003
    158  CE2      -18.7070  -29.6020   12.9720 C.ar  134  PHE134     -0.0003
    159  CZ       -18.7730  -30.0580   14.2820 C.ar  134  PHE134     -0.0000
    160  N        -23.8850  -38.8580   11.7510 N.3   150  LEU150     -0.1245
    161  CA       -24.2110  -37.5400   12.2690 C.3   150  LEU150      0.1561
    162  C        -25.4330  -37.5620   13.2300 C.2   150  LEU150      0.2260
    163  O        -25.4850  -36.7770   14.1810 O.2   150  LEU150     -0.2867
    164  CB       -24.4930  -36.5680   11.1150 C.3   150  LEU150      0.0270
    165  CG       -24.8030  -35.1150   11.5200 C.3   150  LEU150      0.0019
    166  CD1      -23.7590  -34.5470   12.4940 C.3   150  LEU150      0.0001
    167  CD2      -24.9490  -34.2090   10.2800 C.3   150  LEU150      0.0001
    168  N        -13.7530  -33.6510   11.2470 N.3   176  ILE176     -0.1231
    169  CA       -13.2030  -32.3860   10.8180 C.3   176  ILE176      0.1692
    170  C        -11.7310  -32.3150   11.1830 C.2   176  ILE176      0.2592
    171  O        -11.2770  -32.9660   12.1370 O.2   176  ILE176     -0.2718
    172  CB       -13.9660  -31.1870   11.4460 C.3   176  ILE176      0.0266
    173  CG1      -13.7870  -31.1230   12.9770 C.3   176  ILE176      0.0019
    174  CG2      -15.4570  -31.2730   11.0900 C.3   176  ILE176      0.0020
    175  CD1      -14.5640  -30.0150   13.6960 C.3   176  ILE176      0.0001
    176  N        -10.9670  -31.5620   10.4170 N.am  177  VAL177     -0.1966
    177  CA        -9.5230  -31.5430   10.5990 C.3   177  VAL177      0.1727
    178  C         -9.1480  -30.4740   11.6130 C.2   177  VAL177      0.2616
    179  O         -9.1950  -29.2890   11.3310 O.2   177  VAL177     -0.2715
    180  CB        -8.8090  -31.2990    9.2830 C.3   177  VAL177      0.0290
    181  CG1       -7.2990  -31.4050    9.4360 C.3   177  VAL177      0.0023
    182  CG2       -9.2580  -32.3240    8.2900 C.3   177  VAL177      0.0023
    183  N         -8.7980  -30.8980   12.8060 N.am  178  PHE178     -0.1974
    184  CA        -8.3210  -29.9880   13.8130 C.3   178  PHE178      0.1639
    185  C         -6.8630  -29.6510   13.4530 C.2   178  PHE178      0.2290
    186  O         -6.1860  -30.4280   12.7310 O.2   178  PHE178     -0.2864
    187  CB        -8.3320  -30.6400   15.2100 C.3   178  PHE178      0.0560
    188  CG        -9.7080  -30.7830   15.8650 C.ar  178  PHE178     -0.0200
    189  CD1      -10.7040  -31.5910   15.3110 C.ar  178  PHE178     -0.0042
    190  CD2       -9.9490  -30.2140   17.0970 C.ar  178  PHE178     -0.0042
    191  CE1      -11.9220  -31.7500   15.9340 C.ar  178  PHE178     -0.0003
    192  CE2      -11.1690  -30.3870   17.7370 C.ar  178  PHE178     -0.0003
    193  CZ       -12.1560  -31.1520   17.1570 C.ar  178  PHE178     -0.0000
@<TRIPOS>BOND
     1   135   134    2
     2   134   133    1
     3   130   129   ar
     4   139   140    1
     5   108   107    2
     6   133   132    1
     7   133   136    1
     8   148   146   ar
     9   148   147   ar
    10   131   129   ar
    11   146   144   ar
    12   107   106    1
    13   129   128    1
    14   132   126   am
    15   147   145   ar
    16   136   137    1
    17   136   138    1
    18   144   145   ar
    19   144   143    1
    20   140   143    1
    21   140   141    1
    22   116   117    1
    23   126   127    2
    24   126   125    1
    25   106   109    1
    26   106   105    1
    27   124   125    1
    28   124   118   am
    29   141   142    2
    30   128   125    1
    31   109   110    1
    32     4     3    2
    33   117   118    1
    34   117   120    1
    35   118   119    2
    36     8     6    1
    37     1     2    1
    38     5     6    1
    39     5     2    1
    40     5     7    1
    41   112   110   ar
    42   112   114   ar
    43   110   111   ar
    44   182   180    1
    45     3     2    1
    46     3     9   am
    47   122   120    1
    48   120   121    1
    49    11    10    1
    50    11    12    2
    51   114   115   ar
    52   180   181    1
    53   180   177    1
    54     9    10    1
    55     9    15    1
    56    10    13    1
    57   121   123    1
    58   149   150    1
    59   111   113   ar
    60    16    17    1
    61   151   150    1
    62   151   152    2
    63   167   165    1
    64   176   177    1
    65   176   170   am
    66   115   113   ar
    67    18    19    2
    68    18    17    1
    69   150   153    1
    70   177   178    1
    71    15    14    1
    72    13    14    1
    73   169   170    1
    74   169   168    1
    75   169   172    1
    76   103   102    1
    77   103   104    1
    78   102    99    1
    79    17    20    1
    80   174   172    1
    81   153   154    1
    82   164   165    1
    83   164   161    1
    84   170   171    2
    85   179   178    2
    86   172   173    1
    87   165   166    1
    88   178   183   am
    89   160   161    1
    90    20    21    1
    91   156   154   ar
    92   156   158   ar
    93    23    21   ar
    94    23    25   ar
    95   154   155   ar
    96   104    98    1
    97   161   162    1
    98    21    22   ar
    99    99   100    1
   100    99    98    1
   101    25    26   ar
   102   186   185    2
   103   183   184    1
   104   100   101    2
   105    22    24   ar
   106   158   159   ar
   107   173   175    1
   108    98    88   am
   109   162   163    2
   110    26    24   ar
   111   185   184    1
   112    97    96    1
   113   155   157   ar
   114   184   187    1
   115    94    96   ar
   116    94    92   ar
   117    96    95   ar
   118   159   157   ar
   119    81    80    2
   120    88    89    2
   121    88    87    1
   122    92    91   ar
   123    95    93   ar
   124    51    49   ar
   125    51    53   ar
   126   187   188    1
   127   189   188   ar
   128   189   191   ar
   129    49    48   ar
   130    87    86    1
   131    87    90    1
   132    91    93   ar
   133    91    90    1
   134    80    86   am
   135    80    79    1
   136    53    52   ar
   137    34    32    1
   138   188   190   ar
   139   191   193   ar
   140    48    47    1
   141    48    50   ar
   142    82    79    1
   143    82    83    1
   144    47    44    1
   145    84    83    1
   146    31    32    1
   147    31    28    1
   148    52    50   ar
   149    46    45    2
   150    27    28    1
   151    79    78    1
   152    85    83    1
   153    32    33    1
   154   190   192   ar
   155   193   192   ar
   156    64    62   ar
   157    64    63   ar
   158    28    29    1
   159    44    45    1
   160    44    43    1
   161    62    60   ar
   162    76    75    2
   163    63    61   ar
   164    77    74    1
   165    60    59   ar
   166    43    37   am
   167    29    30    2
   168    74    75    1
   169    74    73    1
   170    72    70    1
   171    38    37    2
   172    41    39    1
   173    68    67    2
   174    37    36    1
   175    70    71    1
   176    70    69    1
   177    61    59   ar
   178    59    58    1
   179    73    67   am
   180    67    66    1
   181    40    39    1
   182    40    42    1
   183    39    36    1
   184    69    66    1
   185    36    35    1
   186    57    56    2
   187    58    55    1
   188    66    65    1
   189    56    55    1
   190    55    54    1
