@<TRIPOS>MOLECULE
tmp/4rmgA01.pdb
 214 209 0 0 0
SMALL
GASTEIGER

@<TRIPOS>ATOM
      1  N        -15.9200  -22.3960   -0.3510 N.3    31  GLY31      -0.1210
      2  CA       -15.7210  -22.0460    1.0500 C.3    31  GLY31       0.1956
      3  C        -16.9840  -21.5160    1.7210 C.2    31  GLY31       0.2612
      4  O        -18.1150  -21.7180    1.2120 O.2    31  GLY31      -0.2717
      5  N        -16.7870  -20.8710    2.8830 N.am   32  ALA32      -0.1965
      6  CA       -17.8900  -20.5560    3.8080 C.3    32  ALA32       0.1728
      7  C        -18.8560  -19.5850    3.1900 C.2    32  ALA32       0.2616
      8  O        -20.0090  -19.5490    3.5460 O.2    32  ALA32      -0.2715
      9  CB       -17.3480  -19.9830    5.1060 C.3    32  ALA32       0.0334
     10  N        -18.3930  -18.8090    2.2350 N.am   33  GLY33      -0.1955
     11  CA       -19.2630  -17.9600    1.4960 C.3    33  GLY33       0.1869
     12  C        -20.4240  -18.6340    0.7520 C.2    33  GLY33       0.2309
     13  O        -21.4130  -17.9660    0.4060 O.2    33  GLY33      -0.2863
     14  N        -22.3210  -20.8900    2.0160 N.3    35  SER35      -0.1202
     15  CA       -23.2740  -21.3690    2.9950 C.3    35  SER35       0.2020
     16  C        -23.8460  -20.2740    3.8940 C.2    35  SER35       0.2619
     17  O        -24.7550  -20.5510    4.6740 O.2    35  SER35      -0.2717
     18  CB       -22.6480  -22.5150    3.8410 C.3    35  SER35       0.2103
     19  OG       -22.3880  -23.6780    3.0190 O.3    35  SER35      -0.2182
     20  N        -23.3420  -19.0450    3.7900 N.am   36  THR36      -0.1938
     21  CA       -23.8730  -17.9530    4.6090 C.3    36  THR36       0.2028
     22  C        -25.3490  -17.6080    4.2690 C.2    36  THR36       0.2642
     23  O        -26.1290  -17.2890    5.1750 O.2    36  THR36      -0.2714
     24  CB       -23.0280  -16.6750    4.4890 C.3    36  THR36       0.1808
     25  OG1      -22.9170  -16.2930    3.1210 O.3    36  THR36      -0.2208
     26  CG2      -21.6520  -16.8940    5.0730 C.3    36  THR36       0.0379
     27  N        -25.7410  -17.7250    2.9990 N.am   37  SER37      -0.1949
     28  CA       -27.1250  -17.4880    2.6290 C.3    37  SER37       0.1924
     29  C        -28.0290  -18.5880    3.1620 C.2    37  SER37       0.2314
     30  O        -29.2650  -18.3990    3.2240 O.2    37  SER37      -0.2863
     31  CB       -27.3010  -17.3130    1.1130 C.3    37  SER37       0.2116
     32  OG       -27.3130  -18.5970    0.4720 O.3    37  SER37      -0.2180
     33  N        -25.5870  -20.0080    7.8450 N.3    40  ILE40      -0.1231
     34  CA       -24.3680  -20.4850    8.4880 C.3    40  ILE40       0.1678
     35  C        -23.2530  -19.4380    8.3140 C.2    40  ILE40       0.2434
     36  O        -22.7320  -19.2830    7.2380 O.2    40  ILE40      -0.2733
     37  CB       -23.9310  -21.8470    7.9300 C.3    40  ILE40       0.0265
     38  CG1      -25.0930  -22.8280    8.0190 C.3    40  ILE40       0.0019
     39  CG2      -22.6880  -22.3680    8.6550 C.3    40  ILE40       0.0020
     40  CD1      -24.7400  -24.2280    7.5930 C.3    40  ILE40       0.0001
     41  N        -22.9530  -18.6690    9.3710 N.am   41  PRO41      -0.2718
     42  CA       -21.9510  -17.6030    9.3770 C.3    41  PRO41       0.1535
     43  C        -20.5660  -18.1490    9.1180 C.2    41  PRO41       0.2599
     44  O        -20.2730  -19.3000    9.4980 O.2    41  PRO41      -0.2715
     45  CB       -22.0380  -17.0340   10.8150 C.3    41  PRO41       0.0310
     46  CG       -23.3370  -17.4810   11.3400 C.3    41  PRO41       0.0237
     47  CD       -23.6810  -18.7590   10.6460 C.3    41  PRO41       0.0939
     48  N        -19.7120  -17.3340    8.5110 N.am   42  ASP42      -0.1958
     49  CA       -18.3920  -17.8070    8.0290 C.3    42  ASP42       0.1840
     50  C        -17.2060  -17.5890    8.9330 C.2    42  ASP42       0.2622
     51  O        -16.0450  -17.9210    8.5120 O.2    42  ASP42      -0.2715
     52  CB       -18.0410  -17.1890    6.6410 C.3    42  ASP42       0.1450
     53  CG       -18.1250  -15.6610    6.6070 C.2    42  ASP42       0.3671
     54  OD1      -18.2110  -15.0560    7.6920 O.co2  42  ASP42      -0.2456
     55  OD2      -18.1090  -15.0700    5.4960 O.co2  42  ASP42      -0.2456
     56  N        -17.4800  -17.0210   10.1190 N.am   43  PHE43      -0.1960
     57  CA       -16.4530  -16.5560   11.0710 C.3    43  PHE43       0.1771
     58  C        -15.3800  -15.6230   10.4860 C.2    43  PHE43       0.2619
     59  O        -14.1560  -15.9090   10.5150 O.2    43  PHE43      -0.2715
     60  CB       -15.7740  -17.7290   11.7520 C.3    43  PHE43       0.0574
     61  CG       -16.7220  -18.7210   12.2780 C.ar   43  PHE43      -0.0200
     62  CD1      -17.8720  -18.3270   12.9620 C.ar   43  PHE43      -0.0042
     63  CD2      -16.4470  -20.0560   12.1390 C.ar   43  PHE43      -0.0042
     64  CE1      -18.7410  -19.2680   13.4730 C.ar   43  PHE43      -0.0003
     65  CE2      -17.2990  -21.0040   12.6320 C.ar   43  PHE43      -0.0003
     66  CZ       -18.4520  -20.6170   13.3060 C.ar   43  PHE43      -0.0000
     67  N        -15.8700  -14.5080    9.9480 N.am   44  ARG44      -0.1977
     68  CA       -15.0910  -13.2960    9.8280 C.3    44  ARG44       0.1597
     69  C        -15.0530  -12.7790   11.2690 C.2    44  ARG44       0.2287
     70  O        -15.3390  -13.5320   12.2060 O.2    44  ARG44      -0.2864
     71  CB       -15.7940  -12.3020    8.8940 C.3    44  ARG44       0.0334
     72  CG       -15.9230  -12.7910    7.4380 C.3    44  ARG44       0.0492
     73  CD       -14.6020  -12.5910    6.7650 C.3    44  ARG44       0.2205
     74  NE       -14.5000  -12.9910    5.3640 N.pl3  44  ARG44      -0.0865
     75  CZ       -14.4940  -14.2560    4.9360 C.cat  44  ARG44       0.5346
     76  NH1      -14.5750  -15.2990    5.7740 N.pl3  44  ARG44       0.1354
     77  NH2      -14.3940  -14.4660    3.6240 N.pl3  44  ARG44       0.1354
     78  N        -14.0250  -26.4540    1.5520 N.3   111  GLN111     -0.1231
     79  CA       -13.5330  -26.2030    2.8730 C.3   111  GLN111      0.1698
     80  C        -14.6200  -26.2800    3.9750 C.2   111  GLN111      0.2592
     81  O        -14.2710  -26.1630    5.1440 O.2   111  GLN111     -0.2718
     82  CB       -12.8900  -24.8260    2.9550 C.3   111  GLN111      0.0381
     83  CG       -11.7930  -24.7490    1.9200 C.3   111  GLN111      0.0905
     84  CD       -10.5050  -24.1310    2.3530 C.2   111  GLN111      0.2608
     85  OE1       -9.4580  -24.8100    2.4050 O.2   111  GLN111     -0.2717
     86  NE2      -10.5320  -22.8150    2.5640 N.am  111  GLN111     -0.0878
     87  N        -15.8780  -26.5210    3.6100 N.am  112  ASN112     -0.1960
     88  CA       -16.9700  -26.4310    4.5690 C.3   112  ASN112      0.1819
     89  C        -17.1270  -27.7620    5.2720 C.2   112  ASN112      0.2621
     90  O        -16.8200  -28.8030    4.7170 O.2   112  ASN112     -0.2715
     91  CB       -18.2620  -26.0530    3.8400 C.3   112  ASN112      0.1195
     92  CG       -18.2550  -24.6120    3.3770 C.2   112  ASN112      0.2630
     93  OD1      -17.3660  -23.8390    3.7430 O.2   112  ASN112     -0.2716
     94  ND2      -19.2290  -24.2480    2.5230 N.am  112  ASN112     -0.0877
     95  N        -17.6450  -27.7180    6.4930 N.am  113  ILE113     -0.1963
     96  CA       -17.8560  -28.9230    7.2830 C.3   113  ILE113      0.1727
     97  C        -19.3440  -29.1470    7.5130 C.2   113  ILE113      0.2616
     98  O        -19.7260  -30.0780    8.2310 O.2   113  ILE113     -0.2715
     99  CB       -17.1290  -28.8050    8.6470 C.3   113  ILE113      0.0290
    100  CG1      -17.6290  -27.5560    9.3980 C.3   113  ILE113      0.0022
    101  CG2      -15.6270  -28.6840    8.3750 C.3   113  ILE113      0.0023
    102  CD1      -16.9030  -27.2140   10.6760 C.3   113  ILE113      0.0001
    103  N        -20.1900  -28.3590    6.8340 N.am  114  ASP114     -0.1971
    104  CA       -21.6300  -28.3430    7.1550 C.3   114  ASP114      0.1709
    105  C        -22.5090  -29.4290    6.4950 C.2   114  ASP114      0.2293
    106  O        -23.7270  -29.5500    6.8330 O.2   114  ASP114     -0.2864
    107  CB       -22.1680  -26.9650    6.8980 C.3   114  ASP114      0.1436
    108  CG       -22.0420  -26.5450    5.4210 C.2   114  ASP114      0.3671
    109  OD1      -22.1060  -27.4720    4.5680 O.co2 114  ASP114     -0.2456
    110  OD2      -21.8160  -25.3140    5.1390 O.co2 114  ASP114     -0.2456
    111  N        -11.4620  -29.9830    4.5810 N.3   131  HIS131     -0.1241
    112  CA       -11.3330  -29.7550    6.0340 C.3   131  HIS131      0.1621
    113  C        -12.1090  -30.7150    6.8590 C.2   131  HIS131      0.2264
    114  O        -12.3490  -30.4910    8.0520 O.2   131  HIS131     -0.2867
    115  CB       -11.6480  -28.3550    6.4210 C.3   131  HIS131      0.0745
    116  CG       -10.6440  -27.3800    5.9460 C.ar  131  HIS131      0.0817
    117  ND1      -10.7330  -26.0410    6.2350 N.ar  131  HIS131     -0.2268
    118  CD2       -9.5120  -27.5370    5.2110 C.ar  131  HIS131      0.1154
    119  CE1       -9.7130  -25.4030    5.6910 C.ar  131  HIS131      0.1986
    120  NE2       -8.9700  -26.2850    5.0430 N.ar  131  HIS131     -0.2212
    121  N        -17.0100  -18.3310   -2.9590 N.3   205  GLY205     -0.1210
    122  CA       -17.1670  -18.1490   -1.4870 C.3   205  GLY205      0.1956
    123  C        -15.9440  -18.5060   -0.6660 C.2   205  GLY205      0.2613
    124  O        -16.0800  -19.0440    0.4250 O.2   205  GLY205     -0.2717
    125  N        -14.7530  -18.2360   -1.1940 N.am  206  THR206     -0.1938
    126  CA       -13.5230  -18.3960   -0.4200 C.3   206  THR206      0.2028
    127  C        -12.5550  -17.2520   -0.7110 C.2   206  THR206      0.2643
    128  O        -12.4700  -16.7600   -1.8270 O.2   206  THR206     -0.2714
    129  CB       -12.8340  -19.7610   -0.6450 C.3   206  THR206      0.1808
    130  OG1      -11.5710  -19.8060    0.0540 O.3   206  THR206     -0.2208
    131  CG2      -12.6070  -20.0440   -2.1090 C.3   206  THR206      0.0379
    132  N        -11.8730  -16.8010    0.3340 N.am  207  SER207     -0.1935
    133  CA       -10.8590  -15.7760    0.2330 C.3   207  SER207      0.2055
    134  C         -9.5050  -16.3910   -0.1560 C.2   207  SER207      0.2643
    135  O         -8.5650  -15.6440   -0.3650 O.2   207  SER207     -0.2714
    136  CB       -10.7430  -14.9960    1.5550 C.3   207  SER207      0.2130
    137  OG       -10.3260  -15.8360    2.6400 O.3   207  SER207     -0.2179
    138  N         -9.4080  -17.7220   -0.2520 N.am  208  LEU208     -0.1963
    139  CA        -8.1750  -18.3450   -0.7490 C.3   208  LEU208      0.1728
    140  C         -6.9760  -17.9990    0.1290 C.2   208  LEU208      0.2616
    141  O         -5.9260  -17.5860   -0.3670 O.2   208  LEU208     -0.2715
    142  CB        -7.8880  -17.8520   -2.1690 C.3   208  LEU208      0.0311
    143  CG        -8.8980  -18.3770   -3.1650 C.3   208  LEU208      0.0022
    144  CD1       -8.5860  -17.7970   -4.5290 C.3   208  LEU208      0.0001
    145  CD2       -8.8870  -19.8980   -3.1500 C.3   208  LEU208      0.0001
    146  N         -7.1670  -18.1010    1.4340 N.am  209  GLN209     -0.1963
    147  CA        -6.1110  -17.7430    2.3680 C.3   209  GLN209      0.1733
    148  C         -5.6790  -18.9140    3.1980 C.2   209  GLN209      0.2616
    149  O         -4.5970  -18.8820    3.7280 O.2   209  GLN209     -0.2715
    150  CB        -6.5600  -16.6100    3.2640 C.3   209  GLN209      0.0408
    151  CG        -6.5030  -15.2700    2.5740 C.3   209  GLN209      0.0908
    152  CD        -7.2980  -14.2040    3.3030 C.2   209  GLN209      0.2608
    153  OE1       -7.6850  -14.3870    4.4440 O.2   209  GLN209     -0.2717
    154  NE2       -7.5500  -13.0850    2.6420 N.am  209  GLN209     -0.0878
    155  N         -6.5050  -19.9540    3.2950 N.am  210  VAL210     -0.1977
    156  CA        -6.2250  -21.0930    4.1320 C.3   210  VAL210      0.1596
    157  C         -5.9350  -22.3260    3.2730 C.2   210  VAL210      0.2287
    158  O         -6.3190  -22.4020    2.1020 O.2   210  VAL210     -0.2864
    159  CB        -7.4160  -21.3310    5.0850 C.3   210  VAL210      0.0276
    160  CG1       -7.2420  -22.5920    5.9140 C.3   210  VAL210      0.0022
    161  CG2       -7.5780  -20.1360    6.0090 C.3   210  VAL210      0.0022
    162  N        -17.5180  -14.2530   -5.7180 N.3   230  ASN230     -0.1225
    163  CA       -17.2420  -13.9190   -4.3130 C.3   230  ASN230      0.1785
    164  C        -17.6030  -12.4640   -4.0180 C.2   230  ASN230      0.2597
    165  O        -17.6820  -11.6220   -4.9410 O.2   230  ASN230     -0.2718
    166  CB       -15.7240  -14.1790   -4.0250 C.3   230  ASN230      0.1169
    167  CG       -15.4540  -14.5230   -2.5610 C.2   230  ASN230      0.2627
    168  OD1      -16.0650  -15.4350   -2.0040 O.2   230  ASN230     -0.2716
    169  ND2      -14.5590  -13.7880   -1.9320 N.am  230  ASN230     -0.0877
    170  N        -17.8200  -12.1470   -2.7580 N.am  231  LYS231     -0.1966
    171  CA       -18.1160  -10.7660   -2.3660 C.3   231  LYS231      0.1728
    172  C        -16.9730   -9.8000   -2.6990 C.2   231  LYS231      0.2616
    173  O        -17.2400   -8.6680   -3.0760 O.2   231  LYS231     -0.2715
    174  CB       -18.4580  -10.6380   -0.8840 C.3   231  LYS231      0.0311
    175  CG       -19.9520  -10.7160   -0.6310 C.3   231  LYS231      0.0038
    176  CD       -20.2710  -10.6020    0.8530 C.3   231  LYS231      0.0206
    177  CE       -21.7730  -10.7000    1.0830 C.3   231  LYS231      0.1093
    178  NZ       -22.2100  -10.3140    2.4560 N.3   231  LYS231     -0.1314
    179  N        -15.7350  -10.2670   -2.5940 N.am  232  GLU232     -0.1977
    180  CA       -14.5380   -9.4410   -2.8570 C.3   232  GLU232      0.1602
    181  C        -13.5060  -10.2210   -3.6800 C.2   232  GLU232      0.2287
    182  O        -13.4980  -11.4520   -3.6810 O.2   232  GLU232     -0.2864
    183  CB       -13.9100   -8.9950   -1.5270 C.3   232  GLU232      0.0415
    184  CG       -12.9890  -10.0250   -0.8350 C.3   232  GLU232      0.1163
    185  CD       -13.6900  -11.0530    0.0600 C.2   232  GLU232      0.3649
    186  OE1      -12.9770  -11.9620    0.6000 O.co2 232  GLU232     -0.2457
    187  OE2      -14.9380  -10.9630    0.2330 O.co2 232  GLU232     -0.2457
    188  N        -20.0400  -10.3110   -5.8930 N.3   263  GLY263     -0.1210
    189  CA       -21.3630  -10.2480   -5.2600 C.3   263  GLY263      0.1956
    190  C        -21.6070  -11.5560   -4.5440 C.2   263  GLY263      0.2612
    191  O        -20.6920  -12.3260   -4.3070 O.2   263  GLY263     -0.2717
    192  N        -22.8750  -11.8140   -4.2660 N.am  264  GLU264     -0.1965
    193  CA       -23.2960  -13.0020   -3.5530 C.3   264  GLU264      0.1733
    194  C        -23.1860  -14.2610   -4.4000 C.2   264  GLU264      0.2616
    195  O        -23.5300  -14.2780   -5.5420 O.2   264  GLU264     -0.2715
    196  CB       -24.7470  -12.8000   -3.1090 C.3   264  GLU264      0.0429
    197  CG       -24.8970  -11.6350   -2.1370 C.3   264  GLU264      0.1163
    198  CD       -24.3940  -11.9480   -0.7430 C.2   264  GLU264      0.3649
    199  OE1      -23.1900  -12.2260   -0.5650 O.co2 264  GLU264     -0.2457
    200  OE2      -25.2080  -11.9170    0.2040 O.co2 264  GLU264     -0.2457
    201  N        -22.7090  -15.3440   -3.8170 N.am  265  CYS265     -0.1954
    202  CA       -22.5800  -16.5860   -4.5490 C.3   265  CYS265      0.1843
    203  C        -23.8450  -17.0600   -5.2340 C.2   265  CYS265      0.2625
    204  O        -23.7940  -17.4970   -6.3560 O.2   265  CYS265     -0.2714
    205  CB       -22.0540  -17.6740   -3.5860 C.3   265  CYS265      0.0997
    206  SG       -20.3160  -17.4160   -3.1770 S.3   265  CYS265     -0.0797
    207  N        -24.9970  -17.0060   -4.5460 N.am  266  ASP266     -0.1971
    208  CA       -26.2640  -17.4450   -5.1320 C.3   266  ASP266      0.1709
    209  C        -26.6170  -16.6560   -6.4090 C.2   266  ASP266      0.2293
    210  O        -27.1180  -17.2130   -7.3760 O.2   266  ASP266     -0.2864
    211  CB       -27.4210  -17.2360   -4.1350 C.3   266  ASP266      0.1436
    212  CG       -27.3870  -18.2380   -2.9930 C.2   266  ASP266      0.3671
    213  OD1      -26.6860  -19.2470   -3.1220 O.co2 266  ASP266     -0.2456
    214  OD2      -28.1070  -18.0630   -2.0140 O.co2 266  ASP266     -0.2456
@<TRIPOS>BOND
     1   210   209    2
     2   209   208    1
     3   204   203    2
     4   188   189    1
     5   162   163    1
     6   195   194    2
     7   189   190    1
     8   203   202    1
     9   203   207   am
    10   208   207    1
    11   208   211    1
    12   165   164    2
    13   202   201    1
    14   202   205    1
    15   190   191    2
    16   190   192   am
    17   144   143    1
    18   194   201   am
    19   194   193    1
    20   163   166    1
    21   163   164    1
    22   192   193    1
    23   211   212    1
    24   166   167    1
    25   164   170   am
    26   182   181    2
    27   181   180    1
    28   205   206    1
    29   193   196    1
    30   143   145    1
    31   143   142    1
    32   213   212   ar
    33   196   197    1
    34   173   172    2
    35   212   214   ar
    36   121   122    1
    37   180   179    1
    38   180   183    1
    39   170   171    1
    40   172   179   am
    41   172   171    1
    42   167   168    2
    43   167   169   am
    44   171   174    1
    45   142   139    1
    46   197   198    1
    47   131   129    1
    48   128   127    2
    49   183   184    1
    50   122   123    1
    51   125   123   am
    52   125   126    1
    53   174   175    1
    54   184   185    1
    55   139   138    1
    56   139   140    1
    57   198   199   ar
    58   198   200   ar
    59   127   126    1
    60   127   132   am
    61   123   124    2
    62   129   126    1
    63   129   130    1
    64   175   176    1
    65   141   140    2
    66   135   134    2
    67     1     2    1
    68   138   134   am
    69   134   133    1
    70   185   187   ar
    71   185   186   ar
    72   140   146   am
    73   133   132    1
    74   133   136    1
    75    13    12    2
    76    32    31    1
    77    12    11    1
    78   176   177    1
    79     2     3    1
    80   177   178    1
    81    31    28    1
    82     4     3    2
    83   146   147    1
    84    11    10    1
    85    78    79    1
    86   136   137    1
    87     3     5   am
    88    83    84    1
    89    83    82    1
    90    14    15    1
    91   158   157    2
    92    10     7   am
    93    84    85    2
    94    84    86   am
    95   147   148    1
    96   147   150    1
    97    94    92   am
    98   151   150    1
    99   151   152    1
   100    28    27    1
   101    28    29    1
   102   154   152   am
   103    79    82    1
   104    79    80    1
   105     5     6    1
   106    15    18    1
   107    15    16    1
   108    27    22   am
   109    19    18    1
   110    25    24    1
   111    29    30    2
   112     7     8    2
   113     7     6    1
   114   148   155   am
   115   148   149    2
   116   157   156    1
   117   155   156    1
   118   152   153    2
   119    92    93    2
   120    92    91    1
   121    87    80   am
   122    87    88    1
   123    77    75    1
   124    20    16   am
   125    20    21    1
   126     6     9    1
   127    91    88    1
   128    16    17    2
   129    80    81    2
   130   156   159    1
   131    22    21    1
   132    22    23    2
   133    24    21    1
   134    24    26    1
   135   109   108   ar
   136    88    89    1
   137   111   112    1
   138    90    89    2
   139    75    74    2
   140    75    76    1
   141   120   118   ar
   142   120   119   ar
   143   159   160    1
   144   159   161    1
   145   110   108   ar
   146   118   116   ar
   147    89    95   am
   148    74    73    1
   149   108   107    1
   150    55    53   ar
   151   119   117   ar
   152   116   117   ar
   153   116   115    1
   154   112   115    1
   155   112   113    1
   156    95    96    1
   157   105   106    2
   158   105   104    1
   159    53    52    1
   160    53    54   ar
   161    52    49    1
   162    73    72    1
   163   103   104    1
   164   103    97   am
   165   113   114    2
   166   107   104    1
   167    36    35    2
   168    96    97    1
   169    96    99    1
   170    72    71    1
   171    97    98    2
   172    40    38    1
   173    33    34    1
   174    37    38    1
   175    37    34    1
   176    37    39    1
   177    49    48    1
   178    49    50    1
   179    35    34    1
   180    35    41   am
   181   101    99    1
   182    48    43   am
   183    51    50    2
   184    99   100    1
   185    71    68    1
   186    50    56   am
   187    43    42    1
   188    43    44    2
   189    41    42    1
   190    41    47    1
   191    42    45    1
   192   100   102    1
   193    68    67    1
   194    68    69    1
   195    67    58   am
   196    56    57    1
   197    58    59    2
   198    58    57    1
   199    47    46    1
   200    45    46    1
   201    57    60    1
   202    69    70    2
   203    60    61    1
   204    63    61   ar
   205    63    65   ar
   206    61    62   ar
   207    65    66   ar
   208    62    64   ar
   209    66    64   ar
