@<TRIPOS>MOLECULE
tmp/4rmhA00.pdb
 124 123 0 0 0
SMALL
GASTEIGER

@<TRIPOS>ATOM
      1  N         -2.9740   17.0820   13.9890 N.3    41  PHE41      -0.1227
      2  CA        -3.1550   16.8770   12.5350 C.3    41  PHE41       0.1736
      3  C         -3.3180   15.4200   12.0990 C.2    41  PHE41       0.2595
      4  O         -3.8610   15.1590   11.0270 O.2    41  PHE41      -0.2718
      5  CB        -2.0640   17.5770   11.6880 C.3    41  PHE41       0.0547
      6  CG        -0.6700   17.0090   11.8360 C.ar   41  PHE41      -0.0202
      7  CD1       -0.2310   15.9710   11.0190 C.ar   41  PHE41      -0.0042
      8  CD2        0.2320   17.5650   12.7480 C.ar   41  PHE41      -0.0042
      9  CE1        1.0590   15.4750   11.1350 C.ar   41  PHE41      -0.0003
     10  CE2        1.5230   17.0680   12.8710 C.ar   41  PHE41      -0.0003
     11  CZ         1.9360   16.0240   12.0610 C.ar   41  PHE41      -0.0000
     12  N         -2.8700   14.4710   12.9130 N.am   42  ARG42      -0.1980
     13  CA        -3.0080   13.0570   12.5650 C.3    42  ARG42       0.1597
     14  C         -4.3800   12.4850   12.8870 C.2    42  ARG42       0.2287
     15  O         -4.7550   11.4420   12.3520 O.2    42  ARG42      -0.2864
     16  CB        -1.9540   12.2320   13.2730 C.3    42  ARG42       0.0334
     17  CG        -0.5670   12.6670   12.8940 C.3    42  ARG42       0.0492
     18  CD         0.4810   11.7240   13.4300 C.3    42  ARG42       0.2205
     19  NE         1.7840   12.3430   13.2550 N.pl3  42  ARG42      -0.0865
     20  CZ         2.2390   13.3710   13.9790 C.cat  42  ARG42       0.5346
     21  NH1        3.4160   13.8680   13.7130 N.pl3  42  ARG42       0.1354
     22  NH2        1.5410   13.9180   14.9630 N.pl3  42  ARG42       0.1354
     23  N         -9.8760   17.8230    8.0830 N.3    49  TYR49      -0.1241
     24  CA       -10.0150   17.2720    6.7370 C.3    49  TYR49       0.1605
     25  C        -11.4770   16.9700    6.4050 C.2    49  TYR49       0.2264
     26  O        -11.7750   16.0330    5.6550 O.2    49  TYR49      -0.2867
     27  CB        -9.1740   16.0000    6.6390 C.3    49  TYR49       0.0534
     28  CG        -7.7920   16.1840    7.2160 C.ar   49  TYR49      -0.0201
     29  CD1       -6.8820   17.0520    6.6160 C.ar   49  TYR49      -0.0009
     30  CD2       -7.4000   15.5130    8.3700 C.ar   49  TYR49      -0.0009
     31  CE1       -5.6150   17.2380    7.1410 C.ar   49  TYR49       0.0417
     32  CE2       -6.1360   15.6910    8.9010 C.ar   49  TYR49       0.0417
     33  CZ        -5.2460   16.5550    8.2850 C.ar   49  TYR49       0.1957
     34  OH        -3.9860   16.7380    8.8090 O.3    49  TYR49      -0.2866
     35  N         -1.6850   14.2520    1.2690 N.3    62  PHE62      -0.1241
     36  CA        -0.4750   14.0590    2.0720 C.3    62  PHE62       0.1605
     37  C          0.7160   13.4880    1.2930 C.2    62  PHE62       0.2264
     38  O          1.8170   13.3910    1.8370 O.2    62  PHE62      -0.2867
     39  CB        -0.7890   13.1250    3.2440 C.3    62  PHE62       0.0534
     40  CG        -2.0300   13.5030    4.0020 C.ar   62  PHE62      -0.0203
     41  CD1       -2.1690   14.7760    4.5380 C.ar   62  PHE62      -0.0042
     42  CD2       -3.0520   12.5860    4.1950 C.ar   62  PHE62      -0.0042
     43  CE1       -3.2990   15.1330    5.2540 C.ar   62  PHE62      -0.0003
     44  CE2       -4.1910   12.9350    4.9030 C.ar   62  PHE62      -0.0003
     45  CZ        -4.3170   14.2110    5.4330 C.ar   62  PHE62      -0.0000
     46  N          8.9880   14.5330   12.1370 N.3   130  HIS130     -0.1241
     47  CA         8.0930   14.6990   11.0000 C.3   130  HIS130      0.1621
     48  C          8.3530   15.9890   10.2290 C.2   130  HIS130      0.2264
     49  O          7.5180   16.4210    9.4340 O.2   130  HIS130     -0.2867
     50  CB         6.6610   14.5730   11.4840 C.3   130  HIS130      0.0745
     51  CG         6.3490   13.2130   12.0290 C.ar  130  HIS130      0.0817
     52  ND1        5.0950   12.8830   12.4550 N.ar  130  HIS130     -0.2268
     53  CD2        7.0980   12.0910   12.1780 C.ar  130  HIS130      0.1154
     54  CE1        5.0680   11.6230   12.8580 C.ar  130  HIS130      0.1986
     55  NE2        6.2800   11.1190   12.7110 N.ar  130  HIS130     -0.2212
     56  N          7.4500   16.2990    6.4570 N.3   176  VAL176     -0.1231
     57  CA         7.6460   15.0130    5.7700 C.3   176  VAL176      0.1692
     58  C          6.3230   14.5320    5.1760 C.2   176  VAL176      0.2592
     59  O          5.4240   14.1250    5.9030 O.2   176  VAL176     -0.2718
     60  CB         8.2170   13.9490    6.7370 C.3   176  VAL176      0.0266
     61  CG1        8.3910   12.5950    6.0480 C.3   176  VAL176      0.0020
     62  CG2        9.5590   14.4140    7.2870 C.3   176  VAL176      0.0020
     63  N          6.2070   14.6030    3.8470 N.am  177  PHE177     -0.1962
     64  CA         5.0180   14.1210    3.1560 C.3   177  PHE177      0.1771
     65  C          5.0570   12.5960    3.0800 C.2   177  PHE177      0.2619
     66  O          6.1340   12.0030    3.1480 O.2   177  PHE177     -0.2715
     67  CB         4.9680   14.6860    1.7320 C.3   177  PHE177      0.0574
     68  CG         4.4470   16.0980    1.6340 C.ar  177  PHE177     -0.0200
     69  CD1        5.1300   17.1650    2.2150 C.ar  177  PHE177     -0.0042
     70  CD2        3.2830   16.3710    0.9220 C.ar  177  PHE177     -0.0042
     71  CE1        4.6610   18.4640    2.0930 C.ar  177  PHE177     -0.0003
     72  CE2        2.8020   17.6610    0.8130 C.ar  177  PHE177     -0.0003
     73  CZ         3.4900   18.7160    1.3920 C.ar  177  PHE177     -0.0000
     74  N          3.8880   11.9660    2.9450 N.am  178  PHE178     -0.1974
     75  CA         3.8170   10.5150    2.7060 C.3   178  PHE178      0.1639
     76  C          4.5980   10.2540    1.4270 C.2   178  PHE178      0.2290
     77  O          4.4830   11.0140    0.4690 O.2   178  PHE178     -0.2864
     78  CB         2.3620   10.0370    2.5830 C.3   178  PHE178      0.0560
     79  CG         2.1980    8.5430    2.6980 C.ar  178  PHE178     -0.0200
     80  CD1        2.0390    7.9430    3.9430 C.ar  178  PHE178     -0.0042
     81  CD2        2.1890    7.7340    1.5600 C.ar  178  PHE178     -0.0042
     82  CE1        1.8850    6.5670    4.0540 C.ar  178  PHE178     -0.0003
     83  CE2        2.0340    6.3570    1.6640 C.ar  178  PHE178     -0.0003
     84  CZ         1.8820    5.7720    2.9130 C.ar  178  PHE178     -0.0000
     85  N          7.9400   10.4860    1.4140 N.3   180  GLU180     -0.1245
     86  CA         9.2810   10.9630    1.7610 C.3   180  GLU180      0.1567
     87  C          9.8110   10.1720    2.9400 C.2   180  GLU180      0.2260
     88  O          9.0420    9.6890    3.7640 O.2   180  GLU180     -0.2867
     89  CB         9.2690   12.4360    2.1540 C.3   180  GLU180      0.0388
     90  CG         8.7930   13.3910    1.0820 C.3   180  GLU180      0.1160
     91  CD         9.1270   14.8300    1.4220 C.2   180  GLU180      0.3649
     92  OE1        8.3500   15.4680    2.1710 O.co2 180  GLU180     -0.2457
     93  OE2       10.1580   15.3260    0.9140 O.co2 180  GLU180     -0.2457
     94  N         11.8040    9.7360    6.5780 N.3   182  LEU182     -0.1245
     95  CA        12.0530   10.5200    7.7840 C.3   182  LEU182      0.1561
     96  C         13.4420   11.1290    7.6380 C.2   182  LEU182      0.2260
     97  O         14.2880   10.5510    6.9580 O.2   182  LEU182     -0.2867
     98  CB        11.9700    9.6590    9.0490 C.3   182  LEU182      0.0270
     99  CG        10.5920    9.6080    9.7120 C.3   182  LEU182      0.0019
    100  CD1        9.5820    8.8770    8.8450 C.3   182  LEU182      0.0001
    101  CD2       10.6890    8.9480   11.0780 C.3   182  LEU182      0.0001
    102  N          2.2450    6.0620   16.2340 N.3   209  VAL209     -0.1231
    103  CA         2.8370    6.3020   14.9190 C.3   209  VAL209      0.1692
    104  C          4.3100    5.8750   14.9050 C.2   209  VAL209      0.2592
    105  O          5.0930    6.3120   15.7500 O.2   209  VAL209     -0.2718
    106  CB         2.6840    7.7940   14.5420 C.3   209  VAL209      0.0266
    107  CG1        3.2690    8.0830   13.1760 C.3   209  VAL209      0.0020
    108  CG2        1.2160    8.1880   14.5650 C.3   209  VAL209      0.0020
    109  N          4.6610    5.0010   13.9590 N.am  210  GLN210     -0.1966
    110  CA         6.0120    4.4490   13.8150 C.3   210  GLN210      0.1718
    111  C          6.7900    5.2290   12.7600 C.2   210  GLN210      0.2458
    112  O          6.1980    5.7740   11.8240 O.2   210  GLN210     -0.2730
    113  CB         5.9550    2.9770   13.3770 C.3   210  GLN210      0.0407
    114  CG         5.3370    2.0080   14.3880 C.3   210  GLN210      0.0908
    115  CD         6.1550    1.7950   15.6550 C.2   210  GLN210      0.2608
    116  OE1        5.6380    1.3120   16.6600 O.2   210  GLN210     -0.2717
    117  NE2        7.4180    2.1500   15.6210 N.am  210  GLN210     -0.0878
    118  N          8.1290    5.2840   12.8820 N.am  211  PRO211     -0.2727
    119  CA         8.9810    4.6830   13.9040 C.3   211  PRO211      0.1402
    120  C          9.1260    5.4900   15.2190 C.2   211  PRO211      0.2269
    121  O          9.7530    5.0240   16.1620 O.2   211  PRO211     -0.2865
    122  CB        10.3220    4.5440   13.1830 C.3   211  PRO211      0.0296
    123  CG        10.3510    5.7010   12.2480 C.3   211  PRO211      0.0237
    124  CD         8.9250    5.9630   11.8390 C.3   211  PRO211      0.0939
@<TRIPOS>BOND
     1    77    76    2
     2    72    70   ar
     3    72    73   ar
     4    93    91   ar
     5    70    68   ar
     6    90    91    1
     7    90    89    1
     8    35    36    1
     9    37    38    2
    10    37    36    1
    11    73    71   ar
    12    85    86    1
    13    91    92   ar
    14    76    75    1
    15    81    83   ar
    16    81    79   ar
    17    68    67    1
    18    68    69   ar
    19    83    84   ar
    20    67    64    1
    21    86    89    1
    22    86    87    1
    23    36    39    1
    24    71    69   ar
    25    78    79    1
    26    78    75    1
    27    79    80   ar
    28    75    74    1
    29    84    82   ar
    30    87    88    2
    31    74    65   am
    32    65    66    2
    33    65    64    1
    34    64    63    1
    35    39    40    1
    36    63    58   am
    37    80    82   ar
    38    40    42   ar
    39    40    41   ar
    40    42    44   ar
    41    41    43   ar
    42    44    45   ar
    43    58    57    1
    44    58    59    2
    45    43    45   ar
    46    26    25    2
    47    57    56    1
    48    57    60    1
    49    61    60    1
    50    25    24    1
    51    94    95    1
    52    29    31   ar
    53    29    28   ar
    54    27    24    1
    55    27    28    1
    56    24    23    1
    57    60    62    1
    58    97    96    2
    59    31    33   ar
    60    28    30   ar
    61    96    95    1
    62    95    98    1
    63    33    34    1
    64    33    32   ar
    65    30    32   ar
    66   100    99    1
    67    98    99    1
    68    49    48    2
    69    99   101    1
    70    48    47    1
    71    47    50    1
    72    47    46    1
    73     7     9   ar
    74     7     6   ar
    75     4     3    2
    76     9    11   ar
    77    50    51    1
    78     5     6    1
    79     5     2    1
    80   112   111    2
    81     6     8   ar
    82   124   123    1
    83   124   118    1
    84    51    53   ar
    85    51    52   ar
    86    11    10   ar
    87     3     2    1
    88     3    12   am
    89    53    55   ar
    90   123   122    1
    91    15    14    2
    92    52    54   ar
    93     2     1    1
    94    13    14    1
    95    13    12    1
    96    13    16    1
    97    55    54   ar
    98     8    10   ar
    99   111   118   am
   100   111   110    1
   101   118   119    1
   102    17    16    1
   103    17    18    1
   104   107   106    1
   105   122   119    1
   106    19    18    1
   107    19    20    2
   108   113   110    1
   109   113   114    1
   110    21    20    1
   111   110   109    1
   112   119   120    1
   113   109   104   am
   114    20    22    1
   115   114   115    1
   116   106   108    1
   117   106   103    1
   118   104   103    1
   119   104   105    2
   120   103   102    1
   121   120   121    2
   122   117   115   am
   123   115   116    2
