@<TRIPOS>MOLECULE
tmp/4rmiA00.pdb
 156 155 0 0 0
SMALL
GASTEIGER

@<TRIPOS>ATOM
      1  N        -21.7900   -0.1730   14.3820 N.3    41  PHE41      -0.1227
      2  CA       -22.4390   -0.3870   13.0870 C.3    41  PHE41       0.1736
      3  C        -22.8860   -1.8310   12.8580 C.2    41  PHE41       0.2595
      4  O        -23.5950   -2.1110   11.8860 O.2    41  PHE41      -0.2718
      5  CB       -21.5550    0.0980   11.9260 C.3    41  PHE41       0.0547
      6  CG       -20.3560   -0.7710   11.6450 C.ar   41  PHE41      -0.0202
      7  CD1      -20.4890   -1.9680   10.9520 C.ar   41  PHE41      -0.0042
      8  CD2      -19.0870   -0.3760   12.0470 C.ar   41  PHE41      -0.0042
      9  CE1      -19.3900   -2.7660   10.6900 C.ar   41  PHE41      -0.0003
     10  CE2      -17.9760   -1.1670   11.7750 C.ar   41  PHE41      -0.0003
     11  CZ       -18.1330   -2.3630   11.0950 C.ar   41  PHE41      -0.0000
     12  N        -22.4760   -2.7390   13.7430 N.am   42  ARG42      -0.1980
     13  CA       -22.9660   -4.1160   13.7240 C.3    42  ARG42       0.1597
     14  C        -24.2840   -4.2680   14.5040 C.2    42  ARG42       0.2287
     15  O        -25.2880   -4.7440   13.9490 O.2    42  ARG42      -0.2864
     16  CB       -21.8810   -5.0550   14.2520 C.3    42  ARG42       0.0334
     17  CG       -20.5910   -4.9290   13.4560 C.3    42  ARG42       0.0492
     18  CD       -19.5860   -6.0220   13.7550 C.3    42  ARG42       0.2205
     19  NE       -18.4620   -5.9780   12.8180 N.pl3  42  ARG42      -0.0865
     20  CZ       -17.4370   -5.1240   12.8690 C.cat  42  ARG42       0.5346
     21  NH1      -17.3470   -4.2030   13.8240 N.pl3  42  ARG42       0.1354
     22  NH2      -16.4830   -5.1870   11.9440 N.pl3  42  ARG42       0.1354
     23  N        -10.5160   -2.3680   17.5940 N.3    96  GLN96      -0.1245
     24  CA       -11.3680   -2.7430   16.4650 C.3    96  GLN96       0.1566
     25  C        -12.0950   -1.5360   15.8640 C.2    96  GLN96       0.2260
     26  O        -12.7880   -1.6470   14.8310 O.2    96  GLN96      -0.2867
     27  CB       -12.4260   -3.7380   16.8910 C.3    96  GLN96       0.0367
     28  CG       -11.8080   -5.0580   17.2030 C.3    96  GLN96       0.0905
     29  CD       -12.7410   -6.0090   17.8760 C.2    96  GLN96       0.2608
     30  OE1      -13.3140   -6.8410   17.2210 O.2    96  GLN96      -0.2717
     31  NE2      -12.8670   -5.9050   19.1760 N.am   96  GLN96      -0.0878
     32  N        -12.7510    2.3710   14.3260 N.3    98  ILE98      -0.1245
     33  CA       -12.2860    3.1820   13.2100 C.3    98  ILE98       0.1561
     34  C        -12.4810    4.6740   13.4130 C.2    98  ILE98       0.2260
     35  O        -12.1410    5.4700   12.5370 O.2    98  ILE98      -0.2867
     36  CB       -12.8920    2.7240   11.8520 C.3    98  ILE98       0.0252
     37  CG1      -14.4010    3.0100   11.7930 C.3    98  ILE98       0.0019
     38  CG2      -12.5400    1.2610   11.5830 C.3    98  ILE98       0.0019
     39  CD1      -15.1480    2.3960   10.6150 C.3    98  ILE98       0.0001
     40  N         -8.5980   -2.8960   12.5340 N.3   116  HIS116     -0.1241
     41  CA        -9.5700   -2.7670   11.4420 C.3   116  HIS116      0.1621
     42  C         -9.3530   -1.4710   10.6480 C.2   116  HIS116      0.2264
     43  O        -10.2540   -0.9990    9.9560 O.2   116  HIS116     -0.2867
     44  CB       -10.9810   -2.8960   12.0280 C.3   116  HIS116      0.0745
     45  CG       -11.2480   -4.2360   12.6500 C.ar  116  HIS116      0.0817
     46  ND1      -12.3640   -4.4810   13.4250 N.ar  116  HIS116     -0.2268
     47  CD2      -10.5860   -5.4200   12.5600 C.ar  116  HIS116      0.1154
     48  CE1      -12.3750   -5.7550   13.7910 C.ar  116  HIS116      0.1986
     49  NE2      -11.3240   -6.3530   13.2570 N.ar  116  HIS116     -0.2212
     50  N         -9.5800    2.1540    6.2870 N.3   161  ILE161     -0.1231
     51  CA       -10.2920    1.1520    7.0400 C.3   161  ILE161      0.1692
     52  C        -10.2100   -0.1630    6.3060 C.2   161  ILE161      0.2592
     53  O        -10.0600   -0.1920    5.0850 O.2   161  ILE161     -0.2718
     54  CB       -11.7750    1.5430    7.2990 C.3   161  ILE161      0.0266
     55  CG1      -12.5970    1.6250    6.0180 C.3   161  ILE161      0.0019
     56  CG2      -11.7810    2.8440    8.0600 C.3   161  ILE161      0.0020
     57  CD1      -14.0990    1.7430    6.2480 C.3   161  ILE161      0.0001
     58  N        -10.2730   -1.2490    7.0490 N.am  162  VAL162     -0.1966
     59  CA       -10.2570   -2.5750    6.4440 C.3   162  VAL162      0.1727
     60  C        -11.6780   -2.9160    5.9320 C.2   162  VAL162      0.2616
     61  O        -12.5580   -3.1120    6.7480 O.2   162  VAL162     -0.2715
     62  CB        -9.7740   -3.6080    7.4640 C.3   162  VAL162      0.0290
     63  CG1       -9.8440   -5.0160    6.8880 C.3   162  VAL162      0.0023
     64  CG2       -8.3310   -3.2920    7.8850 C.3   162  VAL162      0.0023
     65  N        -11.8640   -2.9210    4.6020 N.am  163  PHE163     -0.1960
     66  CA       -13.1050   -3.3940    3.9370 C.3   163  PHE163      0.1771
     67  C        -13.0840   -4.9120    3.8520 C.2   163  PHE163      0.2620
     68  O        -12.0060   -5.5110    3.8580 O.2   163  PHE163     -0.2715
     69  CB       -13.2010   -2.9000    2.4940 C.3   163  PHE163      0.0574
     70  CG       -13.6900   -1.4840    2.3380 C.ar  163  PHE163     -0.0200
     71  CD1      -12.9840   -0.4180    2.8760 C.ar  163  PHE163     -0.0042
     72  CD2      -14.8290   -1.2120    1.5850 C.ar  163  PHE163     -0.0042
     73  CE1      -13.4110    0.8770    2.6930 C.ar  163  PHE163     -0.0003
     74  CE2      -15.2630    0.0800    1.4040 C.ar  163  PHE163     -0.0003
     75  CZ       -14.5570    1.1290    1.9630 C.ar  163  PHE163     -0.0000
     76  N        -14.2670   -5.5250    3.7290 N.am  164  PHE164     -0.1960
     77  CA       -14.3770   -6.9670    3.4590 C.3   164  PHE164      0.1771
     78  C        -13.7370   -7.2390    2.1020 C.2   164  PHE164      0.2620
     79  O        -13.9850   -6.5060    1.1280 O.2   164  PHE164     -0.2715
     80  CB       -15.8440   -7.4250    3.4710 C.3   164  PHE164      0.0574
     81  CG       -16.0210   -8.9220    3.5300 C.ar  164  PHE164     -0.0200
     82  CD1      -15.7170   -9.6280    4.6910 C.ar  164  PHE164     -0.0042
     83  CD2      -16.5200   -9.6260    2.4380 C.ar  164  PHE164     -0.0042
     84  CE1      -15.8930  -11.0050    4.7540 C.ar  164  PHE164     -0.0003
     85  CE2      -16.6920  -11.0010    2.4980 C.ar  164  PHE164     -0.0003
     86  CZ       -16.3770  -11.6910    3.6550 C.ar  164  PHE164     -0.0000
     87  N        -12.8950   -8.2710    2.0550 N.am  165  GLY165     -0.1940
     88  CA       -12.0510   -8.5480    0.8910 C.3   165  GLY165      0.2014
     89  C        -10.5890   -8.2460    1.1710 C.2   165  GLY165      0.2639
     90  O         -9.7060   -8.8270    0.5370 O.2   165  GLY165     -0.2714
     91  N        -10.3370   -7.3420    2.1210 N.am  166  GLU166     -0.1963
     92  CA        -8.9780   -6.9410    2.4920 C.3   166  GLU166      0.1733
     93  C         -8.5220   -7.6990    3.7220 C.2   166  GLU166      0.2617
     94  O         -9.3390   -8.1020    4.5420 O.2   166  GLU166     -0.2715
     95  CB        -8.9240   -5.4320    2.7640 C.3   166  GLU166      0.0429
     96  CG        -9.1270   -4.5790    1.5250 C.3   166  GLU166      0.1163
     97  CD        -9.0550   -3.0900    1.8030 C.2   166  GLU166      0.3649
     98  OE1       -9.7910   -2.5930    2.6870 O.co2 166  GLU166     -0.2457
     99  OE2       -8.2750   -2.4070    1.1110 O.co2 166  GLU166     -0.2457
    100  N         -7.2100   -7.9040    3.8360 N.am  167  SER167     -0.1936
    101  CA        -6.6290   -8.5310    5.0230 C.3   167  SER167      0.2055
    102  C         -6.3990   -7.4820    6.0930 C.2   167  SER167      0.2642
    103  O         -6.3780   -6.3000    5.7920 O.2   167  SER167     -0.2714
    104  CB        -5.3130   -9.2130    4.6690 C.3   167  SER167      0.2130
    105  OG        -4.3940   -8.2710    4.1600 O.3   167  SER167     -0.2179
    106  N         -6.2510   -7.9140    7.3430 N.am  168  LEU168     -0.1977
    107  CA        -5.8880   -6.9840    8.4000 C.3   168  LEU168      0.1596
    108  C         -4.4920   -6.4490    8.0970 C.2   168  LEU168      0.2287
    109  O         -3.7430   -7.0970    7.3800 O.2   168  LEU168     -0.2864
    110  CB        -5.9830   -7.6150    9.7980 C.3   168  LEU168      0.0297
    111  CG        -7.4190   -7.5810   10.3870 C.3   168  LEU168      0.0022
    112  CD1       -8.3650   -8.4600    9.6100 C.3   168  LEU168      0.0001
    113  CD2       -7.4270   -8.0180   11.8450 C.3   168  LEU168      0.0001
    114  N         -0.3350   -8.4060   12.8520 N.3   173  PHE173     -0.1241
    115  CA         0.3150   -9.7030   13.0790 C.3   173  PHE173      0.1605
    116  C          1.7300   -9.5220   13.6680 C.2   173  PHE173      0.2264
    117  O          2.1650  -10.2690   14.5620 O.2   173  PHE173     -0.2867
    118  CB         0.2740  -10.5810   11.7970 C.3   173  PHE173      0.0534
    119  CG        -1.1150  -10.7260   11.2190 C.ar  173  PHE173     -0.0203
    120  CD1       -1.9730  -11.7030   11.7020 C.ar  173  PHE173     -0.0042
    121  CD2       -1.5850   -9.8430   10.2510 C.ar  173  PHE173     -0.0042
    122  CE1       -3.2490  -11.8260   11.1990 C.ar  173  PHE173     -0.0003
    123  CE2       -2.8710   -9.9550    9.7550 C.ar  173  PHE173     -0.0003
    124  CZ        -3.7000  -10.9450   10.2350 C.ar  173  PHE173     -0.0000
    125  N        -16.6500  -11.1750   18.7190 N.3   194  GLN194     -0.1231
    126  CA       -17.4080  -11.8650   17.6750 C.3   194  GLN194      0.1698
    127  C        -16.6680  -11.8390   16.3110 C.2   194  GLN194      0.2592
    128  O        -16.9540  -12.6470   15.4330 O.2   194  GLN194     -0.2718
    129  CB       -18.8540  -11.2920   17.6030 C.3   194  GLN194      0.0381
    130  CG       -19.8660  -12.0790   18.4530 C.3   194  GLN194      0.0905
    131  CD       -21.1080  -11.2970   18.8760 C.2   194  GLN194      0.2608
    132  OE1      -21.3760  -10.2020   18.3900 O.2   194  GLN194     -0.2717
    133  NE2      -21.8750  -11.8760   19.7960 N.am  194  GLN194     -0.0878
    134  N        -15.6930  -10.9380   16.1470 N.am  195  VAL195     -0.1966
    135  CA       -14.9710  -10.7620   14.8630 C.3   195  VAL195      0.1727
    136  C        -13.5600  -11.3740   14.9100 C.2   195  VAL195      0.2616
    137  O        -12.7730  -11.1130   15.8600 O.2   195  VAL195     -0.2715
    138  CB       -14.8270   -9.2640   14.4880 C.3   195  VAL195      0.0290
    139  CG1      -14.5120   -9.1100   13.0100 C.3   195  VAL195      0.0023
    140  CG2      -16.0930   -8.4840   14.8320 C.3   195  VAL195      0.0023
    141  N        -13.2200  -12.1720   13.8920 N.am  196  GLN196     -0.1964
    142  CA       -11.8410  -12.7400   13.7480 C.3   196  GLN196      0.1718
    143  C        -11.0310  -12.0190   12.6580 C.2   196  GLN196      0.2458
    144  O        -11.5880  -11.4820   11.7120 O.2   196  GLN196     -0.2730
    145  CB       -11.9270  -14.2300   13.3810 C.3   196  GLN196      0.0407
    146  CG       -12.5910  -15.1060   14.4260 C.3   196  GLN196      0.0908
    147  CD       -11.6600  -15.5120   15.5410 C.2   196  GLN196      0.2608
    148  OE1      -10.5170  -15.0620   15.5940 O.2   196  GLN196     -0.2717
    149  NE2      -12.1500  -16.3410   16.4580 N.am  196  GLN196     -0.0878
    150  N         -9.6950  -12.0370   12.7380 N.am  197  PRO197     -0.2727
    151  CA        -8.8670  -12.7190   13.7520 C.3   197  PRO197      0.1402
    152  C         -8.6780  -11.9690   15.0720 C.2   197  PRO197      0.2269
    153  O         -7.9880  -12.4770   15.9730 O.2   197  PRO197     -0.2865
    154  CB        -7.5270  -12.8720   13.0380 C.3   197  PRO197      0.0296
    155  CG        -7.4420  -11.6730   12.1570 C.3   197  PRO197      0.0237
    156  CD        -8.8560  -11.4580   11.6580 C.3   197  PRO197      0.0939
@<TRIPOS>BOND
     1    90    89    2
     2    88    89    1
     3    88    87    1
     4    99    97   ar
     5    79    78    2
     6    89    91   am
     7    74    72   ar
     8    74    75   ar
     9    96    97    1
    10    96    95    1
    11    72    70   ar
    12    97    98   ar
    13    75    73   ar
    14    87    78   am
    15    78    77    1
    16    91    92    1
    17    70    69    1
    18    70    71   ar
    19    83    85   ar
    20    83    81   ar
    21    92    95    1
    22    92    93    1
    23    69    66    1
    24    85    86   ar
    25    73    71   ar
    26    77    80    1
    27    77    76    1
    28    80    81    1
    29    81    82   ar
    30    86    84   ar
    31    93   100   am
    32    93    94    2
    33    76    67   am
    34   100   101    1
    35    67    68    2
    36    67    66    1
    37    66    65    1
    38   105   104    1
    39    65    60   am
    40   104   101    1
    41    82    84   ar
    42   101   102    1
    43    53    52    2
    44   103   102    2
    45    60    59    1
    46    60    61    2
    47    55    57    1
    48    55    54    1
    49   102   106   am
    50    50    51    1
    51    52    51    1
    52    52    58   am
    53    59    58    1
    54    59    62    1
    55    63    62    1
    56    51    54    1
    57    54    56    1
    58   106   107    1
    59   109   108    2
    60    62    64    1
    61   108   107    1
    62   107   110    1
    63   112   111    1
    64   123   124   ar
    65   123   121   ar
    66   110   111    1
    67    43    42    2
    68   124   122   ar
    69   121   119   ar
    70   111   113    1
    71    39    37    1
    72    42    41    1
    73     9     7   ar
    74     9    11   ar
    75     7     6   ar
    76    11    10   ar
    77   122   120   ar
    78   119   120   ar
    79   119   118    1
    80    41    44    1
    81    41    40    1
    82    38    36    1
    83     6     5    1
    84     6     8   ar
    85   156   155    1
    86   156   150    1
    87   144   143    2
    88    10     8   ar
    89    37    36    1
    90   118   115    1
    91    36    33    1
    92     4     3    2
    93     5     2    1
    94    22    20    1
    95    44    45    1
    96   155   154    1
    97    35    34    2
    98    47    45   ar
    99    47    49   ar
   100    45    46   ar
   101   143   150   am
   102   143   142    1
   103   150   151    1
   104    19    20    2
   105    19    18    1
   106   114   115    1
   107     3     2    1
   108     3    12   am
   109    20    21    1
   110   139   138    1
   111   154   151    1
   112   115   116    1
   113     2     1    1
   114    33    34    1
   115    33    32    1
   116    49    48   ar
   117   145   142    1
   118   145   146    1
   119    46    48   ar
   120    17    18    1
   121    17    16    1
   122   116   117    2
   123    13    12    1
   124    13    16    1
   125    13    14    1
   126   142   141    1
   127   151   152    1
   128   141   136   am
   129    15    14    2
   130   146   147    1
   131   138   140    1
   132   138   135    1
   133    26    25    2
   134   135   136    1
   135   135   134    1
   136   136   137    2
   137   152   153    2
   138   128   127    2
   139   147   148    2
   140   147   149   am
   141    25    24    1
   142   134   127   am
   143   127   126    1
   144    24    27    1
   145    24    23    1
   146    27    28    1
   147    28    29    1
   148    30    29    2
   149   129   126    1
   150   129   130    1
   151   126   125    1
   152    29    31   am
   153   132   131    2
   154   130   131    1
   155   131   133   am
