@<TRIPOS>MOLECULE
tmp/4rmiA01.pdb
 197 195 0 0 0
SMALL
GASTEIGER

@<TRIPOS>ATOM
      1  N        -21.1870    7.3450   19.2510 N.3    38  ILE38      -0.1231
      2  CA       -20.8940    6.6490   18.0130 C.3    38  ILE38       0.1678
      3  C        -21.4780    5.2490   18.1220 C.2    38  ILE38       0.2434
      4  O        -21.0020    4.4520   18.9390 O.2    38  ILE38      -0.2733
      5  CB       -19.3980    6.6890   17.7120 C.3    38  ILE38       0.0265
      6  CG1      -19.0160    8.1800   17.5910 C.3    38  ILE38       0.0019
      7  CG2      -19.0960    5.8920   16.4400 C.3    38  ILE38       0.0020
      8  CD1      -17.5350    8.4630   17.4510 C.3    38  ILE38       0.0001
      9  N        -22.5670    4.9710   17.3740 N.am   39  PRO39      -0.2729
     10  CA       -23.1360    3.6250   17.4410 C.3    39  PRO39       0.1401
     11  C        -22.3490    2.5280   16.7190 C.2    39  PRO39       0.2269
     12  O        -21.7280    2.7670   15.6840 O.2    39  PRO39      -0.2865
     13  CB       -24.5130    3.7980   16.7830 C.3    39  PRO39       0.0296
     14  CG       -24.8680    5.2100   17.0740 C.3    39  PRO39       0.0237
     15  CD       -23.5700    5.9360   16.8710 C.3    39  PRO39       0.0939
     16  N        -21.7900   -0.1730   14.3820 N.3    41  PHE41      -0.1227
     17  CA       -22.4390   -0.3870   13.0870 C.3    41  PHE41       0.1736
     18  C        -22.8860   -1.8310   12.8580 C.2    41  PHE41       0.2595
     19  O        -23.5950   -2.1110   11.8860 O.2    41  PHE41      -0.2718
     20  CB       -21.5550    0.0980   11.9260 C.3    41  PHE41       0.0547
     21  CG       -20.3560   -0.7710   11.6450 C.ar   41  PHE41      -0.0202
     22  CD1      -20.4890   -1.9680   10.9520 C.ar   41  PHE41      -0.0042
     23  CD2      -19.0870   -0.3760   12.0470 C.ar   41  PHE41      -0.0042
     24  CE1      -19.3900   -2.7660   10.6900 C.ar   41  PHE41      -0.0003
     25  CE2      -17.9760   -1.1670   11.7750 C.ar   41  PHE41      -0.0003
     26  CZ       -18.1330   -2.3630   11.0950 C.ar   41  PHE41      -0.0000
     27  N        -22.4760   -2.7390   13.7430 N.am   42  ARG42      -0.1980
     28  CA       -22.9660   -4.1160   13.7240 C.3    42  ARG42       0.1597
     29  C        -24.2840   -4.2680   14.5040 C.2    42  ARG42       0.2287
     30  O        -25.2880   -4.7440   13.9490 O.2    42  ARG42      -0.2864
     31  CB       -21.8810   -5.0550   14.2520 C.3    42  ARG42       0.0334
     32  CG       -20.5910   -4.9290   13.4560 C.3    42  ARG42       0.0492
     33  CD       -19.5860   -6.0220   13.7550 C.3    42  ARG42       0.2205
     34  NE       -18.4620   -5.9780   12.8180 N.pl3  42  ARG42      -0.0865
     35  CZ       -17.4370   -5.1240   12.8690 C.cat  42  ARG42       0.5346
     36  NH1      -17.3470   -4.2030   13.8240 N.pl3  42  ARG42       0.1354
     37  NH2      -16.4830   -5.1870   11.9440 N.pl3  42  ARG42       0.1354
     38  N        -19.6020   -2.6700    2.0370 N.3    48  PHE48      -0.1241
     39  CA       -18.4880   -3.2050    2.8120 C.3    48  PHE48       0.1605
     40  C        -17.3870   -3.8450    1.9650 C.2    48  PHE48       0.2264
     41  O        -16.2660   -4.0450    2.4490 O.2    48  PHE48      -0.2867
     42  CB       -18.9920   -4.2490    3.8140 C.3    48  PHE48       0.0534
     43  CG       -20.0320   -3.7310    4.7620 C.ar   48  PHE48      -0.0203
     44  CD1      -19.6660   -3.1540    5.9700 C.ar   48  PHE48      -0.0042
     45  CD2      -21.3820   -3.8310    4.4520 C.ar   48  PHE48      -0.0042
     46  CE1      -20.6240   -2.6790    6.8490 C.ar   48  PHE48      -0.0003
     47  CE2      -22.3460   -3.3580    5.3280 C.ar   48  PHE48      -0.0003
     48  CZ       -21.9630   -2.7820    6.5300 C.ar   48  PHE48      -0.0000
     49  N        -20.7260    3.8870   -0.5400 N.3    60  PHE60      -0.1241
     50  CA       -19.9290    3.9290    0.6760 C.3    60  PHE60       0.1605
     51  C        -19.8120    5.3840    1.1560 C.2    60  PHE60       0.2264
     52  O        -19.9780    5.6710    2.3380 O.2    60  PHE60      -0.2867
     53  CB       -18.5390    3.3380    0.4730 C.3    60  PHE60       0.0534
     54  CG       -17.6290    3.6170    1.6260 C.ar   60  PHE60      -0.0203
     55  CD1      -17.6650    2.8320    2.7680 C.ar   60  PHE60      -0.0042
     56  CD2      -16.8030    4.7180    1.5980 C.ar   60  PHE60      -0.0042
     57  CE1      -16.8320    3.1090    3.8540 C.ar   60  PHE60      -0.0003
     58  CE2      -15.9770    5.0040    2.6730 C.ar   60  PHE60      -0.0003
     59  CZ       -15.9990    4.2050    3.7970 C.ar   60  PHE60      -0.0000
     60  N        -23.0460    6.5840    2.5930 N.3    63  LEU63      -0.1231
     61  CA       -23.2050    5.9690    3.9180 C.3    63  LEU63       0.1693
     62  C        -22.2740    6.5990    4.9440 C.2    63  LEU63       0.2591
     63  O        -22.6930    6.8920    6.0700 O.2    63  LEU63      -0.2718
     64  CB       -22.9570    4.4660    3.8440 C.3    63  LEU63       0.0284
     65  CG       -22.9420    3.7290    5.1800 C.3    63  LEU63       0.0019
     66  CD1      -24.3420    3.7120    5.7860 C.3    63  LEU63       0.0001
     67  CD2      -22.4040    2.3190    4.9770 C.3    63  LEU63       0.0001
     68  N        -21.0060    6.7720    4.5610 N.am   64  ALA64      -0.1980
     69  CA       -20.0350    7.5630    5.3340 C.3    64  ALA64       0.1597
     70  C        -20.5870    8.9300    5.7640 C.2    64  ALA64       0.2287
     71  O        -20.4400    9.3290    6.9200 O.2    64  ALA64      -0.2864
     72  CB       -18.7490    7.7650    4.5250 C.3    64  ALA64       0.0319
     73  N        -23.2630    8.4800    8.4980 N.3    67  LEU67      -0.1231
     74  CA       -22.8040    8.0030    9.8090 C.3    67  LEU67       0.1693
     75  C        -21.7030    8.8660   10.4430 C.2    67  LEU67       0.2592
     76  O        -21.2190    8.5410   11.5320 O.2    67  LEU67      -0.2718
     77  CB       -22.3270    6.5510    9.6840 C.3    67  LEU67       0.0284
     78  CG       -23.3070    5.5650    9.0340 C.3    67  LEU67       0.0019
     79  CD1      -22.7130    4.1710    9.0890 C.3    67  LEU67       0.0001
     80  CD2      -24.6610    5.5790    9.7150 C.3    67  LEU67       0.0001
     81  N        -21.3290    9.9700    9.7960 N.am   68  TYR68      -0.1963
     82  CA       -20.1900   10.7800   10.2290 C.3    68  TYR68       0.1756
     83  C        -20.4830   11.4090   11.5840 C.2    68  TYR68       0.2461
     84  O        -21.4390   12.1910   11.6910 O.2    68  TYR68      -0.2730
     85  CB       -19.8490   11.8810    9.2190 C.3    68  TYR68       0.0574
     86  CG       -18.3980   12.2970    9.3000 C.ar   68  TYR68      -0.0198
     87  CD1      -17.9390   13.1220   10.3300 C.ar   68  TYR68      -0.0009
     88  CD2      -17.4670   11.8150    8.3900 C.ar   68  TYR68      -0.0009
     89  CE1      -16.6130   13.5030   10.4190 C.ar   68  TYR68       0.0417
     90  CE2      -16.1360   12.1950    8.4630 C.ar   68  TYR68       0.0417
     91  CZ       -15.7050   13.0150    9.4860 C.ar   68  TYR68       0.1957
     92  OH       -14.3760   13.3410    9.5280 O.3    68  TYR68      -0.2866
     93  N        -19.6900   11.0550   12.6250 N.am   69  PRO69      -0.2727
     94  CA       -20.0670   11.5110   13.9700 C.3    69  PRO69       0.1402
     95  C        -20.1610   13.0090   14.0540 C.2    69  PRO69       0.2269
     96  O        -19.4130   13.6990   13.3820 O.2    69  PRO69      -0.2865
     97  CB       -18.9090   10.9910   14.8420 C.3    69  PRO69       0.0296
     98  CG       -18.4960    9.7390   14.1480 C.3    69  PRO69       0.0237
     99  CD       -18.5700   10.0940   12.6920 C.3    69  PRO69       0.0939
    100  N        -16.2070   14.4920   18.0960 N.3    72  PHE72      -0.1241
    101  CA       -15.2190   13.4660   18.4450 C.3    72  PHE72       0.1605
    102  C        -14.6510   13.7180   19.8440 C.2    72  PHE72       0.2264
    103  O        -13.6040   14.3500   20.0350 O.2    72  PHE72      -0.2867
    104  CB       -14.1430   13.4550   17.4100 C.3    72  PHE72       0.0534
    105  CG       -14.5900   12.9100   16.0930 C.ar   72  PHE72      -0.0203
    106  CD1      -14.5210   11.5530   15.8060 C.ar   72  PHE72      -0.0042
    107  CD2      -15.1180   13.7590   15.1410 C.ar   72  PHE72      -0.0042
    108  CE1      -14.9400   11.0780   14.5690 C.ar   72  PHE72      -0.0003
    109  CE2      -15.5330   13.2890   13.9180 C.ar   72  PHE72      -0.0003
    110  CZ       -15.4530   11.9480   13.6260 C.ar   72  PHE72      -0.0000
    111  N        -12.7510    2.3710   14.3260 N.3    98  ILE98      -0.1231
    112  CA       -12.2860    3.1820   13.2100 C.3    98  ILE98       0.1692
    113  C        -12.4810    4.6740   13.4130 C.2    98  ILE98       0.2592
    114  O        -12.1410    5.4700   12.5370 O.2    98  ILE98      -0.2718
    115  CB       -12.8920    2.7240   11.8520 C.3    98  ILE98       0.0266
    116  CG1      -14.4010    3.0100   11.7930 C.3    98  ILE98       0.0019
    117  CG2      -12.5400    1.2610   11.5830 C.3    98  ILE98       0.0020
    118  CD1      -15.1480    2.3960   10.6150 C.3    98  ILE98       0.0001
    119  N        -12.9210    5.0600   14.6100 N.am   99  ASP99      -0.1960
    120  CA       -13.4410    6.4290   14.9110 C.3    99  ASP99       0.1840
    121  C        -12.3850    7.4490   15.3010 C.2    99  ASP99       0.2622
    122  O        -12.7160    8.6300   15.4640 O.2    99  ASP99      -0.2715
    123  CB       -14.5310    6.3640   16.0380 C.3    99  ASP99       0.1450
    124  CG       -14.0870    5.5950   17.3020 C.2    99  ASP99       0.3671
    125  OD1      -12.9270    5.7140   17.7340 O.co2  99  ASP99      -0.2456
    126  OD2      -14.9440    4.8820   17.8990 O.co2  99  ASP99      -0.2456
    127  N        -11.1340    7.0110   15.4590 N.am  100  THR100     -0.1951
    128  CA        -9.9450    7.8350   15.8420 C.3   100  THR100      0.1897
    129  C         -9.9290    8.3240   17.2960 C.2   100  THR100      0.2313
    130  O         -9.0120    9.0650   17.6890 O.2   100  THR100     -0.2863
    131  CB        -9.7160    9.0430   14.9130 C.3   100  THR100      0.1794
    132  OG1      -10.6360   10.1210   15.2200 O.3   100  THR100     -0.2208
    133  CG2       -9.8080    8.6210   13.4380 C.3   100  THR100      0.0378
    134  N        -10.1840    5.8270    9.9430 N.3   119  PHE119     -0.1241
    135  CA       -10.4630    6.9700    9.1060 C.3   119  PHE119      0.1605
    136  C         -9.3880    8.0330    9.2030 C.2   119  PHE119      0.2264
    137  O         -9.3860    8.9380    8.4340 O.2   119  PHE119     -0.2867
    138  CB       -11.8100    7.5960    9.4610 C.3   119  PHE119      0.0534
    139  CG       -12.9690    7.0050    8.7200 C.ar  119  PHE119     -0.0203
    140  CD1      -13.2860    7.4100    7.4180 C.ar  119  PHE119     -0.0042
    141  CD2      -13.7580    6.0530    9.3190 C.ar  119  PHE119     -0.0042
    142  CE1      -14.3850    6.8610    6.7580 C.ar  119  PHE119     -0.0003
    143  CE2      -14.8450    5.4850    8.6700 C.ar  119  PHE119     -0.0003
    144  CZ       -15.1650    5.8920    7.3750 C.ar  119  PHE119     -0.0000
    145  N         -7.7720   13.3150    7.4510 N.3   135  LEU135     -0.1245
    146  CA        -9.2300   13.1980    7.5890 C.3   135  LEU135      0.1561
    147  C         -9.8940   14.5000    7.2160 C.2   135  LEU135      0.2260
    148  O        -10.9900   14.4920    6.7000 O.2   135  LEU135     -0.2867
    149  CB        -9.6350   12.7780    9.0280 C.3   135  LEU135      0.0270
    150  CG       -11.1210   12.5380    9.3080 C.3   135  LEU135      0.0019
    151  CD1      -11.7910   11.6200    8.2990 C.3   135  LEU135      0.0001
    152  CD2      -11.2820   11.9920   10.7280 C.3   135  LEU135      0.0001
    153  N        -16.3900   13.9830    1.7450 N.3   142  ILE142     -0.1245
    154  CA       -17.5970   13.2790    2.1560 C.3   142  ILE142      0.1561
    155  C        -18.7600   14.2730    2.3060 C.2   142  ILE142      0.2260
    156  O        -19.8540   14.0170    1.8160 O.2   142  ILE142     -0.2867
    157  CB       -17.3830   12.4690    3.4680 C.3   142  ILE142      0.0252
    158  CG1      -16.4580   11.2700    3.2060 C.3   142  ILE142      0.0019
    159  CG2      -18.7110   11.9570    4.0310 C.3   142  ILE142      0.0019
    160  CD1      -15.8080   10.6970    4.4550 C.3   142  ILE142      0.0001
    161  N         -9.5800    2.1540    6.2870 N.3   161  ILE161     -0.1231
    162  CA       -10.2920    1.1520    7.0400 C.3   161  ILE161      0.1692
    163  C        -10.2100   -0.1630    6.3060 C.2   161  ILE161      0.2592
    164  O        -10.0600   -0.1920    5.0850 O.2   161  ILE161     -0.2718
    165  CB       -11.7750    1.5430    7.2990 C.3   161  ILE161      0.0266
    166  CG1      -12.5970    1.6250    6.0180 C.3   161  ILE161      0.0019
    167  CG2      -11.7810    2.8440    8.0600 C.3   161  ILE161      0.0020
    168  CD1      -14.0990    1.7430    6.2480 C.3   161  ILE161      0.0001
    169  N        -10.2730   -1.2490    7.0490 N.am  162  VAL162     -0.1966
    170  CA       -10.2570   -2.5750    6.4440 C.3   162  VAL162      0.1727
    171  C        -11.6780   -2.9160    5.9320 C.2   162  VAL162      0.2616
    172  O        -12.5580   -3.1120    6.7480 O.2   162  VAL162     -0.2715
    173  CB        -9.7740   -3.6080    7.4640 C.3   162  VAL162      0.0290
    174  CG1       -9.8440   -5.0160    6.8880 C.3   162  VAL162      0.0023
    175  CG2       -8.3310   -3.2920    7.8850 C.3   162  VAL162      0.0023
    176  N        -11.8640   -2.9210    4.6020 N.am  163  PHE163     -0.1960
    177  CA       -13.1050   -3.3940    3.9370 C.3   163  PHE163      0.1771
    178  C        -13.0840   -4.9120    3.8520 C.2   163  PHE163      0.2619
    179  O        -12.0060   -5.5110    3.8580 O.2   163  PHE163     -0.2715
    180  CB       -13.2010   -2.9000    2.4940 C.3   163  PHE163      0.0574
    181  CG       -13.6900   -1.4840    2.3380 C.ar  163  PHE163     -0.0200
    182  CD1      -12.9840   -0.4180    2.8760 C.ar  163  PHE163     -0.0042
    183  CD2      -14.8290   -1.2120    1.5850 C.ar  163  PHE163     -0.0042
    184  CE1      -13.4110    0.8770    2.6930 C.ar  163  PHE163     -0.0003
    185  CE2      -15.2630    0.0800    1.4040 C.ar  163  PHE163     -0.0003
    186  CZ       -14.5570    1.1290    1.9630 C.ar  163  PHE163     -0.0000
    187  N        -14.2670   -5.5250    3.7290 N.am  164  PHE164     -0.1974
    188  CA       -14.3770   -6.9670    3.4590 C.3   164  PHE164      0.1639
    189  C        -13.7370   -7.2390    2.1020 C.2   164  PHE164      0.2290
    190  O        -13.9850   -6.5060    1.1280 O.2   164  PHE164     -0.2864
    191  CB       -15.8440   -7.4250    3.4710 C.3   164  PHE164      0.0560
    192  CG       -16.0210   -8.9220    3.5300 C.ar  164  PHE164     -0.0200
    193  CD1      -15.7170   -9.6280    4.6910 C.ar  164  PHE164     -0.0042
    194  CD2      -16.5200   -9.6260    2.4380 C.ar  164  PHE164     -0.0042
    195  CE1      -15.8930  -11.0050    4.7540 C.ar  164  PHE164     -0.0003
    196  CE2      -16.6920  -11.0010    2.4980 C.ar  164  PHE164     -0.0003
    197  CZ       -16.3770  -11.6910    3.6550 C.ar  164  PHE164     -0.0000
@<TRIPOS>BOND
     1    49    50    1
     2    53    50    1
     3    53    54    1
     4    50    51    1
     5   190   189    2
     6    51    52    2
     7   185   183   ar
     8   185   186   ar
     9   183   181   ar
    10    56    54   ar
    11    56    58   ar
    12    54    55   ar
    13   153   154    1
    14   156   155    2
    15   186   184   ar
    16    40    41    2
    17    40    39    1
    18    38    39    1
    19   189   188    1
    20   154   155    1
    21   154   157    1
    22   181   180    1
    23   181   182   ar
    24   194   196   ar
    25   194   192   ar
    26   180   177    1
    27   196   197   ar
    28    60    61    1
    29    58    59   ar
    30   184   182   ar
    31    55    57   ar
    32    39    42    1
    33   158   157    1
    34   158   160    1
    35   188   191    1
    36   188   187    1
    37   157   159    1
    38   191   192    1
    39   192   193   ar
    40   197   195   ar
    41   187   178   am
    42    59    57   ar
    43    42    43    1
    44    64    61    1
    45    64    65    1
    46   178   179    2
    47   178   177    1
    48    61    62    1
    49   177   176    1
    50    45    43   ar
    51    45    47   ar
    52    72    69    1
    53    68    62   am
    54    68    69    1
    55   176   171   am
    56   193   195   ar
    57    43    44   ar
    58    62    63    2
    59    67    65    1
    60   164   163    2
    61    65    66    1
    62    47    48   ar
    63    69    70    1
    64    70    71    2
    65   171   170    1
    66   171   172    2
    67    44    46   ar
    68   166   168    1
    69   166   165    1
    70   161   162    1
    71   163   162    1
    72   163   169   am
    73   170   169    1
    74   170   173    1
    75    48    46   ar
    76   148   147    2
    77   142   144   ar
    78   142   140   ar
    79   174   173    1
    80   162   165    1
    81   147   146    1
    82   165   167    1
    83   144   143   ar
    84   140   139   ar
    85   145   146    1
    86   173   175    1
    87   146   149    1
    88   151   150    1
    89    88    90   ar
    90    88    86   ar
    91   137   136    2
    92    90    91   ar
    93    73    74    1
    94   143   141   ar
    95   139   141   ar
    96   139   138    1
    97   149   150    1
    98    78    79    1
    99    78    77    1
   100    78    80    1
   101   135   136    1
   102   135   138    1
   103   135   134    1
   104    85    86    1
   105    85    82    1
   106    86    87   ar
   107   150   152    1
   108    91    92    1
   109    91    89   ar
   110    77    74    1
   111    81    82    1
   112    81    75   am
   113    74    75    1
   114    82    83    1
   115    87    89   ar
   116    75    76    2
   117   118   116    1
   118    24    22   ar
   119    24    26   ar
   120    22    21   ar
   121    26    25   ar
   122   117   115    1
   123    83    84    2
   124    83    93   am
   125    21    20    1
   126    21    23   ar
   127    25    23   ar
   128   116   115    1
   129   115   112    1
   130    19    18    2
   131    20    17    1
   132    37    35    1
   133   114   113    2
   134    93    99    1
   135    93    94    1
   136    99    98    1
   137    34    35    2
   138    34    33    1
   139    18    17    1
   140    18    27   am
   141    35    36    1
   142    17    16    1
   143   112   113    1
   144   112   111    1
   145    96    95    2
   146   113   119   am
   147   133   131    1
   148    32    33    1
   149    32    31    1
   150   110   109   ar
   151   110   108   ar
   152    28    27    1
   153    28    31    1
   154    28    29    1
   155   109   107   ar
   156    30    29    2
   157    94    95    1
   158    94    97    1
   159    98    97    1
   160   108   106   ar
   161   119   120    1
   162   120   121    1
   163   120   123    1
   164   131   132    1
   165   131   128    1
   166   107   105   ar
   167   121   127   am
   168   121   122    2
   169   127   128    1
   170    12    11    2
   171   106   105   ar
   172   128   129    1
   173   123   124    1
   174   105   104    1
   175     7     5    1
   176    11    10    1
   177    13    14    1
   178    13    10    1
   179    15    14    1
   180    15     9    1
   181   129   130    2
   182   124   125   ar
   183   124   126   ar
   184     9    10    1
   185     9     3   am
   186   104   101    1
   187     8     6    1
   188     6     5    1
   189     5     2    1
   190     2     3    1
   191     2     1    1
   192   100   101    1
   193     3     4    2
   194   101   102    1
   195   102   103    2
