@<TRIPOS>MOLECULE
tmp/4rmjA01.pdb
 96 92 0 0 0
SMALL
GASTEIGER

@<TRIPOS>ATOM
      1  N          7.4730  -12.0780  -24.0740 N.3    31  ALA31      -0.1245
      2  CA         8.0430  -11.0180  -23.2520 C.3    31  ALA31       0.1562
      3  C          7.0110  -10.2000  -22.5200 C.2    31  ALA31       0.2260
      4  O          7.3340   -9.5060  -21.5790 O.2    31  ALA31      -0.2867
      5  CB         8.8840  -10.1360  -24.1420 C.3    31  ALA31       0.0290
      6  N          6.6310  -10.6220  -18.7190 N.3    34  SER34      -0.1217
      7  CA         7.6530  -10.1100  -17.8050 C.3    34  SER34       0.1889
      8  C          7.7170   -8.5780  -17.7500 C.2    34  SER34       0.2288
      9  O          8.5160   -8.0240  -16.9950 O.2    34  SER34      -0.2866
     10  CB         8.9940  -10.6650  -18.1850 C.3    34  SER34       0.2089
     11  OG         8.9970  -12.0890  -18.0020 O.3    34  SER34      -0.2183
     12  N         10.7490   -5.6760  -16.9350 N.3    39  ILE39      -0.1231
     13  CA        11.4990   -5.9800  -18.1370 C.3    39  ILE39       0.1678
     14  C         10.6800   -5.5340  -19.3680 C.2    39  ILE39       0.2434
     15  O          9.5770   -6.0650  -19.6100 O.2    39  ILE39      -0.2733
     16  CB        11.8180   -7.4950  -18.2340 C.3    39  ILE39       0.0265
     17  CG1       12.4060   -8.0090  -16.8970 C.3    39  ILE39       0.0019
     18  CG2       12.7360   -7.7540  -19.4100 C.3    39  ILE39       0.0020
     19  CD1       12.8350   -9.4570  -16.8940 C.3    39  ILE39       0.0001
     20  N         11.1680   -4.5220  -20.1310 N.am   40  PRO40      -0.2718
     21  CA        10.4220   -4.2070  -21.3670 C.3    40  PRO40       0.1535
     22  C         10.3440   -5.3680  -22.3580 C.2    40  PRO40       0.2599
     23  O         11.2270   -6.2400  -22.4090 O.2    40  PRO40      -0.2715
     24  CB        11.1850   -2.9930  -21.9410 C.3    40  PRO40       0.0310
     25  CG        11.6780   -2.2850  -20.7100 C.3    40  PRO40       0.0237
     26  CD        12.1320   -3.4530  -19.8140 C.3    40  PRO40       0.0939
     27  N          9.2660   -5.4080  -23.1230 N.am   41  ASP41      -0.1958
     28  CA         9.1450   -6.3580  -24.2210 C.3    41  ASP41       0.1840
     29  C          9.9830   -5.8910  -25.4300 C.2    41  ASP41       0.2622
     30  O         10.7760   -4.9190  -25.3310 O.2    41  ASP41      -0.2715
     31  CB         7.6570   -6.6590  -24.5930 C.3    41  ASP41       0.1450
     32  CG         6.9290   -5.4640  -25.2120 C.2    41  ASP41       0.3671
     33  OD1        7.6290   -4.5440  -25.6450 O.co2  41  ASP41      -0.2456
     34  OD2        5.6800   -5.4440  -25.2400 O.co2  41  ASP41      -0.2456
     35  N          9.8300   -6.5820  -26.5720 N.am   42  PHE42      -0.1974
     36  CA        10.5110   -6.1620  -27.7870 C.3    42  PHE42       0.1639
     37  C          9.7550   -5.1610  -28.6500 C.2    42  PHE42       0.2290
     38  O         10.3490   -4.1660  -29.0740 O.2    42  PHE42      -0.2864
     39  CB        10.9210   -7.3400  -28.5900 C.3    42  PHE42       0.0560
     40  CG        11.8430   -8.2490  -27.8620 C.ar   42  PHE42      -0.0200
     41  CD1       11.3400   -9.2620  -27.0570 C.ar   42  PHE42      -0.0042
     42  CD2       13.2120   -8.1650  -28.0590 C.ar   42  PHE42      -0.0042
     43  CE1       12.1950  -10.1520  -26.4060 C.ar   42  PHE42      -0.0003
     44  CE2       14.0780   -9.0470  -27.4180 C.ar   42  PHE42      -0.0003
     45  CZ        13.5640  -10.0590  -26.5950 C.ar   42  PHE42      -0.0000
     46  N         12.0320   -2.8150  -26.5300 N.3    49  LEU49      -0.1245
     47  CA        13.4590   -2.7630  -26.7850 C.3    49  LEU49       0.1561
     48  C         13.8030   -2.2840  -28.1960 C.2    49  LEU49       0.2260
     49  O         14.7450   -1.4930  -28.3820 O.2    49  LEU49      -0.2867
     50  CB        14.1030   -4.1450  -26.5180 C.3    49  LEU49       0.0270
     51  CG        15.6070   -4.2450  -26.7120 C.3    49  LEU49       0.0019
     52  CD1       16.3350   -3.2570  -25.8040 C.3    49  LEU49       0.0001
     53  CD2       16.1140   -5.6460  -26.4310 C.3    49  LEU49       0.0001
     54  N         20.1910   -8.8320  -32.5490 N.3    65  PHE65      -0.1241
     55  CA        20.0200  -10.2650  -32.2720 C.3    65  PHE65       0.1605
     56  C         20.0120  -11.1190  -33.5310 C.2    65  PHE65       0.2264
     57  O         19.3100  -12.1440  -33.5810 O.2    65  PHE65      -0.2867
     58  CB        18.7190  -10.5170  -31.5080 C.3    65  PHE65       0.0534
     59  CG        18.5970   -9.7230  -30.2460 C.ar   65  PHE65      -0.0203
     60  CD1       19.5990   -9.7960  -29.2730 C.ar   65  PHE65      -0.0042
     61  CD2       17.4780   -8.9130  -30.0120 C.ar   65  PHE65      -0.0042
     62  CE1       19.4920   -9.0630  -28.0970 C.ar   65  PHE65      -0.0003
     63  CE2       17.3620   -8.2000  -28.8310 C.ar   65  PHE65      -0.0003
     64  CZ        18.3700   -8.2660  -27.8750 C.ar   65  PHE65      -0.0000
     65  N         21.0090   -7.5410  -19.9340 N.3    84  LEU84      -0.1245
     66  CA        20.1530   -8.7230  -20.1720 C.3    84  LEU84       0.1561
     67  C         20.1940   -9.7950  -19.0800 C.2    84  LEU84       0.2260
     68  O         19.2550  -10.5940  -18.9950 O.2    84  LEU84      -0.2867
     69  CB        20.4930   -9.3870  -21.5250 C.3    84  LEU84       0.0270
     70  CG        20.1730   -8.6150  -22.8040 C.3    84  LEU84       0.0019
     71  CD1       20.2290   -9.5680  -23.9820 C.3    84  LEU84       0.0001
     72  CD2       18.8190   -7.9160  -22.7590 C.3    84  LEU84       0.0001
     73  N         11.2630  -16.2790  -23.7630 N.3   114  ASN114     -0.1225
     74  CA        12.0110  -15.3630  -22.9270 C.3   114  ASN114      0.1785
     75  C         13.3040  -16.0040  -22.4180 C.2   114  ASN114      0.2597
     76  O         13.4350  -17.2190  -22.3890 O.2   114  ASN114     -0.2718
     77  CB        11.1780  -14.9750  -21.7460 C.3   114  ASN114      0.1169
     78  CG         9.9170  -14.2200  -22.1220 C.2   114  ASN114      0.2627
     79  OD1        9.7590  -13.7430  -23.2290 O.2   114  ASN114     -0.2716
     80  ND2        9.0310  -14.1000  -21.1850 N.am  114  ASN114     -0.0877
     81  N         14.2620  -15.1530  -22.0790 N.am  115  ILE115     -0.1966
     82  CA        15.5640  -15.5850  -21.5380 C.3   115  ILE115      0.1727
     83  C         15.8510  -14.9980  -20.1300 C.2   115  ILE115      0.2616
     84  O         16.9670  -15.1390  -19.6040 O.2   115  ILE115     -0.2715
     85  CB        16.6970  -15.1670  -22.4810 C.3   115  ILE115      0.0290
     86  CG1       16.6660  -13.6560  -22.7120 C.3   115  ILE115      0.0022
     87  CG2       16.5900  -15.9150  -23.7870 C.3   115  ILE115      0.0023
     88  CD1       17.9710  -13.0860  -23.2020 C.3   115  ILE115      0.0001
     89  N         14.8400  -14.3670  -19.5280 N.am  116  ASP116     -0.1971
     90  CA        14.9360  -13.7510  -18.2240 C.3   116  ASP116      0.1709
     91  C         14.9420  -14.7570  -17.0500 C.2   116  ASP116      0.2293
     92  O         15.1920  -14.3660  -15.9170 O.2   116  ASP116     -0.2864
     93  CB        13.8180  -12.7170  -18.0580 C.3   116  ASP116      0.1436
     94  CG        12.3990  -13.3190  -18.1860 C.2   116  ASP116      0.3671
     95  OD1       12.1580  -14.5080  -17.8660 O.co2 116  ASP116     -0.2456
     96  OD2       11.4990  -12.5800  -18.5980 O.co2 116  ASP116     -0.2456
@<TRIPOS>BOND
     1    57    56    2
     2    56    55    1
     3    54    55    1
     4    55    58    1
     5    58    59    1
     6    59    61   ar
     7    59    60   ar
     8    61    63   ar
     9    60    62   ar
    10    38    37    2
    11    63    64   ar
    12    37    36    1
    13    39    40    1
    14    39    36    1
    15    49    48    2
    16    48    47    1
    17    62    64   ar
    18    42    40   ar
    19    42    44   ar
    20    40    41   ar
    21    36    35    1
    22    44    45   ar
    23    41    43   ar
    24    47    46    1
    25    47    50    1
    26    51    50    1
    27    51    53    1
    28    51    52    1
    29    45    43   ar
    30    35    29   am
    31    33    32   ar
    32    29    30    2
    33    29    28    1
    34    34    32   ar
    35    32    31    1
    36    31    28    1
    37    28    27    1
    38     5     2    1
    39     1     2    1
    40    71    70    1
    41    87    85    1
    42    73    74    1
    43     2     3    1
    44    79    78    2
    45    88    86    1
    46    27    22   am
    47    74    75    1
    48    74    77    1
    49    70    72    1
    50    70    69    1
    51    86    85    1
    52     3     4    2
    53    85    82    1
    54    75    76    2
    55    75    81   am
    56    23    22    2
    57    22    21    1
    58    78    77    1
    59    78    80   am
    60    81    82    1
    61    24    21    1
    62    24    25    1
    63    82    83    1
    64    69    66    1
    65    21    20    1
    66    25    26    1
    67    66    65    1
    68    66    67    1
    69    20    26    1
    70    20    14   am
    71    83    84    2
    72    83    89   am
    73    15    14    2
    74    89    90    1
    75    18    16    1
    76    14    13    1
    77    67    68    2
    78     6     7    1
    79    96    94   ar
    80    16    13    1
    81    16    17    1
    82    90    93    1
    83    90    91    1
    84    94    93    1
    85    94    95   ar
    86    10    11    1
    87    10     7    1
    88    13    12    1
    89     7     8    1
    90     8     9    2
    91    91    92    2
    92    17    19    1
