@<TRIPOS>MOLECULE
tmp/4rmlA00.pdb
 81 76 0 0 0
SMALL
GASTEIGER

@<TRIPOS>ATOM
      1  N        -38.4610  -25.9410  -11.1580 N.3    46  TYR46      -0.1241
      2  CA       -38.8760  -26.2070   -9.7840 C.3    46  TYR46       0.1605
      3  C        -38.8550  -27.6870   -9.4130 C.2    46  TYR46       0.2264
      4  O        -39.5510  -28.0920   -8.4870 O.2    46  TYR46      -0.2867
      5  CB       -40.2820  -25.6310   -9.5330 C.3    46  TYR46       0.0534
      6  CG       -40.3090  -24.1290   -9.5910 C.ar   46  TYR46      -0.0201
      7  CD1      -39.3560  -23.3760   -8.9060 C.ar   46  TYR46      -0.0009
      8  CD2      -41.2620  -23.4540  -10.3440 C.ar   46  TYR46      -0.0009
      9  CE1      -39.3550  -21.9920   -8.9600 C.ar   46  TYR46       0.0417
     10  CE2      -41.2710  -22.0650  -10.4010 C.ar   46  TYR46       0.0417
     11  CZ       -40.3120  -21.3410   -9.7080 C.ar   46  TYR46       0.1957
     12  OH       -40.3030  -19.9630   -9.7550 O.3    46  TYR46      -0.2866
     13  N        -31.7510  -23.8310   -7.6350 N.3    76  ASP76      -0.1225
     14  CA       -32.3530  -22.6740   -8.2810 C.3    76  ASP76       0.1805
     15  C        -31.7990  -22.5480   -9.6920 C.2    76  ASP76       0.2598
     16  O        -30.5890  -22.4220   -9.8820 O.2    76  ASP76      -0.2718
     17  CB       -32.0820  -21.3910   -7.4940 C.3    76  ASP76       0.1424
     18  CG       -33.0530  -20.2800   -7.8490 C.2    76  ASP76       0.3668
     19  OD1      -34.2280  -20.4010   -7.4550 O.co2  76  ASP76      -0.2456
     20  OD2      -32.6490  -19.2910   -8.5040 O.co2  76  ASP76      -0.2456
     21  N        -32.6800  -22.5780  -10.6820 N.am   77  GLY77      -0.1957
     22  CA       -32.2460  -22.3760  -12.0560 C.3    77  GLY77       0.1869
     23  C        -31.2130  -23.3850  -12.5290 C.2    77  GLY77       0.2309
     24  O        -31.1030  -24.4800  -11.9850 O.2    77  GLY77      -0.2863
     25  N        -34.8750  -20.8340   -4.5710 N.3    93  ARG93      -0.1245
     26  CA       -35.5810  -19.6880   -3.9830 C.3    93  ARG93       0.1563
     27  C        -35.0100  -19.2510   -2.6270 C.2    93  ARG93       0.2260
     28  O        -35.7560  -18.9870   -1.6760 O.2    93  ARG93      -0.2867
     29  CB       -37.0770  -20.0030   -3.8610 C.3    93  ARG93       0.0307
     30  CG       -37.8030  -19.9480   -5.2070 C.3    93  ARG93       0.0489
     31  CD       -39.2740  -20.3360   -5.1180 C.3    93  ARG93       0.2205
     32  NE       -39.4600  -21.7840   -5.0880 N.pl3  93  ARG93      -0.0865
     33  CZ       -40.4450  -22.4240   -5.7140 C.cat  93  ARG93       0.5346
     34  NH1      -41.3390  -21.7420   -6.4220 N.pl3  93  ARG93       0.1354
     35  NH2      -40.5380  -23.7470   -5.6300 N.pl3  93  ARG93       0.1354
     36  N        -35.6420  -14.8920   -5.5600 N.3   119  HIS119     -0.1226
     37  CA       -37.0700  -15.0960   -5.8040 C.3   119  HIS119      0.1752
     38  C        -37.7810  -13.7780   -6.1260 C.2   119  HIS119      0.2596
     39  O        -38.8180  -13.4590   -5.5380 O.2   119  HIS119     -0.2718
     40  CB       -37.7090  -15.7710   -4.5890 C.3   119  HIS119      0.0759
     41  CG       -39.0330  -16.4110   -4.8740 C.ar  119  HIS119      0.0818
     42  ND1      -39.4280  -16.7800   -6.1430 N.ar  119  HIS119     -0.2268
     43  CD2      -40.0540  -16.7480   -4.0500 C.ar  119  HIS119      0.1154
     44  CE1      -40.6350  -17.3160   -6.0880 C.ar  119  HIS119      0.1986
     45  NE2      -41.0360  -17.3100   -4.8290 N.ar  119  HIS119     -0.2212
     46  N        -37.2080  -13.0140   -7.0510 N.am  120  ASP120     -0.1960
     47  CA       -37.6710  -11.6530   -7.3200 C.3   120  ASP120      0.1840
     48  C        -37.8020  -11.3720   -8.8200 C.2   120  ASP120      0.2622
     49  O        -37.9230  -10.2230   -9.2430 O.2   120  ASP120     -0.2715
     50  CB       -36.7150  -10.6360   -6.6850 C.3   120  ASP120      0.1450
     51  CG       -35.3560  -10.6130   -7.3640 C.2   120  ASP120      0.3671
     52  OD1      -34.9060  -11.6890   -7.8130 O.co2 120  ASP120     -0.2456
     53  OD2      -34.7450   -9.5240   -7.4640 O.co2 120  ASP120     -0.2456
     54  N        -37.7630  -12.4310   -9.6180 N.am  121  THR121     -0.1951
     55  CA       -37.9120  -12.3220  -11.0630 C.3   121  THR121      0.1897
     56  C        -39.3300  -11.9070  -11.4480 C.2   121  THR121      0.2313
     57  O        -40.3050  -12.4190  -10.8940 O.2   121  THR121     -0.2863
     58  CB       -37.5500  -13.6640  -11.7500 C.3   121  THR121      0.1794
     59  OG1      -36.1450  -13.9210  -11.6030 O.3   121  THR121     -0.2208
     60  CG2      -37.9250  -13.6660  -13.2090 C.3   121  THR121      0.0378
     61  N        -37.7070  -18.5020  -16.2720 N.3   127  GLY127     -0.1225
     62  CA       -37.2360  -18.7560  -14.9190 C.3   127  GLY127      0.1811
     63  C        -36.0020  -19.6270  -14.7460 C.2   127  GLY127      0.2280
     64  O        -35.7220  -20.0930  -13.6410 O.2   127  GLY127     -0.2866
     65  N        -32.7850  -18.7940  -14.9900 N.3   129  LYS129     -0.1245
     66  CA       -31.5880  -18.1470  -14.4440 C.3   129  LYS129      0.1561
     67  C        -31.5590  -18.3050  -12.9240 C.2   129  LYS129      0.2260
     68  O        -32.5930  -18.1870  -12.2650 O.2   129  LYS129     -0.2867
     69  CB       -31.5370  -16.6630  -14.8240 C.3   129  LYS129      0.0271
     70  CG       -31.6120  -16.4050  -16.3280 C.3   129  LYS129      0.0035
     71  CD       -30.4820  -17.1110  -17.0610 C.3   129  LYS129      0.0206
     72  CE       -30.5080  -16.8180  -18.5540 C.3   129  LYS129      0.1093
     73  NZ       -29.4230  -17.5750  -19.2690 N.3   129  LYS129     -0.1314
     74  N        -30.6880  -17.2420   -9.0530 N.3   131  ASP131     -0.1239
     75  CA       -30.5730  -15.9730   -8.3370 C.3   131  ASP131      0.1674
     76  C        -29.1170  -15.6540   -8.0280 C.2   131  ASP131      0.2266
     77  O        -28.6760  -14.5010   -8.1170 O.2   131  ASP131     -0.2867
     78  CB       -31.3920  -16.0110   -7.0460 C.3   131  ASP131      0.1410
     79  CG       -32.8810  -15.9610   -7.3030 C.2   131  ASP131      0.3668
     80  OD1      -33.2820  -15.2400   -8.2460 O.co2 131  ASP131     -0.2456
     81  OD2      -33.6400  -16.6380   -6.5710 O.co2 131  ASP131     -0.2456
@<TRIPOS>BOND
     1    73    72    1
     2    72    71    1
     3    71    70    1
     4    70    69    1
     5    61    62    1
     6    65    66    1
     7    62    63    1
     8    69    66    1
     9    63    64    2
    10    66    67    1
    11    60    58    1
    12    67    68    2
    13    23    22    1
    14    23    24    2
    15    22    21    1
    16    58    59    1
    17    58    55    1
    18    56    55    1
    19    56    57    2
    20     1     2    1
    21    55    54    1
    22    21    15   am
    23    10     8   ar
    24    10    11   ar
    25     8     6   ar
    26    16    15    2
    27     2     5    1
    28     2     3    1
    29    12    11    1
    30    11     9   ar
    31    15    14    1
    32    54    48   am
    33     6     5    1
    34     6     7   ar
    35     3     4    2
    36    49    48    2
    37    74    75    1
    38     9     7   ar
    39    48    47    1
    40    20    18   ar
    41    75    76    1
    42    75    78    1
    43    14    13    1
    44    14    17    1
    45    80    79   ar
    46    77    76    2
    47    18    17    1
    48    18    19   ar
    49    52    51   ar
    50    53    51   ar
    51    51    50    1
    52    47    46    1
    53    47    50    1
    54    79    78    1
    55    79    81   ar
    56    46    38   am
    57    34    33    1
    58    42    44   ar
    59    42    41   ar
    60    38    37    1
    61    38    39    2
    62    44    45   ar
    63    37    36    1
    64    37    40    1
    65    33    35    1
    66    33    32    2
    67    30    31    1
    68    30    29    1
    69    31    32    1
    70    41    40    1
    71    41    43   ar
    72    45    43   ar
    73    25    26    1
    74    26    29    1
    75    26    27    1
    76    27    28    2
