@<TRIPOS>MOLECULE
tmp/4rmnB00.pdb
 90 86 0 0 0
SMALL
GASTEIGER

@<TRIPOS>ATOM
      1  N         25.6470    0.7620  -20.5820 N.3   222  ALA222     -0.1231
      2  CA        25.7410    1.7100  -19.4730 C.3   222  ALA222      0.1694
      3  C         25.2330    1.0970  -18.1720 C.2   222  ALA222      0.2592
      4  O         25.8790    1.1590  -17.1270 O.2   222  ALA222     -0.2718
      5  CB        25.0230    2.9780  -19.8140 C.3   222  ALA222      0.0304
      6  N         24.0820    0.4540  -18.2270 N.am  223  TYR223     -0.1976
      7  CA        23.5300   -0.2040  -17.0470 C.3   223  TYR223      0.1639
      8  C         24.5530   -1.2190  -16.4480 C.2   223  TYR223      0.2290
      9  O         24.8410   -1.1620  -15.2320 O.2   223  TYR223     -0.2864
     10  CB        22.2270   -0.9350  -17.4300 C.3   223  TYR223      0.0560
     11  CG        21.4380   -1.6090  -16.3320 C.ar  223  TYR223     -0.0198
     12  CD1       21.1800   -0.9940  -15.0980 C.ar  223  TYR223     -0.0009
     13  CD2       20.9080   -2.9030  -16.5520 C.ar  223  TYR223     -0.0009
     14  CE1       20.4480   -1.6520  -14.1240 C.ar  223  TYR223      0.0417
     15  CE2       20.1850   -3.5630  -15.6030 C.ar  223  TYR223      0.0417
     16  CZ        19.9190   -2.9260  -14.3890 C.ar  223  TYR223      0.1957
     17  OH        19.1600   -3.6080  -13.4410 O.3   223  TYR223     -0.2866
     18  N         16.3700   -2.7400  -15.1210 N.3   297  ALA297     -0.1231
     19  CA        16.2650   -1.5700  -15.9970 C.3   297  ALA297      0.1694
     20  C         16.2870   -2.0500  -17.4200 C.2   297  ALA297      0.2592
     21  O         16.5040   -3.2180  -17.6970 O.2   297  ALA297     -0.2718
     22  CB        17.4400   -0.5970  -15.7650 C.3   297  ALA297      0.0304
     23  N         16.1780   -1.1290  -18.3420 N.am  298  GLY298     -0.1957
     24  CA        16.3130   -1.5160  -19.7740 C.3   298  GLY298      0.1869
     25  C         14.9650   -1.5200  -20.5120 C.2   298  GLY298      0.2309
     26  O         14.9420   -1.4800  -21.7360 O.2   298  GLY298     -0.2863
     27  N         15.0510    3.6580  -14.2970 N.3   321  ILE321     -0.1231
     28  CA        15.4440    4.0070  -15.6470 C.3   321  ILE321      0.1692
     29  C         16.6710    4.9160  -15.6380 C.2   321  ILE321      0.2593
     30  O         16.7710    5.8950  -14.9310 O.2   321  ILE321     -0.2718
     31  CB        14.2630    4.5860  -16.4680 C.3   321  ILE321      0.0266
     32  CG1       14.6940    4.7450  -17.9290 C.3   321  ILE321      0.0019
     33  CG2       13.7080    5.8710  -15.8700 C.3   321  ILE321      0.0020
     34  CD1       13.5200    4.7680  -18.8530 C.3   321  ILE321      0.0001
     35  N         17.6040    4.5550  -16.5090 N.am  322  GLY322     -0.1942
     36  CA        18.7100    5.3670  -16.8390 C.3   322  GLY322      0.2014
     37  C         18.8160    5.5480  -18.3390 C.2   322  GLY322      0.2640
     38  O         17.8860    5.2350  -19.0890 O.2   322  GLY322     -0.2714
     39  N         19.9420    6.0980  -18.8130 N.am  323  SER323     -0.1935
     40  CA        20.1760    6.1910  -20.2980 C.3   323  SER323      0.2055
     41  C         21.6320    6.1890  -20.5160 C.2   323  SER323      0.2643
     42  O         22.4390    6.5210  -19.6170 O.2   323  SER323     -0.2714
     43  CB        19.5400    7.4570  -20.9420 C.3   323  SER323      0.2130
     44  OG        20.1340    8.6700  -20.4860 O.3   323  SER323     -0.2179
     45  N         22.0020    5.8640  -21.7570 N.am  324  THR324     -0.1950
     46  CA        23.3820    6.0060  -22.1060 C.3   324  THR324      0.1897
     47  C         23.9390    7.4040  -21.8220 C.2   324  THR324      0.2313
     48  O         25.0890    7.5530  -21.3080 O.2   324  THR324     -0.2863
     49  CB        23.5470    5.6110  -23.5940 C.3   324  THR324      0.1794
     50  OG1       22.9880    4.2900  -23.8140 O.3   324  THR324     -0.2208
     51  CG2       25.0100    5.5940  -23.9710 C.3   324  THR324      0.0378
     52  N         24.3020    8.0550  -18.1350 N.3   327  LEU327     -0.1231
     53  CA        25.2500    7.0020  -17.6600 C.3   327  LEU327      0.1693
     54  C         24.6470    5.9320  -16.7490 C.2   327  LEU327      0.2592
     55  O         24.9320    4.7600  -16.9120 O.2   327  LEU327     -0.2718
     56  CB        26.4950    7.5860  -16.9990 C.3   327  LEU327      0.0284
     57  CG        27.6280    6.5540  -16.7410 C.3   327  LEU327      0.0019
     58  CD1       28.0510    5.7330  -17.9490 C.3   327  LEU327      0.0001
     59  CD2       28.8200    7.2790  -16.0990 C.3   327  LEU327      0.0001
     60  N         23.7690    6.3120  -15.8110 N.am  328  HIS328     -0.1962
     61  CA        23.0410    5.3230  -15.0580 C.3   328  HIS328      0.1787
     62  C         21.6760    5.8620  -14.6150 C.2   328  HIS328      0.2620
     63  O         21.1800    6.8530  -15.1860 O.2   328  HIS328     -0.2715
     64  CB        23.9460    4.7330  -13.9330 C.3   328  HIS328      0.0785
     65  CG        23.6870    3.2870  -13.6450 C.ar  328  HIS328      0.0821
     66  ND1       22.6790    2.8560  -12.8100 N.ar  328  HIS328     -0.2267
     67  CD2       24.2580    2.1570  -14.1320 C.ar  328  HIS328      0.1154
     68  CE1       22.6770    1.5490  -12.7470 C.ar  328  HIS328      0.1986
     69  NE2       23.6040    1.0870  -13.5760 N.ar  328  HIS328     -0.2212
     70  N         21.1100    5.2440  -13.5920 N.am  329  ILE329     -0.1977
     71  CA        19.6830    5.4470  -13.2650 C.3   329  ILE329      0.1596
     72  C         19.4570    6.7910  -12.5290 C.2   329  ILE329      0.2287
     73  O         20.2100    7.1610  -11.6210 O.2   329  ILE329     -0.2864
     74  CB        19.1840    4.2420  -12.4540 C.3   329  ILE329      0.0276
     75  CG1       19.0940    3.0110  -13.3890 C.3   329  ILE329      0.0022
     76  CG2       17.7790    4.4780  -11.8760 C.3   329  ILE329      0.0022
     77  CD1       18.7960    1.7270  -12.6980 C.3   329  ILE329      0.0001
     78  N         12.4800   -0.2420  -27.3170 N.3   422  LYS422     -0.1245
     79  CA        13.4750   -0.6280  -26.3080 C.3   422  LYS422      0.1561
     80  C         13.2530   -2.0890  -26.0080 C.2   422  LYS422      0.2260
     81  O         12.2570   -2.4700  -25.3390 O.2   422  LYS422     -0.2867
     82  CB        13.4070    0.2410  -25.0680 C.3   422  LYS422      0.0271
     83  CG        14.7940    0.3670  -24.4640 C.3   422  LYS422      0.0035
     84  CD        14.7830    1.2750  -23.2470 C.3   422  LYS422      0.0206
     85  CE        16.1630    1.3590  -22.6160 C.3   422  LYS422      0.1093
     86  NZ        16.0760    2.0850  -21.3290 N.3   422  LYS422     -0.1314
     87  N         16.3620   -4.0750  -23.0470 N.3   425  GLY425     -0.1225
     88  CA        17.4660   -3.2060  -22.7180 C.3   425  GLY425      0.1811
     89  C         18.1810   -2.5000  -23.8230 C.2   425  GLY425      0.2280
     90  O         19.0440   -1.6450  -23.5390 O.2   425  GLY425     -0.2866
@<TRIPOS>BOND
     1    78    79    1
     2    79    80    1
     3    79    82    1
     4    80    81    2
     5    82    83    1
     6    83    84    1
     7    51    49    1
     8    89    90    2
     9    89    88    1
    10    50    49    1
    11    49    46    1
    12    84    85    1
    13    87    88    1
    14    85    86    1
    15    46    47    1
    16    46    45    1
    17    47    48    2
    18    45    41   am
    19    26    25    2
    20    43    44    1
    21    43    40    1
    22     1     2    1
    23    41    40    1
    24    41    42    2
    25    25    24    1
    26    40    39    1
    27     5     2    1
    28    24    23    1
    29     2     3    1
    30    38    37    2
    31    34    32    1
    32    39    37   am
    33    23    20   am
    34    37    36    1
    35     6     3   am
    36     6     7    1
    37     3     4    2
    38    52    53    1
    39    58    57    1
    40    32    31    1
    41    21    20    2
    42    53    56    1
    43    53    54    1
    44    10     7    1
    45    10    11    1
    46    20    19    1
    47     7     8    1
    48    56    57    1
    49    55    54    2
    50    36    35    1
    51    54    60   am
    52    57    59    1
    53    13    11   ar
    54    13    15   ar
    55    35    29   am
    56    31    33    1
    57    31    28    1
    58     8     9    2
    59    11    12   ar
    60    19    22    1
    61    19    18    1
    62    60    61    1
    63    28    29    1
    64    28    27    1
    65    29    30    2
    66    15    16   ar
    67    63    62    2
    68    12    14   ar
    69    61    62    1
    70    61    64    1
    71    62    70   am
    72    16    14   ar
    73    16    17    1
    74    67    65   ar
    75    67    69   ar
    76    64    65    1
    77    65    66   ar
    78    70    71    1
    79    69    68   ar
    80    75    77    1
    81    75    74    1
    82    71    72    1
    83    71    74    1
    84    66    68   ar
    85    72    73    2
    86    74    76    1
