@<TRIPOS>MOLECULE
tmp/4rmnB01.pdb
 72 67 0 0 0
SMALL
GASTEIGER

@<TRIPOS>ATOM
      1  N         23.1810   -9.5280  -15.5550 N.3   216  ALA216     -0.1231
      2  CA        22.9080  -10.1660  -16.8580 C.3   216  ALA216      0.1694
      3  C         23.2260   -9.1570  -17.9980 C.2   216  ALA216      0.2591
      4  O         23.6520   -9.5690  -19.1190 O.2   216  ALA216     -0.2718
      5  CB        21.4470  -10.6200  -16.9810 C.3   216  ALA216      0.0304
      6  N         23.0940   -7.8640  -17.6610 N.am  217  ALA217     -0.1980
      7  CA        23.5210   -6.8280  -18.5540 C.3   217  ALA217      0.1597
      8  C         25.0170   -6.7540  -18.6250 C.2   217  ALA217      0.2287
      9  O         25.6720   -6.5530  -17.6070 O.2   217  ALA217     -0.2864
     10  CB        22.9680   -5.4950  -18.1260 C.3   217  ALA217      0.0319
     11  N         27.1000   -2.2330  -21.7620 N.3   221  PHE221     -0.1241
     12  CA        25.8760   -1.4690  -21.5480 C.3   221  PHE221      0.1605
     13  C         26.1340   -0.4640  -20.4280 C.2   221  PHE221      0.2264
     14  O         26.7350   -0.8010  -19.4590 O.2   221  PHE221     -0.2867
     15  CB        24.7360   -2.3800  -21.1350 C.3   221  PHE221      0.0534
     16  CG        24.1790   -3.2080  -22.2370 C.ar  221  PHE221     -0.0203
     17  CD1       23.4440   -2.6250  -23.2830 C.ar  221  PHE221     -0.0042
     18  CD2       24.3100   -4.5880  -22.1990 C.ar  221  PHE221     -0.0042
     19  CE1       22.8250   -3.4250  -24.2530 C.ar  221  PHE221     -0.0003
     20  CE2       23.7350   -5.3870  -23.1780 C.ar  221  PHE221     -0.0003
     21  CZ        23.0140   -4.8190  -24.1840 C.ar  221  PHE221     -0.0000
     22  N         24.0820    0.4540  -18.2270 N.3   223  TYR223     -0.1241
     23  CA        23.5300   -0.2040  -17.0470 C.3   223  TYR223      0.1605
     24  C         24.5530   -1.2190  -16.4480 C.2   223  TYR223      0.2264
     25  O         24.8410   -1.1620  -15.2320 O.2   223  TYR223     -0.2867
     26  CB        22.2270   -0.9350  -17.4300 C.3   223  TYR223      0.0534
     27  CG        21.4380   -1.6090  -16.3320 C.ar  223  TYR223     -0.0201
     28  CD1       21.1800   -0.9940  -15.0980 C.ar  223  TYR223     -0.0009
     29  CD2       20.9080   -2.9030  -16.5520 C.ar  223  TYR223     -0.0009
     30  CE1       20.4480   -1.6520  -14.1240 C.ar  223  TYR223      0.0417
     31  CE2       20.1850   -3.5630  -15.6030 C.ar  223  TYR223      0.0417
     32  CZ        19.9190   -2.9260  -14.3890 C.ar  223  TYR223      0.1957
     33  OH        19.1600   -3.6080  -13.4410 O.3   223  TYR223     -0.2866
     34  N         23.1120  -14.6520  -21.5030 N.3   246  PRO246     -0.2116
     35  CA        22.4130  -14.7890  -20.2360 C.3   246  PRO246      0.1372
     36  C         21.0400  -15.4470  -20.2900 C.2   246  PRO246      0.2244
     37  O         20.0180  -14.8580  -19.9300 O.2   246  PRO246     -0.2868
     38  CB        22.2990  -13.3350  -19.7200 C.3   246  PRO246      0.0268
     39  CG        22.4350  -12.4660  -20.9280 C.3   246  PRO246      0.0207
     40  CD        23.1640  -13.2440  -21.9790 C.3   246  PRO246      0.0892
     41  N         19.2000   -7.1000  -14.1920 N.3   269  GLY269     -0.1210
     42  CA        18.8790   -7.5330  -15.5470 C.3   269  GLY269      0.1956
     43  C         17.6230   -6.8650  -16.0680 C.2   269  GLY269      0.2611
     44  O         16.9830   -6.1220  -15.3620 O.2   269  GLY269     -0.2717
     45  N         17.2820   -7.1450  -17.3260 N.am  270  ALA270     -0.1979
     46  CA        16.1370   -6.5700  -17.9610 C.3   270  ALA270      0.1597
     47  C         14.8850   -7.3550  -17.5170 C.2   270  ALA270      0.2287
     48  O         14.9580   -8.5690  -17.3060 O.2   270  ALA270     -0.2864
     49  CB        16.2820   -6.7160  -19.4750 C.3   270  ALA270      0.0319
     50  N         14.4610  -10.7950  -19.0690 N.3   273  GLY273     -0.1225
     51  CA        15.1510  -11.8830  -18.4110 C.3   273  GLY273      0.1811
     52  C         14.3940  -12.3680  -17.1780 C.2   273  GLY273      0.2280
     53  O         14.3450  -13.5920  -16.9190 O.2   273  GLY273     -0.2866
     54  N         16.3700   -2.7400  -15.1210 N.3   297  ALA297     -0.1231
     55  CA        16.2650   -1.5700  -15.9970 C.3   297  ALA297      0.1694
     56  C         16.2870   -2.0500  -17.4200 C.2   297  ALA297      0.2592
     57  O         16.5040   -3.2180  -17.6970 O.2   297  ALA297     -0.2718
     58  CB        17.4400   -0.5970  -15.7650 C.3   297  ALA297      0.0304
     59  N         16.1780   -1.1290  -18.3420 N.am  298  GLY298     -0.1957
     60  CA        16.3130   -1.5160  -19.7740 C.3   298  GLY298      0.1869
     61  C         14.9650   -1.5200  -20.5120 C.2   298  GLY298      0.2309
     62  O         14.9420   -1.4800  -21.7360 O.2   298  GLY298     -0.2863
     63  N         14.3600   -5.5680  -24.5830 N.3   424  SER424     -0.1202
     64  CA        15.2390   -6.2060  -23.5990 C.3   424  SER424      0.2020
     65  C         16.5120   -5.3920  -23.2180 C.2   424  SER424      0.2619
     66  O         17.6070   -5.9160  -23.1050 O.2   424  SER424     -0.2717
     67  CB        15.5370   -7.5850  -24.1200 C.3   424  SER424      0.2103
     68  OG        16.2230   -8.3050  -23.1150 O.3   424  SER424     -0.2182
     69  N         16.3620   -4.0750  -23.0470 N.am  425  GLY425     -0.1956
     70  CA        17.4660   -3.2060  -22.7180 C.3   425  GLY425      0.1869
     71  C         18.1810   -2.5000  -23.8230 C.2   425  GLY425      0.2309
     72  O         19.0440   -1.6450  -23.5390 O.2   425  GLY425     -0.2863
@<TRIPOS>BOND
     1    63    64    1
     2    19    21   ar
     3    19    17   ar
     4    21    20   ar
     5    67    64    1
     6    67    68    1
     7    71    72    2
     8    71    70    1
     9    64    65    1
    10    17    16   ar
    11    65    66    2
    12    65    69   am
    13    20    18   ar
    14    69    70    1
    15    16    18   ar
    16    16    15    1
    17    40    34    1
    18    40    39    1
    19    11    12    1
    20    62    61    2
    21    12    15    1
    22    12    13    1
    23    34    35    1
    24    39    38    1
    25    61    60    1
    26    13    14    2
    27    36    35    1
    28    36    37    2
    29    35    38    1
    30    60    59    1
    31    49    46    1
    32     4     3    2
    33    50    51    1
    34     8     7    1
    35     8     9    2
    36     7    10    1
    37     7     6    1
    38    51    52    1
    39    59    56   am
    40    22    23    1
    41     3     6   am
    42     3     2    1
    43    46    47    1
    44    46    45    1
    45    57    56    2
    46    47    48    2
    47    26    23    1
    48    26    27    1
    49    56    55    1
    50    45    43   am
    51    52    53    2
    52    23    24    1
    53     5     2    1
    54     2     1    1
    55    29    27   ar
    56    29    31   ar
    57    24    25    2
    58    27    28   ar
    59    43    42    1
    60    43    44    2
    61    55    58    1
    62    55    54    1
    63    31    32   ar
    64    42    41    1
    65    28    30   ar
    66    32    30   ar
    67    32    33    1
