@<TRIPOS>MOLECULE
tmp/4rmzA00.pdb
 186 176 0 0 0
SMALL
GASTEIGER

@<TRIPOS>ATOM
      1  N         44.4910  164.1890   -7.9440 N.3    21  ILE21      -0.1245
      2  CA        44.4330  163.9630   -6.4800 C.3    21  ILE21       0.1561
      3  C         45.6550  163.2530   -5.9040 C.2    21  ILE21       0.2260
      4  O         45.9750  163.4170   -4.7110 O.2    21  ILE21      -0.2867
      5  CB        43.1820  163.1910   -6.0390 C.3    21  ILE21       0.0252
      6  CG1       43.0620  161.8620   -6.7900 C.3    21  ILE21       0.0019
      7  CG2       41.9430  164.0560   -6.2250 C.3    21  ILE21       0.0019
      8  CD1       42.2530  160.8450   -6.0220 C.3    21  ILE21       0.0001
      9  N         39.7830  163.6770  -10.1120 N.3    28  MET28      -0.1230
     10  CA        39.9210  162.2470   -9.9880 C.3    28  MET28       0.1705
     11  C         39.9020  161.5990  -11.3440 C.2    28  MET28       0.2632
     12  O         40.4380  160.5090  -11.4830 O.2    28  MET28      -0.2714
     13  CB        38.8100  161.6630   -9.1310 C.3    28  MET28       0.0401
     14  CG        38.9550  161.9870   -7.6560 C.3    28  MET28       0.0596
     15  SD        37.6360  161.2270   -6.7040 S.3    28  MET28      -0.1393
     16  CE        36.2510  162.0340   -7.5250 C.3    28  MET28       0.0692
     17  N         39.2730  162.2350  -12.3330 N.am   29  GLY29      -0.1718
     18  CA        39.2220  161.6200  -13.6600 C.2    29  GLY29       0.1480
     19  C         38.2380  162.1420  -14.6900 C.2    29  GLY29       0.2820
     20  O         37.4470  163.0610  -14.4350 O.2    29  GLY29      -0.2669
     21  N         38.3190  161.5110  -15.8630 N.am   30  GLU30      -0.1929
     22  CA        37.5150  161.8380  -17.0330 C.3    30  GLU30       0.1736
     23  C         36.4900  160.7310  -17.2850 C.2    30  GLU30       0.2617
     24  O         36.8380  159.5560  -17.3900 O.2    30  GLU30      -0.2715
     25  CB        38.4110  161.9800  -18.2830 C.3    30  GLU30       0.0429
     26  CG        38.8170  163.4080  -18.6590 C.3    30  GLU30       0.1163
     27  CD        40.2200  163.8140  -18.2150 C.2    30  GLU30       0.3649
     28  OE1       40.5590  165.0080  -18.3610 O.co2  30  GLU30      -0.2457
     29  OE2       40.9950  162.9650  -17.7300 O.co2  30  GLU30      -0.2457
     30  N         35.2240  161.1100  -17.3770 N.am   31  GLY31      -0.1955
     31  CA        34.2030  160.2190  -17.9080 C.3    31  GLY31       0.1869
     32  C         34.0520  160.4500  -19.4040 C.2    31  GLY31       0.2309
     33  O         34.7210  161.3160  -19.9800 O.2    31  GLY31      -0.2863
     34  N         35.1150  164.2880  -13.0080 N.3    36  VAL36      -0.1245
     35  CA        34.8040  163.9350  -11.6110 C.3    36  VAL36       0.1561
     36  C         35.8500  164.4440  -10.5800 C.2    36  VAL36       0.2260
     37  O         37.0310  164.0290  -10.6140 O.2    36  VAL36      -0.2867
     38  CB        34.6630  162.3910  -11.4590 C.3    36  VAL36       0.0252
     39  CG1       33.9010  162.0330  -10.1920 C.3    36  VAL36       0.0019
     40  CG2       33.9550  161.7800  -12.6620 C.3    36  VAL36       0.0019
     41  N         31.9870  162.3700   -4.5570 N.3    47  ALA47      -0.1245
     42  CA        32.3340  162.4840   -5.9760 C.3    47  ALA47       0.1562
     43  C         31.2840  163.3550   -6.5760 C.2    47  ALA47       0.2260
     44  O         30.1070  163.2350   -6.2580 O.2    47  ALA47      -0.2867
     45  CB        32.3670  161.1330   -6.6550 C.3    47  ALA47       0.0290
     46  N         30.2420  165.1600  -10.3500 N.3    49  LYS49      -0.1245
     47  CA        30.4630  164.9520  -11.7660 C.3    49  LYS49       0.1561
     48  C         29.9570  166.1840  -12.4500 C.2    49  LYS49       0.2260
     49  O         28.7500  166.4540  -12.4300 O.2    49  LYS49      -0.2867
     50  CB        29.7040  163.7310  -12.2960 C.3    49  LYS49       0.0271
     51  CG        29.6630  163.6620  -13.8270 C.3    49  LYS49       0.0035
     52  CD        28.8220  162.5060  -14.3520 C.3    49  LYS49       0.0206
     53  CE        29.6380  161.2320  -14.4820 C.3    49  LYS49       0.1093
     54  NZ        28.7630  160.0420  -14.6920 N.3    49  LYS49      -0.1314
     55  N         26.4410  152.4880   -7.7980 N.3    78  VAL78      -0.1245
     56  CA        26.7960  153.7550   -7.1460 C.3    78  VAL78       0.1561
     57  C         25.5600  154.3390   -6.5080 C.2    78  VAL78       0.2260
     58  O         24.4490  153.9790   -6.8850 O.2    78  VAL78      -0.2867
     59  CB        27.4050  154.8300   -8.0880 C.3    78  VAL78       0.0252
     60  CG1       28.8050  154.4670   -8.5150 C.3    78  VAL78       0.0019
     61  CG2       26.5190  155.1300   -9.2870 C.3    78  VAL78       0.0019
     62  N         27.5250  161.9750   -5.6770 N.3    94  TYR94      -0.1227
     63  CA        27.4720  160.5810   -5.3170 C.3    94  TYR94       0.1736
     64  C         28.2700  160.4020   -4.0730 C.2    94  TYR94       0.2595
     65  O         29.0880  161.2510   -3.7440 O.2    94  TYR94      -0.2718
     66  CB        28.1480  159.7020   -6.3910 C.3    94  TYR94       0.0548
     67  CG        27.5200  159.8010   -7.7600 C.ar   94  TYR94      -0.0200
     68  CD1       26.4770  158.9590   -8.1230 C.ar   94  TYR94      -0.0009
     69  CD2       27.9530  160.7530   -8.6880 C.ar   94  TYR94      -0.0009
     70  CE1       25.8970  159.0370   -9.3820 C.ar   94  TYR94       0.0417
     71  CE2       27.3580  160.8480   -9.9470 C.ar   94  TYR94       0.0417
     72  CZ        26.3360  159.9830  -10.2820 C.ar   94  TYR94       0.1957
     73  OH        25.7310  160.0620  -11.4990 O.3    94  TYR94      -0.2866
     74  N         28.0920  159.2530   -3.4240 N.am   95  VAL95      -0.1966
     75  CA        28.9960  158.8370   -2.3760 C.3    95  VAL95       0.1727
     76  C         30.3000  158.5310   -3.0740 C.2    95  VAL95       0.2616
     77  O         30.2840  158.0910   -4.2250 O.2    95  VAL95      -0.2715
     78  CB        28.4490  157.6230   -1.6160 C.3    95  VAL95       0.0290
     79  CG1       29.5200  156.9770   -0.7420 C.3    95  VAL95       0.0023
     80  CG2       27.2630  158.0610   -0.7820 C.3    95  VAL95       0.0023
     81  N         31.4160  158.7490   -2.3720 N.am   96  TYR96      -0.1960
     82  CA        32.7570  158.7370   -2.9610 C.3    96  TYR96       0.1771
     83  C         33.3020  157.3650   -2.9500 C.2    96  TYR96       0.2619
     84  O         33.1980  156.6750   -1.9480 O.2    96  TYR96      -0.2715
     85  CB        33.6860  159.6490   -2.1530 C.3    96  TYR96       0.0574
     86  CG        35.1740  159.4800   -2.3460 C.ar   96  TYR96      -0.0198
     87  CD1       35.8340  160.0730   -3.4170 C.ar   96  TYR96      -0.0009
     88  CD2       35.9360  158.7780   -1.4130 C.ar   96  TYR96      -0.0009
     89  CE1       37.2090  159.9330   -3.5770 C.ar   96  TYR96       0.0417
     90  CE2       37.3080  158.6420   -1.5630 C.ar   96  TYR96       0.0417
     91  CZ        37.9370  159.2240   -2.6530 C.ar   96  TYR96       0.1957
     92  OH        39.3030  159.0910   -2.8100 O.3    96  TYR96      -0.2866
     93  N         33.9220  156.9580   -4.0530 N.am   97  MET97      -0.1963
     94  CA        34.5440  155.6540   -4.1000 C.3    97  MET97       0.1725
     95  C         36.0690  155.8830   -4.0220 C.2    97  MET97       0.2496
     96  O         36.6220  156.5830   -4.8810 O.2    97  MET97      -0.2727
     97  CB        34.1060  154.9220   -5.3740 C.3    97  MET97       0.0427
     98  CG        32.5900  154.7280   -5.4920 C.3    97  MET97       0.0599
     99  SD        31.8340  153.5980   -4.2900 S.3    97  MET97      -0.1393
    100  CE        32.7540  152.1430   -4.6490 C.3    97  MET97       0.0692
    101  N         36.7380  155.3480   -2.9660 N.am   98  PRO98      -0.2490
    102  CA        38.1740  155.5920   -2.7670 C.3    98  PRO98       0.1619
    103  C         39.0380  155.0060   -3.8580 C.2    98  PRO98       0.2605
    104  O         39.8620  155.7220   -4.4230 O.2    98  PRO98      -0.2715
    105  CB        38.5060  154.9080   -1.4300 C.3    98  PRO98       0.0570
    106  CG        37.2190  154.5440   -0.7960 C.2    98  PRO98      -0.0077
    107  CD        36.1060  154.7130   -1.7890 C.2    98  PRO98       0.0634
    108  N         38.8290  153.7260   -4.1550 N.am   99  ASN99      -0.1959
    109  CA        39.6530  152.9640   -5.0780 C.3    99  ASN99       0.1819
    110  C         39.3580  153.2130   -6.5820 C.2    99  ASN99       0.2622
    111  O         39.7330  152.4080   -7.4360 O.2    99  ASN99      -0.2715
    112  CB        39.5400  151.4600   -4.7400 C.3    99  ASN99       0.1195
    113  CG        40.5130  151.0090   -3.6270 C.2    99  ASN99       0.2630
    114  OD1       41.7200  151.2720   -3.6830 O.2    99  ASN99      -0.2716
    115  ND2       39.9930  150.2670   -2.6440 N.am   99  ASN99      -0.0877
    116  N         38.7160  154.3220   -6.9110 N.am  100  GLY100     -0.1940
    117  CA        38.4160  154.6910   -8.3070 C.3   100  GLY100      0.2014
    118  C         37.7740  153.6190   -9.1850 C.2   100  GLY100      0.2639
    119  O         36.9590  152.8270   -8.6970 O.2   100  GLY100     -0.2714
    120  N         38.1740  153.5820  -10.4580 N.am  101  SER101     -0.1949
    121  CA        37.6140  152.6460  -11.4510 C.3   101  SER101      0.1924
    122  C         38.3370  151.3340  -11.5080 C.2   101  SER101      0.2314
    123  O         39.4910  151.2320  -11.1390 O.2   101  SER101     -0.2863
    124  CB        37.6000  153.2710  -12.8580 C.3   101  SER101      0.2116
    125  OG        38.8900  153.3050  -13.4310 O.3   101  SER101     -0.2180
    126  N         41.2720  151.6920  -14.0290 N.3   104  ASP104     -0.1225
    127  CA        42.4360  152.3130  -13.4430 C.3   104  ASP104      0.1805
    128  C         43.1360  151.3690  -12.4570 C.2   104  ASP104      0.2597
    129  O         44.3700  151.2820  -12.4160 O.2   104  ASP104     -0.2718
    130  CB        42.0300  153.6520  -12.8020 C.3   104  ASP104      0.1424
    131  CG        41.6690  154.7260  -13.8500 C.2   104  ASP104      0.3668
    132  OD1       41.8310  154.4760  -15.0600 O.co2 104  ASP104     -0.2456
    133  OD2       41.2380  155.8480  -13.4780 O.co2 104  ASP104     -0.2456
    134  N         42.3800  150.5930  -11.6990 N.am  105  ARG105     -0.1979
    135  CA        43.0520  149.6330  -10.8140 C.3   105  ARG105      0.1597
    136  C         43.6610  148.4950  -11.5900 C.2   105  ARG105      0.2287
    137  O         44.7140  147.9840  -11.2000 O.2   105  ARG105     -0.2864
    138  CB        42.1400  149.1640   -9.6830 C.3   105  ARG105      0.0334
    139  CG        41.6190  150.3590   -8.8800 C.3   105  ARG105      0.0492
    140  CD        42.6890  151.0450   -8.0170 C.3   105  ARG105      0.2205
    141  NE        43.5870  151.9850   -8.6920 N.pl3 105  ARG105     -0.0865
    142  CZ        43.2690  153.2190   -9.0650 C.cat 105  ARG105      0.5346
    143  NH1       44.1660  154.0020   -9.6510 N.pl3 105  ARG105      0.1354
    144  NH2       42.0450  153.6850   -8.8810 N.pl3 105  ARG105      0.1354
    145  N         48.6720  155.4470  -11.2180 N.3   110  ASP110     -0.1239
    146  CA        49.1400  156.2070  -10.0520 C.3   110  ASP110      0.1674
    147  C         49.8710  155.3470   -9.0270 C.2   110  ASP110      0.2266
    148  O         50.0840  155.7880   -7.9080 O.2   110  ASP110     -0.2867
    149  CB        47.9880  156.9590   -9.3800 C.3   110  ASP110      0.1410
    150  CG        47.5350  158.1580  -10.1670 C.2   110  ASP110      0.3668
    151  OD1       48.3960  158.9110  -10.6220 O.co2 110  ASP110     -0.2456
    152  OD2       46.3100  158.3660  -10.3080 O.co2 110  ASP110     -0.2456
    153  N         49.1690  152.0900   -7.7750 N.3   112  THR112     -0.1218
    154  CA        48.4490  151.2100   -6.8480 C.3   112  THR112      0.1862
    155  C         48.8870  149.7960   -7.1180 C.2   112  THR112      0.2287
    156  O         49.3010  149.5040   -8.2370 O.2   112  THR112     -0.2866
    157  CB        46.9130  151.2590   -7.0150 C.3   112  THR112      0.1770
    158  OG1       46.5360  150.7440   -8.3160 O.3   112  THR112     -0.2211
    159  CG2       46.4200  152.6680   -6.8520 C.3   112  THR112      0.0375
    160  N         35.7490  151.1500  -16.9580 N.3   147  ALA147     -0.1245
    161  CA        35.7290  152.4940  -16.4040 C.3   147  ALA147      0.1562
    162  C         34.4030  152.8170  -15.6660 C.2   147  ALA147      0.2260
    163  O         34.3620  153.7770  -14.8710 O.2   147  ALA147     -0.2867
    164  CB        35.9940  153.5310  -17.4870 C.3   147  ALA147      0.0290
    165  N         33.0450  151.1010  -10.5360 N.3   150  LEU150     -0.1245
    166  CA        33.8200  151.8010   -9.4930 C.3   150  LEU150      0.1561
    167  C         34.0480  150.8720   -8.3320 C.2   150  LEU150      0.2260
    168  O         33.4600  149.7930   -8.2850 O.2   150  LEU150     -0.2867
    169  CB        33.1620  153.1080   -9.0790 C.3   150  LEU150      0.0270
    170  CG        32.8190  154.0480  -10.2440 C.3   150  LEU150      0.0019
    171  CD1       32.1700  155.3070   -9.7240 C.3   150  LEU150      0.0001
    172  CD2       34.0180  154.4470  -11.0590 C.3   150  LEU150      0.0001
    173  N         28.3290  152.1720  -12.4490 N.3   160  SER160     -0.1202
    174  CA        27.9920  153.5850  -12.5920 C.3   160  SER160      0.2020
    175  C         27.5540  153.9220  -13.9990 C.2   160  SER160      0.2618
    176  O         27.6930  153.1180  -14.9200 O.2   160  SER160     -0.2717
    177  CB        29.2160  154.4200  -12.3020 C.3   160  SER160      0.2103
    178  OG        30.2030  154.1220  -13.2650 O.3   160  SER160     -0.2182
    179  N         27.0610  155.1350  -14.1350 N.am  161  ASP161     -0.1973
    180  CA        26.7450  155.7800  -15.4130 C.3   161  ASP161      0.1709
    181  C         25.5160  155.1940  -16.1080 C.2   161  ASP161      0.2293
    182  O         25.6200  154.3310  -16.9830 O.2   161  ASP161     -0.2864
    183  CB        27.9430  155.8300  -16.3590 C.3   161  ASP161      0.1436
    184  CG        27.8600  157.0230  -17.3250 C.2   161  ASP161      0.3671
    185  OD1       26.7390  157.3340  -17.8510 O.co2 161  ASP161     -0.2456
    186  OD2       28.9080  157.6730  -17.5410 O.co2 161  ASP161     -0.2456
@<TRIPOS>BOND
     1    33    32    2
     2    32    31    1
     3    26    25    1
     4    26    27    1
     5    28    27   ar
     6    25    22    1
     7    27    29   ar
     8    31    30    1
     9   185   184   ar
    10   186   184   ar
    11   164   161    1
    12    24    23    2
    13    30    23   am
    14   184   183    1
    15    23    22    1
    16    22    21    1
    17   182   181    2
    18   160   161    1
    19   161   162    1
    20   183   180    1
    21   181   180    1
    22    21    19   am
    23   162   163    2
    24   180   179    1
    25   132   131   ar
    26   176   175    2
    27    54    53    1
    28    19    20    2
    29    19    18    1
    30    53    52    1
    31    52    51    1
    32   179   175   am
    33   126   127    1
    34   175   174    1
    35   131   133   ar
    36   131   130    1
    37    51    50    1
    38    18    17    2
    39   127   130    1
    40   127   128    1
    41   125   124    1
    42   178   177    1
    43    34    35    1
    44   124   121    1
    45    40    38    1
    46   174   173    1
    47   174   177    1
    48   128   129    2
    49   128   134   am
    50    48    49    2
    51    48    47    1
    52    17    11    1
    53    50    47    1
    54    47    46    1
    55   134   135    1
    56    35    38    1
    57    35    36    1
    58   136   137    2
    59   136   135    1
    60   122   121    1
    61   122   123    2
    62    73    72    1
    63    12    11    2
    64    38    39    1
    65   121   120    1
    66    11    10    1
    67   145   146    1
    68   172   170    1
    69   135   138    1
    70   151   150   ar
    71    37    36    2
    72   165   166    1
    73   120   118   am
    74   152   150   ar
    75    72    71   ar
    76    72    70   ar
    77   170   171    1
    78   170   169    1
    79   150   149    1
    80     9    10    1
    81   146   149    1
    82   146   147    1
    83    10    13    1
    84    71    69   ar
    85   138   139    1
    86   143   142    1
    87   166   169    1
    88   166   167    1
    89    70    68   ar
    90    61    59    1
    91   118   119    2
    92   118   117    1
    93    13    14    1
    94   142   144    1
    95   142   141    2
    96   147   148    2
    97   139   140    1
    98   141   140    1
    99    69    67   ar
   100    60    59    1
   101   167   168    2
   102   158   157    1
   103   117   116    1
   104   156   155    2
   105    68    67   ar
   106    59    56    1
   107     1     2    1
   108    55    56    1
   109   153   154    1
   110    67    66    1
   111    14    15    1
   112    16    15    1
   113   111   110    2
   114    56    57    1
   115   155   154    1
   116   157   159    1
   117   157   154    1
   118   116   110   am
   119    58    57    2
   120     6     5    1
   121     6     8    1
   122    45    42    1
   123   110   109    1
   124    43    44    2
   125    43    42    1
   126     2     5    1
   127     2     3    1
   128    66    63    1
   129     7     5    1
   130    42    41    1
   131     3     4    2
   132    62    63    1
   133    98    97    1
   134    98    99    1
   135    97    94    1
   136    63    64    1
   137   109   112    1
   138   109   108    1
   139    96    95    2
   140   112   113    1
   141   100    99    1
   142   104   103    2
   143    77    76    2
   144   108   103   am
   145    94    93    1
   146    94    95    1
   147    64    65    2
   148    64    74   am
   149    93    83   am
   150    95   101   am
   151   103   102    1
   152   114   113    2
   153   113   115   am
   154    89    87   ar
   155    89    91   ar
   156    74    75    1
   157    87    86   ar
   158    76    75    1
   159    76    81   am
   160   101   102    1
   161   101   107    1
   162    82    83    1
   163    82    81    1
   164    82    85    1
   165    83    84    2
   166    92    91    1
   167   102   105    1
   168    91    90   ar
   169    75    78    1
   170    86    85    1
   171    86    88   ar
   172   107   106    2
   173    78    80    1
   174    78    79    1
   175    90    88   ar
   176   105   106    1
