@<TRIPOS>MOLECULE
tmp/4rn1A00.pdb
 141 139 0 0 0
SMALL
GASTEIGER

@<TRIPOS>ATOM
      1  N          9.4010   11.9670  -23.1020 N.3    20  LYS20      -0.1245
      2  CA         8.2210   11.1350  -22.9060 C.3    20  LYS20       0.1561
      3  C          7.2130   11.4150  -24.0180 C.2    20  LYS20       0.2260
      4  O          6.5510   10.5080  -24.5190 O.2    20  LYS20      -0.2867
      5  CB         7.5930   11.3890  -21.5340 C.3    20  LYS20       0.0271
      6  CG         8.5890   11.3900  -20.3840 C.3    20  LYS20       0.0035
      7  CD         9.3470   10.0760  -20.2910 C.3    20  LYS20       0.0206
      8  CE         8.4240    8.9260  -19.9250 C.3    20  LYS20       0.1093
      9  NZ         9.1700    7.6450  -19.7670 N.3    20  LYS20      -0.1314
     10  N          9.3780    2.8750  -15.2270 N.3    83  TYR83      -0.1241
     11  CA         9.3920    2.9960  -16.6820 C.3    83  TYR83       0.1605
     12  C         10.4910    3.9410  -17.1680 C.2    83  TYR83       0.2264
     13  O         10.5560    4.2670  -18.3530 O.2    83  TYR83      -0.2867
     14  CB         8.0330    3.4830  -17.1940 C.3    83  TYR83       0.0534
     15  CG         6.8640    2.6430  -16.7390 C.ar   83  TYR83      -0.0201
     16  CD1        6.6490    1.3760  -17.2630 C.ar   83  TYR83      -0.0009
     17  CD2        5.9670    3.1220  -15.7920 C.ar   83  TYR83      -0.0009
     18  CE1        5.5780    0.6050  -16.8520 C.ar   83  TYR83       0.0417
     19  CE2        4.8940    2.3600  -15.3750 C.ar   83  TYR83       0.0417
     20  CZ         4.7040    1.1030  -15.9080 C.ar   83  TYR83       0.1957
     21  OH         3.6360    0.3390  -15.4950 O.3    83  TYR83      -0.2866
     22  N          0.4410   18.6940  -14.7740 N.3   124  TRP124     -0.1227
     23  CA         0.6730   17.2730  -14.5530 C.3   124  TRP124      0.1737
     24  C         -0.0200   16.8180  -13.2740 C.2   124  TRP124      0.2595
     25  O          0.5760   16.7420  -12.2010 O.2   124  TRP124     -0.2718
     26  CB         2.1730   16.9950  -14.5310 C.3   124  TRP124      0.0564
     27  CG         2.7870   17.4430  -15.8170 C.ar  124  TRP124      0.0003
     28  CD1        3.5490   18.5560  -16.0220 C.ar  124  TRP124      0.0946
     29  CD2        2.6330   16.8200  -17.0970 C.ar  124  TRP124      0.0152
     30  NE1        3.9020   18.6490  -17.3460 N.ar  124  TRP124     -0.2442
     31  CE2        3.3520   17.5950  -18.0270 C.ar  124  TRP124      0.0810
     32  CE3        1.9700   15.6730  -17.5440 C.ar  124  TRP124      0.0012
     33  CZ2        3.4260   17.2600  -19.3780 C.ar  124  TRP124      0.0191
     34  CZ3        2.0430   15.3430  -18.8840 C.ar  124  TRP124      0.0001
     35  CH2        2.7670   16.1340  -19.7850 C.ar  124  TRP124      0.0015
     36  N         -1.2980   16.4980  -13.4330 N.am  125  HIS125     -0.1961
     37  CA        -2.2390   16.3720  -12.3290 C.3   125  HIS125      0.1787
     38  C         -2.3300   14.9860  -11.6950 C.2   125  HIS125      0.2620
     39  O         -3.0720   14.8000  -10.7350 O.2   125  HIS125     -0.2715
     40  CB        -3.6300   16.7880  -12.8140 C.3   125  HIS125      0.0785
     41  CG        -4.1210   16.0020  -13.9920 C.ar  125  HIS125      0.0821
     42  ND1       -5.3880   16.1560  -14.5100 N.ar  125  HIS125     -0.2267
     43  CD2       -3.5180   15.0570  -14.7520 C.ar  125  HIS125      0.1154
     44  CE1       -5.5460   15.3380  -15.5350 C.ar  125  HIS125      0.1986
     45  NE2       -4.4240   14.6620  -15.7050 N.ar  125  HIS125     -0.2212
     46  N         -1.5930   14.0140  -12.2210 N.am  126  HIS126     -0.1973
     47  CA        -1.6920   12.6510  -11.7030 C.3   126  HIS126      0.1656
     48  C         -0.6690   12.3520  -10.6110 C.2   126  HIS126      0.2291
     49  O         -0.8290   11.3960   -9.8530 O.2   126  HIS126     -0.2864
     50  CB        -1.5370   11.6320  -12.8340 C.3   126  HIS126      0.0771
     51  CG        -2.6840   11.6170  -13.7950 C.ar  126  HIS126      0.0820
     52  ND1       -3.9800   11.3560  -13.4030 N.ar  126  HIS126     -0.2267
     53  CD2       -2.7300   11.8240  -15.1320 C.ar  126  HIS126      0.1154
     54  CE1       -4.7740   11.4080  -14.4570 C.ar  126  HIS126      0.1986
     55  NE2       -4.0410   11.6900  -15.5190 N.ar  126  HIS126     -0.2212
     56  N          1.1710    8.3440  -14.4330 N.3   134  GLY134     -0.1210
     57  CA         0.6280    8.7990  -15.7040 C.3   134  GLY134      0.1956
     58  C          1.3910    9.9380  -16.3550 C.2   134  GLY134      0.2612
     59  O          0.8150   10.9920  -16.6280 O.2   134  GLY134     -0.2717
     60  N          2.6860    9.7230  -16.5840 N.am  135  PHE135     -0.1962
     61  CA         3.5790   10.7180  -17.1850 C.3   135  PHE135      0.1771
     62  C          3.7610   11.9690  -16.3200 C.2   135  PHE135      0.2619
     63  O          4.3520   12.9510  -16.7660 O.2   135  PHE135     -0.2715
     64  CB         3.0770   11.1270  -18.5750 C.3   135  PHE135      0.0574
     65  CG         3.0530   10.0020  -19.5710 C.ar  135  PHE135     -0.0200
     66  CD1        2.0080    9.8810  -20.4720 C.ar  135  PHE135     -0.0042
     67  CD2        4.0800    9.0730  -19.6130 C.ar  135  PHE135     -0.0042
     68  CE1        1.9820    8.8490  -21.3910 C.ar  135  PHE135     -0.0003
     69  CE2        4.0610    8.0380  -20.5300 C.ar  135  PHE135     -0.0003
     70  CZ         3.0110    7.9260  -21.4210 C.ar  135  PHE135     -0.0000
     71  N          3.2640   11.9330  -15.0870 N.am  136  CYS136     -0.1968
     72  CA         3.4160   13.0620  -14.1720 C.3   136  CYS136      0.1712
     73  C          4.4270   12.7380  -13.0750 C.2   136  CYS136      0.2296
     74  O          4.2150   11.8260  -12.2790 O.2   136  CYS136     -0.2864
     75  CB         2.0680   13.4400  -13.5500 C.3   136  CYS136      0.0983
     76  SG         0.7310   13.6980  -14.7430 S.3   136  CYS136     -0.0798
     77  N         -8.9300   17.7910  -18.7590 N.3   161  ASP161     -0.1239
     78  CA        -8.1680   16.6750  -19.3100 C.3   161  ASP161      0.1674
     79  C         -9.0840   15.4660  -19.5050 C.2   161  ASP161      0.2266
     80  O        -10.1290   15.3650  -18.8650 O.2   161  ASP161     -0.2867
     81  CB        -7.0050   16.3240  -18.3800 C.3   161  ASP161      0.1410
     82  CG        -5.9930   15.3960  -19.0170 C.2   161  ASP161      0.3668
     83  OD1       -6.2260   14.1680  -19.0190 O.co2 161  ASP161     -0.2456
     84  OD2       -4.9510   15.8940  -19.4940 O.co2 161  ASP161     -0.2456
     85  N         -8.5190   12.5220  -18.5550 N.3   163  HIS163     -0.1241
     86  CA        -8.4410   11.6800  -17.3690 C.3   163  HIS163      0.1621
     87  C         -8.8020   12.4410  -16.0990 C.2   163  HIS163      0.2264
     88  O         -8.6850   13.6630  -16.0400 O.2   163  HIS163     -0.2867
     89  CB        -7.0390   11.0840  -17.2420 C.3   163  HIS163      0.0745
     90  CG        -6.5860   10.3580  -18.4680 C.ar  163  HIS163      0.0817
     91  ND1       -6.0600   11.0050  -19.5640 N.ar  163  HIS163     -0.2268
     92  CD2       -6.6040    9.0410  -18.7810 C.ar  163  HIS163      0.1154
     93  CE1       -5.7610   10.1180  -20.4950 C.ar  163  HIS163      0.1986
     94  NE2       -6.0820    8.9180  -20.0450 N.ar  163  HIS163     -0.2212
     95  N         -7.8610    4.4380  -16.7930 N.3   191  PHE191     -0.1241
     96  CA        -6.9870    5.2210  -15.9220 C.3   191  PHE191      0.1605
     97  C         -7.5980    6.5800  -15.5680 C.2   191  PHE191      0.2264
     98  O         -8.1630    7.2500  -16.4320 O.2   191  PHE191     -0.2867
     99  CB        -5.6240    5.4080  -16.6020 C.3   191  PHE191      0.0534
    100  CG        -4.6080    6.1290  -15.7600 C.ar  191  PHE191     -0.0203
    101  CD1       -4.3880    7.4890  -15.9260 C.ar  191  PHE191     -0.0042
    102  CD2       -3.8680    5.4460  -14.8090 C.ar  191  PHE191     -0.0042
    103  CE1       -3.4520    8.1530  -15.1560 C.ar  191  PHE191     -0.0003
    104  CE2       -2.9310    6.1060  -14.0340 C.ar  191  PHE191     -0.0003
    105  CZ        -2.7220    7.4610  -14.2090 C.ar  191  PHE191     -0.0000
    106  N         -5.9550   15.7260  -24.7280 N.3   250  ASP250     -0.1239
    107  CA        -6.1610   14.3360  -25.1250 C.3   250  ASP250      0.1674
    108  C         -7.6520   13.9990  -25.2150 C.2   250  ASP250      0.2266
    109  O         -8.0350   12.8300  -25.3000 O.2   250  ASP250     -0.2867
    110  CB        -5.4360   13.3810  -24.1690 C.3   250  ASP250      0.1410
    111  CG        -5.6680   13.7140  -22.7060 C.2   250  ASP250      0.3668
    112  OD1       -6.3250   14.7320  -22.4080 O.co2 250  ASP250     -0.2456
    113  OD2       -5.1720   12.9540  -21.8500 O.co2 250  ASP250     -0.2456
    114  N         -5.4710    8.2030  -27.5440 N.3   257  MET257     -0.1245
    115  CA        -6.3990    7.7500  -26.5120 C.3   257  MET257      0.1570
    116  C         -7.7340    7.3400  -27.1300 C.2   257  MET257      0.2261
    117  O         -8.3770    6.4000  -26.6650 O.2   257  MET257     -0.2867
    118  CB        -6.6110    8.8430  -25.4640 C.3   257  MET257      0.0387
    119  CG        -5.3540    9.2220  -24.6920 C.3   257  MET257      0.0595
    120  SD        -4.7750    7.9160  -23.5940 S.3   257  MET257     -0.1393
    121  CE        -3.1310    8.5050  -23.2020 C.3   257  MET257      0.0692
    122  N         -1.2080   19.7850  -19.9960 N.3   286  GLY286     -0.1210
    123  CA        -1.4370   18.4520  -19.4690 C.3   286  GLY286      0.1956
    124  C         -1.2800   17.3850  -20.5350 C.2   286  GLY286      0.2612
    125  O         -0.3000   17.3780  -21.2800 O.2   286  GLY286     -0.2717
    126  N         -2.2510   16.4800  -20.6060 N.am  287  GLY287     -0.1956
    127  CA        -2.2510   15.4350  -21.6130 C.3   287  GLY287      0.1869
    128  C         -2.3490   15.9870  -23.0240 C.2   287  GLY287      0.2309
    129  O         -2.6360   17.1660  -23.2270 O.2   287  GLY287     -0.2863
    130  N         -1.4220   13.7310  -26.8510 N.3   289  TYR289     -0.1241
    131  CA        -0.4490   12.7870  -27.3800 C.3   289  TYR289      0.1605
    132  C         -0.4970   12.6970  -28.9010 C.2   289  TYR289      0.2264
    133  O          0.2780   11.9690  -29.5140 O.2   289  TYR289     -0.2867
    134  CB        -0.6670   11.4280  -26.7170 C.3   289  TYR289      0.0534
    135  CG        -0.6300   11.5750  -25.2150 C.ar  289  TYR289     -0.0201
    136  CD1       -1.8020   11.6810  -24.4740 C.ar  289  TYR289     -0.0009
    137  CD2        0.5810   11.6810  -24.5440 C.ar  289  TYR289     -0.0009
    138  CE1       -1.7650   11.8490  -23.1030 C.ar  289  TYR289      0.0417
    139  CE2        0.6280   11.8460  -23.1750 C.ar  289  TYR289      0.0417
    140  CZ        -0.5450   11.9320  -22.4600 C.ar  289  TYR289      0.1957
    141  OH        -0.4910   12.1010  -21.0970 O.3   289  TYR289     -0.2866
@<TRIPOS>BOND
     1   133   132    2
     2   132   131    1
     3   114   115    1
     4   131   130    1
     5   131   134    1
     6   116   117    2
     7   116   115    1
     8   134   135    1
     9   115   118    1
    10   118   119    1
    11   109   108    2
    12   108   107    1
    13   135   137   ar
    14   135   136   ar
    15   107   106    1
    16   107   110    1
    17   119   120    1
    18   137   139   ar
    19     4     3    2
    20   136   138   ar
    21   110   111    1
    22     3     2    1
    23   120   121    1
    24   129   128    2
    25   139   140   ar
    26   138   140   ar
    27     1     2    1
    28   128   127    1
    29     2     5    1
    30   111   112   ar
    31   111   113   ar
    32   140   141    1
    33   127   126    1
    34     5     6    1
    35    70    68   ar
    36    70    69   ar
    37    68    66   ar
    38   125   124    2
    39   126   124   am
    40   124   123    1
    41    69    67   ar
    42    93    94   ar
    43    93    91   ar
    44    66    65   ar
    45     6     7    1
    46     7     8    1
    47    94    92   ar
    48   122   123    1
    49     8     9    1
    50    35    33   ar
    51    35    34   ar
    52    67    65   ar
    53    65    64    1
    54    91    90   ar
    55    79    78    1
    56    79    80    2
    57    84    82   ar
    58    33    31   ar
    59    78    77    1
    60    78    81    1
    61    83    82   ar
    62    82    81    1
    63    34    32   ar
    64    92    90   ar
    65    64    61    1
    66    85    86    1
    67    90    89    1
    68    13    12    2
    69    31    30   ar
    70    31    29   ar
    71    32    29   ar
    72    86    89    1
    73    86    87    1
    74    30    28   ar
    75    16    18   ar
    76    16    15   ar
    77    14    15    1
    78    14    11    1
    79    61    60    1
    80    61    62    1
    81    12    11    1
    82    29    27   ar
    83    18    20   ar
    84    95    96    1
    85    63    62    2
    86    15    17   ar
    87    11    10    1
    88    59    58    2
    89    99    96    1
    90    99   100    1
    91    60    58   am
    92    98    97    2
    93    58    57    1
    94    62    71   am
    95    87    88    2
    96    28    27   ar
    97   101   100   ar
    98   101   103   ar
    99    96    97    1
   100    20    21    1
   101    20    19   ar
   102    27    26    1
   103    17    19   ar
   104   100   102   ar
   105    45    44   ar
   106    45    43   ar
   107    57    56    1
   108    44    42   ar
   109    55    53   ar
   110    55    54   ar
   111   103   105   ar
   112    53    51   ar
   113    71    72    1
   114   102   104   ar
   115    22    23    1
   116    43    41   ar
   117    76    75    1
   118    23    26    1
   119    23    24    1
   120    42    41   ar
   121    54    52   ar
   122   105   104   ar
   123    72    75    1
   124    72    73    1
   125    41    40    1
   126    51    52   ar
   127    51    50    1
   128    36    24   am
   129    36    37    1
   130    24    25    2
   131    73    74    2
   132    50    47    1
   133    40    37    1
   134    37    38    1
   135    46    47    1
   136    46    38   am
   137    47    48    1
   138    38    39    2
   139    48    49    2
