@<TRIPOS>MOLECULE
tmp/4rn2A00.pdb
 125 123 0 0 0
SMALL
GASTEIGER

@<TRIPOS>ATOM
      1  N         27.1680   31.1910   24.9380 N.3    19  LYS19      -0.1245
      2  CA        25.7160   31.0930   24.8170 C.3    19  LYS19       0.1561
      3  C         25.1660   29.8700   25.5490 C.2    19  LYS19       0.2260
      4  O         24.0090   29.8560   25.9670 O.2    19  LYS19      -0.2867
      5  CB        25.3040   31.0510   23.3450 C.3    19  LYS19       0.0271
      6  CG        25.5110   32.3240   22.5880 C.3    19  LYS19       0.0035
      7  CD        25.1190   33.6480   23.1720 C.3    19  LYS19       0.0206
      8  CE        25.5450   34.7910   22.2270 C.3    19  LYS19       0.1093
      9  NZ        26.4090   35.7940   22.9280 N.3    19  LYS19      -0.1314
     10  N         24.6120   21.6850   14.8580 N.3   113  TRP113     -0.1227
     11  CA        24.5930   23.1070   14.5300 C.3   113  TRP113      0.1737
     12  C         24.2940   23.3010   13.0480 C.2   113  TRP113      0.2595
     13  O         25.1820   23.2310   12.2000 O.2   113  TRP113     -0.2718
     14  CB        25.9190   23.7480   14.9330 C.3   113  TRP113      0.0564
     15  CG        26.2140   23.4840   16.3730 C.ar  113  TRP113      0.0003
     16  CD1       27.0930   22.5690   16.8790 C.ar  113  TRP113      0.0946
     17  CD2       25.5860   24.1040   17.5000 C.ar  113  TRP113      0.0152
     18  NE1       27.0660   22.5990   18.2520 N.ar  113  TRP113     -0.2442
     19  CE2       26.1490   23.5330   18.6580 C.ar  113  TRP113      0.0810
     20  CE3       24.6120   25.0980   17.6420 C.ar  113  TRP113      0.0012
     21  CZ2       25.7690   23.9210   19.9400 C.ar  113  TRP113      0.0191
     22  CZ3       24.2370   25.4820   18.9160 C.ar  113  TRP113      0.0001
     23  CH2       24.8130   24.8940   20.0470 C.ar  113  TRP113      0.0015
     24  N         23.0240   23.5600   12.7590 N.am  114  HIS114     -0.1961
     25  CA        22.4810   23.4200   11.4140 C.3   114  HIS114      0.1787
     26  C         22.2170   24.7340   10.6770 C.2   114  HIS114      0.2620
     27  O         21.6730   24.7230    9.5740 O.2   114  HIS114     -0.2715
     28  CB        21.1790   22.6170   11.4800 C.3   114  HIS114      0.0785
     29  CG        20.1160   23.2570   12.3200 C.ar  114  HIS114      0.0821
     30  ND1       18.8320   22.7630   12.3950 N.ar  114  HIS114     -0.2267
     31  CD2       20.1460   24.3490   13.1200 C.ar  114  HIS114      0.1154
     32  CE1       18.1160   23.5250   13.2030 C.ar  114  HIS114      0.1986
     33  NE2       18.8900   24.4930   13.6580 N.ar  114  HIS114     -0.2212
     34  N         22.5890   25.8590   11.2770 N.am  115  HIS115     -0.1973
     35  CA        22.3130   27.1560   10.6660 C.3   115  HIS115      0.1656
     36  C         23.4900   27.6780    9.8490 C.2   115  HIS115      0.2291
     37  O         23.3220   28.5560    9.0020 O.2   115  HIS115     -0.2864
     38  CB        21.9330   28.1830   11.7350 C.3   115  HIS115      0.0771
     39  CG        20.6020   27.9300   12.3690 C.ar  115  HIS115      0.0820
     40  ND1       19.4140   28.0660   11.6840 N.ar  115  HIS115     -0.2267
     41  CD2       20.2690   27.5580   13.6280 C.ar  115  HIS115      0.1154
     42  CE1       18.4070   27.7840   12.4910 C.ar  115  HIS115      0.1986
     43  NE2       18.9000   27.4710   13.6770 N.ar  115  HIS115     -0.2212
     44  N         23.1270   31.9560   13.6810 N.3   123  GLY123     -0.1210
     45  CA        22.4000   31.3250   14.7700 C.3   123  GLY123      0.1956
     46  C         23.2650   30.5050   15.7100 C.2   123  GLY123      0.2612
     47  O         22.9570   29.3420   15.9800 O.2   123  GLY123     -0.2717
     48  N         24.3500   31.1140   16.1890 N.am  124  PHE124     -0.1962
     49  CA        25.3020   30.4850   17.1110 C.3   124  PHE124      0.1771
     50  C         26.0490   29.3040   16.4850 C.2   124  PHE124      0.2619
     51  O         26.7200   28.5470   17.1860 O.2   124  PHE124     -0.2715
     52  CB        24.5980   30.0210   18.3940 C.3   124  PHE124      0.0574
     53  CG        23.8710   31.1160   19.1210 C.ar  124  PHE124     -0.0200
     54  CD1       22.7500   30.8280   19.8850 C.ar  124  PHE124     -0.0042
     55  CD2       24.3060   32.4290   19.0460 C.ar  124  PHE124     -0.0042
     56  CE1       22.0740   31.8300   20.5560 C.ar  124  PHE124     -0.0003
     57  CE2       23.6350   33.4360   19.7150 C.ar  124  PHE124     -0.0003
     58  CZ        22.5180   33.1360   20.4710 C.ar  124  PHE124     -0.0000
     59  N         25.9400   29.1520   15.1690 N.am  125  CYS125     -0.1968
     60  CA        26.6340   28.0770   14.4680 C.3   125  CYS125      0.1712
     61  C         27.8110   28.6220   13.6690 C.2   125  CYS125      0.2296
     62  O         27.6530   29.5410   12.8650 O.2   125  CYS125     -0.2864
     63  CB        25.6750   27.3280   13.5410 C.3   125  CYS125      0.0983
     64  SG        24.1460   26.7840   14.3350 S.3   125  CYS125     -0.0798
     65  N         14.5440   20.7410   15.7090 N.3   150  ASP150     -0.1239
     66  CA        14.8730   21.9900   16.3840 C.3   150  ASP150      0.1674
     67  C         13.6930   22.9530   16.2820 C.2   150  ASP150      0.2266
     68  O         12.8500   22.8120   15.4000 O.2   150  ASP150     -0.2867
     69  CB        16.1310   22.6100   15.7700 C.3   150  ASP150      0.1410
     70  CG        16.6840   23.7590   16.5870 C.2   150  ASP150      0.3668
     71  OD1       17.7470   23.5820   17.2220 O.co2 150  ASP150     -0.2456
     72  OD2       16.0630   24.8420   16.5890 O.co2 150  ASP150     -0.2456
     73  N         13.9650   25.9730   15.4100 N.3   152  HIS152     -0.1241
     74  CA        14.2470   26.8060   14.2480 C.3   152  HIS152      0.1621
     75  C         14.4470   25.9780   12.9860 C.2   152  HIS152      0.2264
     76  O         14.8510   24.8190   13.0450 O.2   152  HIS152     -0.2867
     77  CB        15.4820   27.6730   14.5010 C.3   152  HIS152      0.0745
     78  CG        15.3850   28.5150   15.7350 C.ar  152  HIS152      0.0817
     79  ND1       15.6390   28.0200   16.9960 N.ar  152  HIS152     -0.2268
     80  CD2       15.0570   29.8180   15.9020 C.ar  152  HIS152      0.1154
     81  CE1       15.4750   28.9820   17.8860 C.ar  152  HIS152      0.1986
     82  NE2       15.1210   30.0830   17.2480 N.ar  152  HIS152     -0.2212
     83  N         13.4420   33.9790   13.5490 N.3   180  PHE180     -0.1241
     84  CA        14.6510   33.4200   12.9470 C.3   180  PHE180      0.1605
     85  C         14.4590   31.9660   12.5070 C.2   180  PHE180      0.2264
     86  O         13.8790   31.1660   13.2420 O.2   180  PHE180     -0.2867
     87  CB        15.8120   33.5270   13.9420 C.3   180  PHE180      0.0534
     88  CG        17.1340   33.0660   13.3970 C.ar  180  PHE180     -0.0203
     89  CD1       17.5880   31.7790   13.6400 C.ar  180  PHE180     -0.0042
     90  CD2       17.9280   33.9240   12.6540 C.ar  180  PHE180     -0.0042
     91  CE1       18.8060   31.3550   13.1470 C.ar  180  PHE180     -0.0003
     92  CE2       19.1480   33.5060   12.1580 C.ar  180  PHE180     -0.0003
     93  CZ        19.5880   32.2200   12.4040 C.ar  180  PHE180     -0.0000
     94  N         15.2910   23.2910   22.2680 N.3   239  ASP239     -0.1239
     95  CA        14.7000   24.6110   22.4580 C.3   239  ASP239      0.1674
     96  C         13.2190   24.6000   22.0740 C.2   239  ASP239      0.2266
     97  O         12.5890   25.6480   21.9440 O.2   239  ASP239     -0.2867
     98  CB        15.4690   25.6710   21.6640 C.3   239  ASP239      0.1410
     99  CG        15.6750   25.2870   20.2150 C.2   239  ASP239      0.3668
    100  OD1       15.3660   24.1360   19.8450 O.co2 239  ASP239     -0.2456
    101  OD2       16.1630   26.1390   19.4450 O.co2 239  ASP239     -0.2456
    102  N         13.4290   30.6970   24.5980 N.3   246  MET246     -0.1245
    103  CA        12.7900   30.9730   23.3180 C.3   246  MET246      0.1570
    104  C         11.2830   31.0850   23.5120 C.2   246  MET246      0.2261
    105  O         10.6260   31.9120   22.8790 O.2   246  MET246     -0.2867
    106  CB        13.1180   29.8820   22.2970 C.3   246  MET246      0.0387
    107  CG        14.5810   29.8240   21.8880 C.3   246  MET246      0.0595
    108  SD        15.1270   31.2950   21.0050 S.3   246  MET246     -0.1393
    109  CE        16.8750   30.9480   20.8220 C.3   246  MET246      0.0692
    110  N         20.0730   23.1640   19.3860 N.3   276  GLY276     -0.1225
    111  CA        19.5350   24.1990   20.2500 C.3   276  GLY276      0.1811
    112  C         19.1350   23.6610   21.6100 C.2   276  GLY276      0.2280
    113  O         19.1590   22.4530   21.8370 O.2   276  GLY276     -0.2866
    114  N         18.4710   26.1390   25.2990 N.3   278  TYR278     -0.1241
    115  CA        19.1490   27.1990   26.0320 C.3   278  TYR278      0.1605
    116  C         18.6860   27.2990   27.4820 C.2   278  TYR278      0.2264
    117  O         19.1790   28.1270   28.2470 O.2   278  TYR278     -0.2867
    118  CB        18.9670   28.5170   25.2830 C.3   278  TYR278      0.0534
    119  CG        19.4550   28.3790   23.8610 C.ar  278  TYR278     -0.0201
    120  CD1       18.5710   28.1320   22.8170 C.ar  278  TYR278     -0.0009
    121  CD2       20.8110   28.4290   23.5710 C.ar  278  TYR278     -0.0009
    122  CE1       19.0260   27.9770   21.5180 C.ar  278  TYR278      0.0417
    123  CE2       21.2740   28.2760   22.2820 C.ar  278  TYR278      0.0417
    124  CZ        20.3810   28.0490   21.2590 C.ar  278  TYR278      0.1957
    125  OH        20.8520   27.8940   19.9760 O.3   278  TYR278     -0.2866
@<TRIPOS>BOND
     1    37    36    2
     2    27    26    2
     3    36    35    1
     4    35    34    1
     5    35    38    1
     6    26    34   am
     7    26    25    1
     8    25    28    1
     9    25    24    1
    10    28    29    1
    11    40    39   ar
    12    40    42   ar
    13    38    39    1
    14    92    93   ar
    15    92    90   ar
    16    13    12    2
    17    29    30   ar
    18    29    31   ar
    19    39    41   ar
    20    30    32   ar
    21    93    91   ar
    22    42    43   ar
    23    85    84    1
    24    85    86    2
    25    90    88   ar
    26    24    12   am
    27    62    61    2
    28    84    83    1
    29    84    87    1
    30    75    76    2
    31    75    74    1
    32    12    11    1
    33    31    33   ar
    34    91    89   ar
    35    32    33   ar
    36    88    89   ar
    37    88    87    1
    38    63    64    1
    39    63    60    1
    40    41    43   ar
    41    61    60    1
    42    44    45    1
    43    74    77    1
    44    74    73    1
    45    60    59    1
    46    77    78    1
    47    11    10    1
    48    11    14    1
    49    45    46    1
    50    14    15    1
    51    59    50   am
    52    68    67    2
    53    65    66    1
    54    46    47    2
    55    46    48   am
    56    78    80   ar
    57    78    79   ar
    58    69    66    1
    59    69    70    1
    60    80    82   ar
    61    48    49    1
    62    67    66    1
    63    15    16   ar
    64    15    17   ar
    65    50    49    1
    66    50    51    2
    67    70    72   ar
    68    70    71   ar
    69    16    18   ar
    70    79    81   ar
    71    49    52    1
    72    82    81   ar
    73    17    20   ar
    74    17    19   ar
    75    20    22   ar
    76    18    19   ar
    77    52    53    1
    78    19    21   ar
    79    22    23   ar
    80    55    53   ar
    81    55    57   ar
    82    53    54   ar
    83   110   111    1
    84   101    99   ar
    85    57    58   ar
    86   100    99   ar
    87    54    56   ar
    88    21    23   ar
    89   125   124    1
    90    99    98    1
    91   111   112    1
    92    58    56   ar
    93   109   108    1
    94   108   107    1
    95   124   122   ar
    96   124   123   ar
    97   122   120   ar
    98   112   113    2
    99    98    95    1
   100   107   106    1
   101    97    96    2
   102    96    95    1
   103     8     9    1
   104     8     7    1
   105    94    95    1
   106   123   121   ar
   107   106   103    1
   108     6     7    1
   109     6     5    1
   110   120   119   ar
   111   105   104    2
   112   103   104    1
   113   103   102    1
   114     5     2    1
   115   121   119   ar
   116   119   118    1
   117     2     1    1
   118     2     3    1
   119   118   115    1
   120   114   115    1
   121     3     4    2
   122   115   116    1
   123   116   117    2
