@<TRIPOS>MOLECULE
tmp/4rn4A00.pdb
 174 168 0 0 0
SMALL
GASTEIGER

@<TRIPOS>ATOM
      1  N         12.8150    0.9530    5.8440 N.3    65  ASN65      -0.1240
      2  CA        11.9460    1.8740    6.5820 C.3    65  ASN65       0.1653
      3  C         10.7650    2.2810    5.7450 C.2    65  ASN65       0.2266
      4  O         10.9280    2.7040    4.5990 O.2    65  ASN65      -0.2867
      5  CB        12.6550    3.1730    6.9960 C.3    65  ASN65       0.1155
      6  CG        13.7730    2.9610    7.9680 C.2    65  ASN65       0.2627
      7  OD1       13.8190    1.9520    8.6560 O.2    65  ASN65      -0.2716
      8  ND2       14.6930    3.9300    8.0300 N.am   65  ASN65      -0.0877
      9  N          8.3070    5.2680    5.6550 N.3    67  GLU67      -0.1245
     10  CA         8.4550    6.6350    6.1610 C.3    67  GLU67       0.1567
     11  C          7.1120    7.3190    6.1240 C.2    67  GLU67       0.2260
     12  O          6.3400    7.0640    5.2090 O.2    67  GLU67      -0.2867
     13  CB         9.4440    7.4340    5.3170 C.3    67  GLU67       0.0388
     14  CG        10.8420    6.8170    5.2730 C.3    67  GLU67       0.1160
     15  CD        11.7010    7.3870    4.1510 C.2    67  GLU67       0.3649
     16  OE1       12.9190    7.1170    4.1470 O.co2  67  GLU67      -0.2457
     17  OE2       11.1550    8.0820    3.2620 O.co2  67  GLU67      -0.2457
     18  N          5.6350   13.4830    8.8730 N.3    70  ASP70      -0.1239
     19  CA         5.5490   13.8570   10.2740 C.3    70  ASP70       0.1674
     20  C          5.6990   15.3720   10.4440 C.2    70  ASP70       0.2266
     21  O          6.2030   15.8450   11.4670 O.2    70  ASP70      -0.2867
     22  CB         6.6140   13.1070   11.0870 C.3    70  ASP70       0.1410
     23  CG         8.0230   13.4350   10.6290 C.2    70  ASP70       0.3668
     24  OD1        8.1750   14.0560    9.5430 O.co2  70  ASP70      -0.2456
     25  OD2        8.9830   13.0440   11.3250 O.co2  70  ASP70      -0.2456
     26  N          7.2470    8.6810   12.7360 N.3    89  ILE89      -0.1231
     27  CA         8.1360    9.0900   11.6340 C.3    89  ILE89       0.1692
     28  C          8.4120    7.9120   10.6760 C.2    89  ILE89       0.2591
     29  O          8.4840    8.0930    9.4730 O.2    89  ILE89      -0.2718
     30  CB         9.4610    9.6990   12.1730 C.3    89  ILE89       0.0266
     31  CG1       10.4590    9.8880   11.0160 C.3    89  ILE89       0.0019
     32  CG2       10.1060    8.8330   13.2340 C.3    89  ILE89       0.0020
     33  CD1       11.7750   10.4900   11.4230 C.3    89  ILE89       0.0001
     34  N          8.5150    6.7060   11.2050 N.am   90  GLN90      -0.1979
     35  CA         8.7580    5.5430   10.3680 C.3    90  GLN90       0.1601
     36  C          8.5040    4.2520   11.1210 C.2    90  GLN90       0.2287
     37  O          8.5000    4.2480   12.3550 O.2    90  GLN90      -0.2864
     38  CB        10.2190    5.5250    9.8440 C.3    90  GLN90       0.0394
     39  CG        11.2640    5.5700   10.9870 C.3    90  GLN90       0.0908
     40  CD        12.0710    4.2780   11.0770 C.2    90  GLN90       0.2608
     41  OE1       11.4950    3.2030   11.1630 O.2    90  GLN90      -0.2717
     42  NE2       13.3770    4.3840   11.1510 N.am   90  GLN90      -0.0878
     43  N          9.9490   -0.0250   10.8730 N.3    92  HIS92      -0.1241
     44  CA        10.8630   -0.9810   10.2710 C.3    92  HIS92       0.1621
     45  C         10.7880   -2.2670   11.0640 C.2    92  HIS92       0.2264
     46  O         10.1610   -2.2990   12.1310 O.2    92  HIS92      -0.2867
     47  CB        12.2970   -0.4660   10.2770 C.3    92  HIS92       0.0745
     48  CG        12.8270   -0.1910   11.6540 C.ar   92  HIS92       0.0817
     49  ND1       12.6550    1.0240   12.2810 N.ar   92  HIS92      -0.2268
     50  CD2       13.5090   -0.9760   12.5280 C.ar   92  HIS92       0.1154
     51  CE1       13.1820    0.9730   13.4890 C.ar   92  HIS92       0.1986
     52  NE2       13.7260   -0.2210   13.6580 N.ar   92  HIS92      -0.2212
     53  N         13.1080   -5.9370   12.3740 N.3    94  HIS94      -0.1241
     54  CA        14.3140   -6.7410   12.5030 C.3    94  HIS94       0.1621
     55  C         13.8640   -8.2060   12.4000 C.2    94  HIS94       0.2264
     56  O         12.7980   -8.5690   12.9380 O.2    94  HIS94      -0.2867
     57  CB        15.0160   -6.4950   13.8340 C.3    94  HIS94       0.0745
     58  CG        15.2910   -5.0460   14.1070 C.ar   94  HIS94       0.0817
     59  ND1       16.5260   -4.4640   13.8970 N.ar   94  HIS94      -0.2268
     60  CD2       14.4800   -4.0640   14.5640 C.ar   94  HIS94       0.1154
     61  CE1       16.4630   -3.1870   14.2390 C.ar   94  HIS94       0.1986
     62  NE2       15.2150   -2.9090   14.5810 N.ar   94  HIS94      -0.2212
     63  N          9.1780   -2.1850   14.7400 N.3   117  HIS117     -0.1241
     64  CA         9.4020   -0.9620   15.4990 C.3   117  HIS117      0.1621
     65  C          8.7420    0.2110   14.8460 C.2   117  HIS117      0.2264
     66  O          9.0720    0.5720   13.7170 O.2   117  HIS117     -0.2867
     67  CB        10.9140   -0.7020   15.6150 C.3   117  HIS117      0.0745
     68  CG        11.6010   -1.6890   16.5010 C.ar  117  HIS117      0.0817
     69  ND1       12.9660   -1.8920   16.4780 N.ar  117  HIS117     -0.2268
     70  CD2       11.1100   -2.5360   17.4360 C.ar  117  HIS117      0.1154
     71  CE1       13.2830   -2.8180   17.3710 C.ar  117  HIS117      0.1986
     72  NE2       12.1760   -3.2180   17.9710 N.ar  117  HIS117     -0.2212
     73  N          8.4880    3.9720   15.1120 N.3   119  VAL119     -0.1245
     74  CA         9.3130    4.9990   15.7520 C.3   119  VAL119      0.1561
     75  C          8.6050    6.3510   15.8080 C.2   119  VAL119      0.2260
     76  O          8.1500    6.8470   14.7710 O.2   119  VAL119     -0.2867
     77  CB        10.6400    5.1440   14.9990 C.3   119  VAL119      0.0252
     78  CG1       11.5530    6.1550   15.7080 C.3   119  VAL119      0.0019
     79  CG2       11.3510    3.7450   14.8270 C.3   119  VAL119      0.0019
     80  N         11.9770   18.7810   16.1760 N.3   127  ASP127     -0.1225
     81  CA        12.3150   17.8800   15.0850 C.3   127  ASP127      0.1805
     82  C         12.9960   16.6320   15.5910 C.2   127  ASP127      0.2598
     83  O         13.4150   16.5530   16.7490 O.2   127  ASP127     -0.2718
     84  CB        13.1740   18.5890   14.0080 C.3   127  ASP127      0.1424
     85  CG        14.5580   19.0230   14.4990 C.2   127  ASP127      0.3668
     86  OD1       15.4140   18.1760   14.8150 O.co2 127  ASP127     -0.2456
     87  OD2       14.8130   20.2390   14.5120 O.co2 127  ASP127     -0.2456
     88  N         13.0850   15.6330   14.7240 N.am  128  PHE128     -0.1962
     89  CA        13.6140   14.3480   15.1190 C.3   128  PHE128      0.1771
     90  C         15.0580   14.4580   15.6040 C.2   128  PHE128      0.2620
     91  O         15.4330   13.8070   16.5800 O.2   128  PHE128     -0.2715
     92  CB        13.5370   13.3500   13.9530 C.3   128  PHE128      0.0574
     93  CG        14.0640   12.0050   14.2940 C.ar  128  PHE128     -0.0200
     94  CD1       13.2390   11.0720   14.8600 C.ar  128  PHE128     -0.0042
     95  CD2       15.4170   11.7030   14.1110 C.ar  128  PHE128     -0.0042
     96  CE1       13.7230    9.8290   15.1910 C.ar  128  PHE128     -0.0003
     97  CE2       15.9000   10.4560   14.4440 C.ar  128  PHE128     -0.0003
     98  CZ        15.0520    9.5240   14.9860 C.ar  128  PHE128     -0.0000
     99  N         15.8690   15.2500   14.8990 N.am  129  GLY129     -0.1954
    100  CA        17.2670   15.3530   15.2360 C.3   129  GLY129      0.1869
    101  C         17.5040   15.9600   16.6090 C.2   129  GLY129      0.2309
    102  O         18.4930   15.6600   17.2860 O.2   129  GLY129     -0.2863
    103  N         16.3540   13.2300   19.4080 N.3   132  VAL132     -0.1245
    104  CA        17.2290   12.0910   19.7620 C.3   132  VAL132      0.1561
    105  C         18.3280   12.4990   20.7320 C.2   132  VAL132      0.2260
    106  O         19.0060   11.6410   21.2990 O.2   132  VAL132     -0.2867
    107  CB        17.8970   11.4220   18.5330 C.3   132  VAL132      0.0252
    108  CG1       16.8580   10.8250   17.6400 C.3   132  VAL132      0.0019
    109  CG2       18.7950   12.4030   17.7700 C.3   132  VAL132      0.0019
    110  N          9.3930    4.2220   20.9790 N.3   140  VAL140     -0.1245
    111  CA         9.2980    3.1760   19.9780 C.3   140  VAL140      0.1561
    112  C          8.3270    2.1000   20.4870 C.2   140  VAL140      0.2260
    113  O          8.4360    1.5880   21.6250 O.2   140  VAL140     -0.2867
    114  CB        10.6710    2.5700   19.6270 C.3   140  VAL140      0.0252
    115  CG1       10.5230    1.5370   18.4760 C.3   140  VAL140      0.0019
    116  CG2       11.6400    3.6770   19.1940 C.3   140  VAL140      0.0019
    117  N         18.1940    3.6390   21.1300 N.3   195  LEU195     -0.1231
    118  CA        18.1650    3.0700   19.7820 C.3   195  LEU195      0.1693
    119  C         18.9160    1.7560   19.8310 C.2   195  LEU195      0.2593
    120  O         19.9160    1.6310   20.5600 O.2   195  LEU195     -0.2718
    121  CB        18.8350    3.9930   18.7770 C.3   195  LEU195      0.0284
    122  CG        18.2770    5.4040   18.6480 C.3   195  LEU195      0.0019
    123  CD1       19.2050    6.2550   17.7890 C.3   195  LEU195      0.0001
    124  CD2       16.8790    5.3200   18.0180 C.3   195  LEU195      0.0001
    125  N         18.4830    0.7920   19.0190 N.am  196  THR196     -0.1939
    126  CA        19.1690   -0.5040   18.9830 C.3   196  THR196      0.2028
    127  C         20.1740   -0.6160   17.8380 C.2   196  THR196      0.2643
    128  O         20.7710   -1.6630   17.6470 O.2   196  THR196     -0.2714
    129  CB        18.1650   -1.6600   18.8520 C.3   196  THR196      0.1808
    130  OG1       17.5250   -1.5850   17.5620 O.3   196  THR196     -0.2208
    131  CG2       17.1030   -1.6250   19.9820 C.3   196  THR196      0.0379
    132  N         20.3330    0.4570   17.0630 N.am  197  THR197     -0.1937
    133  CA        21.3570    0.5600   16.0350 C.3   197  THR197      0.2013
    134  C         22.1890    1.7840   16.3340 C.2   197  THR197      0.2484
    135  O         21.6990    2.7370   16.9350 O.2   197  THR197     -0.2729
    136  CB        20.7710    0.7090   14.6190 C.3   197  THR197      0.1807
    137  OG1       19.9700    1.9060   14.5570 O.3   197  THR197     -0.2208
    138  CG2       19.9180   -0.4860   14.2630 C.3   197  THR197      0.0379
    139  N         23.4540    1.7650   15.9100 N.am  198  PRO198     -0.2715
    140  CA        24.2550    2.9940   15.9650 C.3   198  PRO198      0.1521
    141  C         23.4500    4.1640   15.4050 C.2   198  PRO198      0.2440
    142  O         22.7830    3.9970   14.3670 O.2   198  PRO198     -0.2731
    143  CB        25.4560    2.6520   15.0800 C.3   198  PRO198      0.0310
    144  CG        25.6330    1.1700   15.3150 C.3   198  PRO198      0.0237
    145  CD        24.1880    0.6500   15.2800 C.3   198  PRO198      0.0939
    146  N         23.4880    5.3170   16.0770 N.am  199  PRO199     -0.2727
    147  CA        24.4250    5.6740   17.1600 C.3   199  PRO199      0.1402
    148  C         23.9980    5.2910   18.5920 C.2   199  PRO199      0.2269
    149  O         24.6380    5.7450   19.5340 O.2   199  PRO199     -0.2865
    150  CB        24.5120    7.2040   17.0270 C.3   199  PRO199      0.0296
    151  CG        23.1770    7.5910   16.5560 C.3   199  PRO199      0.0237
    152  CD        22.6980    6.4840   15.6260 C.3   199  PRO199      0.0939
    153  N         21.7670    5.9500   20.7070 N.3   201  LEU201     -0.1245
    154  CA        21.4690    7.0280   21.6360 C.3   201  LEU201      0.1561
    155  C         20.3950    6.6290   22.6610 C.2   201  LEU201      0.2260
    156  O         19.4230    5.9610   22.3330 O.2   201  LEU201     -0.2867
    157  CB        21.0360    8.2810   20.8620 C.3   201  LEU201      0.0270
    158  CG        22.1150    8.8560   19.9480 C.3   201  LEU201      0.0019
    159  CD1       21.5000    9.8960   18.9770 C.3   201  LEU201      0.0001
    160  CD2       23.2830    9.4450   20.7500 C.3   201  LEU201      0.0001
    161  N         10.7010    2.7610   25.5670 N.3   206  TRP206     -0.1241
    162  CA        10.2980    1.5580   24.8560 C.3   206  TRP206      0.1605
    163  C          8.9220    1.1570   25.3300 C.2   206  TRP206      0.2264
    164  O          8.6720    1.1160   26.5380 O.2   206  TRP206     -0.2867
    165  CB        11.3000    0.4040   25.0750 C.3   206  TRP206      0.0550
    166  CG        12.3850    0.5280   24.0980 C.ar  206  TRP206      0.0003
    167  CD1       13.5940    1.1370   24.2930 C.ar  206  TRP206      0.0946
    168  CD2       12.3520    0.1190   22.7240 C.ar  206  TRP206      0.0152
    169  NE1       14.3210    1.1200   23.1260 N.ar  206  TRP206     -0.2442
    170  CE2       13.5770    0.4990   22.1490 C.ar  206  TRP206      0.0810
    171  CE3       11.3980   -0.5310   21.9230 C.ar  206  TRP206      0.0012
    172  CZ2       13.8830    0.2410   20.8150 C.ar  206  TRP206      0.0191
    173  CZ3       11.7030   -0.7870   20.6080 C.ar  206  TRP206      0.0001
    174  CH2       12.9430   -0.4280   20.0740 C.ar  206  TRP206      0.0015
@<TRIPOS>BOND
     1    17    15   ar
     2    16    15   ar
     3    15    14    1
     4     4     3    2
     5    12    11    2
     6    14    13    1
     7    13    10    1
     8     9    10    1
     9     3     2    1
    10     1     2    1
    11    11    10    1
    12     2     5    1
    13     5     6    1
    14     6     8   am
    15     6     7    2
    16    18    19    1
    17    29    28    2
    18    24    23   ar
    19    38    35    1
    20    38    39    1
    21    44    47    1
    22    44    43    1
    23    44    45    1
    24    19    20    1
    25    19    22    1
    26    47    48    1
    27    35    36    1
    28    35    34    1
    29    20    21    2
    30    23    22    1
    31    23    25   ar
    32    28    34   am
    33    28    27    1
    34    39    40    1
    35    31    33    1
    36    31    30    1
    37    45    46    2
    38    40    42   am
    39    40    41    2
    40    36    37    2
    41    27    30    1
    42    27    26    1
    43    48    49   ar
    44    48    50   ar
    45    30    32    1
    46    49    51   ar
    47    53    54    1
    48    55    54    1
    49    55    56    2
    50    54    57    1
    51    50    52   ar
    52    51    52   ar
    53    66    65    2
    54    57    58    1
    55    59    58   ar
    56    59    61   ar
    57    92    93    1
    58    92    89    1
    59    84    85    1
    60    84    81    1
    61    58    60   ar
    62    95    93   ar
    63    95    97   ar
    64    61    62   ar
    65   138   136    1
    66    93    94   ar
    67   142   141    2
    68    97    98   ar
    69    85    87   ar
    70    85    86   ar
    71   137   136    1
    72    60    62   ar
    73   136   133    1
    74    88    89    1
    75    88    82   am
    76    63    64    1
    77    76    75    2
    78    79    77    1
    79    65    64    1
    80    94    96   ar
    81    99   100    1
    82    99    90   am
    83    98    96   ar
    84    77    78    1
    85    77    74    1
    86   143   144    1
    87   143   140    1
    88    81    82    1
    89    81    80    1
    90    73    74    1
    91    89    90    1
    92   100   101    1
    93   145   144    1
    94   145   139    1
    95   141   140    1
    96   141   146   am
    97    64    67    1
    98    82    83    2
    99    90    91    2
   100    67    68    1
   101   152   146    1
   102   152   151    1
   103    74    75    1
   104   139   140    1
   105   139   134   am
   106   133   134    1
   107   133   132    1
   108   146   147    1
   109   134   135    2
   110    69    68   ar
   111    69    71   ar
   112    68    70   ar
   113   151   150    1
   114   101   102    2
   115   150   147    1
   116   132   127   am
   117   147   148    1
   118    71    72   ar
   119    70    72   ar
   120   130   129    1
   121   108   107    1
   122   128   127    2
   123   109   107    1
   124   123   122    1
   125   127   126    1
   126   124   122    1
   127   115   114    1
   128   107   104    1
   129   148   149    2
   130   122   121    1
   131   121   118    1
   132   129   126    1
   133   129   131    1
   134   159   158    1
   135   126   125    1
   136   125   119   am
   137   116   114    1
   138   103   104    1
   139   114   111    1
   140   104   105    1
   141   118   119    1
   142   118   117    1
   143   119   120    2
   144   158   160    1
   145   158   157    1
   146   111   112    1
   147   111   110    1
   148   174   173   ar
   149   174   172   ar
   150   112   113    2
   151   173   171   ar
   152   153   154    1
   153   105   106    2
   154   172   170   ar
   155   157   154    1
   156   154   155    1
   157   171   168   ar
   158   170   168   ar
   159   170   169   ar
   160   156   155    2
   161   168   166   ar
   162   169   167   ar
   163   166   167   ar
   164   166   165    1
   165   162   165    1
   166   162   163    1
   167   162   161    1
   168   163   164    2
