@<TRIPOS>MOLECULE
tmp/4rn7A00.pdb
 82 80 0 0 0
SMALL
GASTEIGER

@<TRIPOS>ATOM
      1  N        -43.0300   15.8190   -9.7490 N.3   100  ARG100     -0.1231
      2  CA       -43.7250   16.9760   -9.1680 C.3   100  ARG100      0.1694
      3  C        -45.2170   16.9720   -9.4710 C.2   100  ARG100      0.2592
      4  O        -45.6400   16.4600  -10.5060 O.2   100  ARG100     -0.2718
      5  CB       -43.0970   18.3050   -9.6250 C.3   100  ARG100      0.0321
      6  CG       -43.6070   18.8340  -10.9610 C.3   100  ARG100      0.0489
      7  CD       -43.0090   20.1990  -11.3210 C.3   100  ARG100      0.2205
      8  NE       -41.5490   20.1450  -11.3410 N.pl3 100  ARG100     -0.0865
      9  CZ       -40.8280   19.8080  -12.4090 C.cat 100  ARG100      0.5346
     10  NH1      -39.5040   19.7600  -12.3350 N.pl3 100  ARG100      0.1354
     11  NH2      -41.4310   19.5100  -13.5570 N.pl3 100  ARG100      0.1354
     12  N        -46.0050   17.5400   -8.5570 N.am  101  ASN101     -0.1960
     13  CA       -47.4520   17.6240   -8.7220 C.3   101  ASN101      0.1819
     14  C        -47.8810   18.1280  -10.1000 C.2   101  ASN101      0.2621
     15  O        -47.4020   19.1680  -10.5570 O.2   101  ASN101     -0.2715
     16  CB       -48.0560   18.5450   -7.6570 C.3   101  ASN101      0.1195
     17  CG       -48.0580   17.9290   -6.2690 C.2   101  ASN101      0.2630
     18  OD1      -47.7920   16.7380   -6.0950 O.2   101  ASN101     -0.2716
     19  ND2      -48.3730   18.7440   -5.2690 N.am  101  ASN101     -0.0877
     20  N        -48.7860   17.3860  -10.7440 N.am  102  LYS102     -0.1963
     21  CA       -49.4050   17.7990  -12.0090 C.3   102  LYS102      0.1728
     22  C        -48.3970   18.1340  -13.1110 C.2   102  LYS102      0.2616
     23  O        -48.6300   19.0300  -13.9250 O.2   102  LYS102     -0.2715
     24  CB       -50.3360   18.9950  -11.7810 C.3   102  LYS102      0.0311
     25  CG       -51.5490   18.6940  -10.9090 C.3   102  LYS102      0.0038
     26  CD       -52.3410   19.9650  -10.6400 C.3   102  LYS102      0.0206
     27  CE       -53.7790   19.6560  -10.2660 C.3   102  LYS102      0.1093
     28  NZ       -54.5580   20.9120  -10.0650 N.3   102  LYS102     -0.1314
     29  N        -47.2840   17.4140  -13.1370 N.am  103  ALA103     -0.1963
     30  CA       -46.2250   17.6970  -14.1020 C.3   103  ALA103      0.1728
     31  C        -46.6990   17.5290  -15.5460 C.2   103  ALA103      0.2617
     32  O        -47.2160   16.4730  -15.9220 O.2   103  ALA103     -0.2715
     33  CB       -45.0220   16.8070  -13.8340 C.3   103  ALA103      0.0334
     34  N        -46.5140   18.5770  -16.3440 N.am  104  THR104     -0.1937
     35  CA       -46.8720   18.5620  -17.7590 C.3   104  THR104      0.2028
     36  C        -45.6270   18.5690  -18.6510 C.2   104  THR104      0.2642
     37  O        -45.7360   18.5040  -19.8760 O.2   104  THR104     -0.2714
     38  CB       -47.7590   19.7780  -18.1300 C.3   104  THR104      0.1808
     39  OG1      -47.0850   21.0000  -17.7990 O.3   104  THR104     -0.2208
     40  CG2      -49.0790   19.7260  -17.3920 C.3   104  THR104      0.0379
     41  N        -44.4480   18.6300  -18.0300 N.am  105  ASP105     -0.1971
     42  CA       -43.2000   18.8400  -18.7610 C.3   105  ASP105      0.1709
     43  C        -42.5040   17.5560  -19.2140 C.2   105  ASP105      0.2293
     44  O        -41.4440   17.6100  -19.8450 O.2   105  ASP105     -0.2864
     45  CB       -42.2310   19.6900  -17.9280 C.3   105  ASP105      0.1436
     46  CG       -41.5940   18.9130  -16.7720 C.2   105  ASP105      0.3671
     47  OD1      -42.1440   17.8740  -16.3460 O.co2 105  ASP105     -0.2456
     48  OD2      -40.5350   19.3530  -16.2720 O.co2 105  ASP105     -0.2456
     49  N        -40.1470   20.2050   -7.1270 N.3   138  ARG138     -0.1231
     50  CA       -41.0310   21.3440   -7.3320 C.3   138  ARG138      0.1694
     51  C        -40.3250   22.5550   -7.9320 C.2   138  ARG138      0.2592
     52  O        -40.8770   23.2250   -8.8160 O.2   138  ARG138     -0.2718
     53  CB       -41.6950   21.7240   -6.0080 C.3   138  ARG138      0.0321
     54  CG       -42.7450   22.8050   -6.1440 C.3   138  ARG138      0.0489
     55  CD       -43.2670   23.2490   -4.7920 C.3   138  ARG138      0.2205
     56  NE       -42.2490   23.9710   -4.0340 N.pl3 138  ARG138     -0.0865
     57  CZ       -41.8240   23.6120   -2.8270 C.cat 138  ARG138      0.5346
     58  NH1      -42.3310   22.5380   -2.2360 N.pl3 138  ARG138      0.1354
     59  NH2      -40.8950   24.3260   -2.2060 N.pl3 138  ARG138      0.1354
     60  N        -39.1100   22.8290   -7.4610 N.am  139  GLU139     -0.1966
     61  CA       -38.4150   24.0560   -7.8340 C.3   139  GLU139      0.1733
     62  C        -37.3530   23.8730   -8.9170 C.2   139  GLU139      0.2617
     63  O        -36.7170   24.8460   -9.3220 O.2   139  GLU139     -0.2715
     64  CB       -37.8040   24.7270   -6.5980 C.3   139  GLU139      0.0429
     65  CG       -38.8130   25.0400   -5.4910 C.3   139  GLU139      0.1163
     66  CD       -39.8360   26.0830   -5.8900 C.2   139  GLU139      0.3649
     67  OE1      -39.6030   26.8100   -6.8750 O.co2 139  GLU139     -0.2457
     68  OE2      -40.8820   26.1780   -5.2150 O.co2 139  GLU139     -0.2457
     69  N        -37.1690   22.6410   -9.3970 N.am  140  SER140     -0.1936
     70  CA       -36.2910   22.4220  -10.5520 C.3   140  SER140      0.2055
     71  C        -37.0190   22.7130  -11.8750 C.2   140  SER140      0.2643
     72  O        -38.2440   22.5570  -11.9700 O.2   140  SER140     -0.2714
     73  CB       -35.7010   21.0090  -10.5350 C.3   140  SER140      0.2130
     74  OG       -36.7060   20.0490  -10.2740 O.3   140  SER140     -0.2179
     75  N        -36.2650   23.1470  -12.8850 N.am  141  ASN141     -0.1971
     76  CA       -36.8400   23.6410  -14.1330 C.3   141  ASN141      0.1688
     77  C        -36.9180   22.6430  -15.2840 C.2   141  ASN141      0.2292
     78  O        -37.3790   22.9880  -16.3760 O.2   141  ASN141     -0.2864
     79  CB       -36.0580   24.8760  -14.6140 C.3   141  ASN141      0.1181
     80  CG       -36.2040   26.0540  -13.6880 C.2   141  ASN141      0.2629
     81  OD1      -37.2280   26.2080  -13.0280 O.2   141  ASN141     -0.2716
     82  ND2      -35.1790   26.9010  -13.6360 N.am  141  ASN141     -0.0877
@<TRIPOS>BOND
     1    37    36    2
     2    44    43    2
     3    43    42    1
     4    42    41    1
     5    42    45    1
     6    36    41   am
     7    36    35    1
     8    38    39    1
     9    38    35    1
    10    38    40    1
    11    45    46    1
    12    35    34    1
    13    46    47   ar
    14    46    48   ar
    15    78    77    2
    16    34    31   am
    17    32    31    2
    18    31    30    1
    19    77    76    1
    20    79    76    1
    21    79    80    1
    22    76    75    1
    23    30    33    1
    24    30    29    1
    25    23    22    2
    26    80    82   am
    27    80    81    2
    28    11     9    1
    29    29    22   am
    30    22    21    1
    31    75    71   am
    32     9    10    1
    33     9     8    2
    34    21    24    1
    35    21    20    1
    36    72    71    2
    37    71    70    1
    38    24    25    1
    39     8     7    1
    40     7     6    1
    41     6     5    1
    42    25    26    1
    43    20    14   am
    44    26    27    1
    45    15    14    2
    46    70    73    1
    47    70    69    1
    48    73    74    1
    49     4     3    2
    50    27    28    1
    51    14    13    1
    52     1     2    1
    53     5     2    1
    54     3     2    1
    55     3    12   am
    56    69    62   am
    57    63    62    2
    58    62    61    1
    59    52    51    2
    60    13    12    1
    61    13    16    1
    62    51    60   am
    63    51    50    1
    64    61    60    1
    65    61    64    1
    66    16    17    1
    67    50    49    1
    68    50    53    1
    69    67    66   ar
    70    64    65    1
    71    17    18    2
    72    17    19   am
    73    54    53    1
    74    54    55    1
    75    66    65    1
    76    66    68   ar
    77    55    56    1
    78    56    57    2
    79    57    58    1
    80    57    59    1
