@<TRIPOS>MOLECULE
tmp/4rngE01.pdb
 96 91 0 0 0
SMALL
GASTEIGER

@<TRIPOS>ATOM
      1  N        -12.8360 -105.7090   38.6550 N.3    40  ILE40      -0.1245
      2  CA       -12.8290 -104.4350   37.9360 C.3    40  ILE40       0.1561
      3  C        -12.1270 -104.5770   36.5710 C.2    40  ILE40       0.2260
      4  O        -12.6630 -104.1830   35.5300 O.2    40  ILE40      -0.2867
      5  CB       -12.1450 -103.3370   38.7270 C.3    40  ILE40       0.0252
      6  CG1      -12.8910 -103.1100   40.0420 C.3    40  ILE40       0.0019
      7  CG2      -12.0570 -102.0720   37.8740 C.3    40  ILE40       0.0019
      8  CD1      -12.2700 -102.0890   40.9150 C.3    40  ILE40       0.0001
      9  N        -14.1270 -106.6330   34.0990 N.3    43  ALA43      -0.1231
     10  CA       -15.1890 -105.8850   33.4100 C.3    43  ALA43       0.1694
     11  C        -14.6160 -105.1370   32.1970 C.2    43  ALA43       0.2591
     12  O        -15.1450 -105.2360   31.0910 O.2    43  ALA43      -0.2718
     13  CB       -15.8830 -104.9200   34.3620 C.3    43  ALA43       0.0304
     14  N        -13.5310 -104.3980   32.3960 N.am   44  ILE44      -0.1980
     15  CA       -12.8940 -103.7310   31.2720 C.3    44  ILE44       0.1595
     16  C        -12.4270 -104.6880   30.1840 C.2    44  ILE44       0.2287
     17  O        -12.7260 -104.4890   29.0200 O.2    44  ILE44      -0.2864
     18  CB       -11.7030 -102.8980   31.7200 C.3    44  ILE44       0.0276
     19  CG1      -12.1940 -101.7270   32.5830 C.3    44  ILE44       0.0022
     20  CG2      -10.9320 -102.3690   30.5000 C.3    44  ILE44       0.0022
     21  CD1      -11.0850 -100.9880   33.2910 C.3    44  ILE44       0.0001
     22  N        -15.3530 -106.0960   28.3430 N.3    47  THR47      -0.1218
     23  CA       -15.9300 -105.0630   27.5000 C.3    47  THR47       0.1862
     24  C        -15.1290 -104.9780   26.1880 C.2    47  THR47       0.2287
     25  O        -15.7050 -104.9050   25.0830 O.2    47  THR47      -0.2866
     26  CB       -15.9730 -103.7050   28.2310 C.3    47  THR47       0.1770
     27  OG1      -17.3730 -103.3380   28.2640 O.3    47  THR47      -0.2211
     28  CG2      -15.0550 -102.6310   27.7290 C.3    47  THR47       0.0375
     29  N        -16.4000 -105.8740   21.9990 N.3    51  PHE51      -0.1241
     30  CA       -16.0630 -105.0630   20.8370 C.3    51  PHE51       0.1605
     31  C        -15.3190 -105.8720   19.7980 C.2    51  PHE51       0.2264
     32  O        -15.6200 -105.8150   18.6060 O.2    51  PHE51      -0.2867
     33  CB       -15.2160 -103.8680   21.2720 C.3    51  PHE51       0.0534
     34  CG       -15.9800 -102.8390   22.0560 C.ar   51  PHE51      -0.0203
     35  CD1      -17.3550 -102.6880   21.8860 C.ar   51  PHE51      -0.0042
     36  CD2      -15.3340 -102.0340   22.9800 C.ar   51  PHE51      -0.0042
     37  CE1      -18.0660 -101.7360   22.6170 C.ar   51  PHE51      -0.0003
     38  CE2      -16.0350 -101.0850   23.7030 C.ar   51  PHE51      -0.0003
     39  CZ       -17.4030 -100.9360   23.5230 C.ar   51  PHE51      -0.0000
     40  N        -20.8250 -109.5130   31.3500 N.3    69  LEU69      -0.1245
     41  CA       -20.6570 -108.1910   31.9600 C.3    69  LEU69       0.1561
     42  C        -21.7240 -107.9310   33.0160 C.2    69  LEU69       0.2260
     43  O        -21.4250 -107.3610   34.0700 O.2    69  LEU69      -0.2867
     44  CB       -20.6950 -107.0580   30.9170 C.3    69  LEU69       0.0270
     45  CG       -19.3830 -106.7610   30.1780 C.3    69  LEU69       0.0019
     46  CD1      -19.6180 -105.8210   29.0210 C.3    69  LEU69       0.0001
     47  CD2      -18.3600 -106.1760   31.1280 C.3    69  LEU69       0.0001
     48  N        -20.6800 -107.1150   36.7620 N.3    73  PHE73      -0.1241
     49  CA       -21.1570 -105.9390   37.4960 C.3    73  PHE73       0.1605
     50  C        -21.8580 -106.2930   38.8030 C.2    73  PHE73       0.2264
     51  O        -21.6040 -105.6550   39.8310 O.2    73  PHE73      -0.2867
     52  CB       -22.0910 -105.1170   36.6220 C.3    73  PHE73       0.0534
     53  CG       -21.3920 -104.4530   35.4970 C.ar   73  PHE73      -0.0203
     54  CD1      -20.1160 -103.9480   35.6730 C.ar   73  PHE73      -0.0042
     55  CD2      -21.9870 -104.3600   34.2540 C.ar   73  PHE73      -0.0042
     56  CE1      -19.4500 -103.3460   34.6330 C.ar   73  PHE73      -0.0003
     57  CE2      -21.3260 -103.7640   33.2140 C.ar   73  PHE73      -0.0003
     58  CZ       -20.0540 -103.2560   33.3960 C.ar   73  PHE73      -0.0000
     59  N        -19.1660 -107.2110   41.2860 N.3    76  ILE76      -0.1231
     60  CA       -18.4580 -106.0320   41.7580 C.3    76  ILE76       0.1692
     61  C        -19.2890 -105.2790   42.7810 C.2    76  ILE76       0.2592
     62  O        -18.7880 -104.8630   43.8370 O.2    76  ILE76      -0.2718
     63  CB       -18.1190 -105.0730   40.6110 C.3    76  ILE76       0.0266
     64  CG1      -17.0810 -105.6960   39.6900 C.3    76  ILE76       0.0019
     65  CG2      -17.5740 -103.7840   41.1640 C.3    76  ILE76       0.0020
     66  CD1      -16.7160 -104.8250   38.5130 C.3    76  ILE76       0.0001
     67  N        -20.5720 -105.1330   42.4600 N.am   77  PHE77      -0.1976
     68  CA       -21.5070 -104.4270   43.3180 C.3    77  PHE77       0.1639
     69  C        -21.5520 -105.0560   44.6930 C.2    77  PHE77       0.2290
     70  O        -21.5510 -104.3710   45.7230 O.2    77  PHE77      -0.2864
     71  CB       -22.8930 -104.4350   42.6940 C.3    77  PHE77       0.0560
     72  CG       -23.9540 -103.7980   43.5470 C.ar   77  PHE77      -0.0200
     73  CD1      -24.2340 -102.4400   43.4240 C.ar   77  PHE77      -0.0042
     74  CD2      -24.7000 -104.5540   44.4420 C.ar   77  PHE77      -0.0042
     75  CE1      -25.2310 -101.8430   44.1870 C.ar   77  PHE77      -0.0003
     76  CE2      -25.6950 -103.9630   45.2130 C.ar   77  PHE77      -0.0003
     77  CZ       -25.9550 -102.6030   45.0860 C.ar   77  PHE77      -0.0000
     78  N        -18.2880 -104.8290   46.7580 N.3    80  ILE80      -0.1231
     79  CA       -18.2530 -103.5110   47.3580 C.3    80  ILE80       0.1692
     80  C        -19.2400 -103.3410   48.5210 C.2    80  ILE80       0.2591
     81  O        -18.8670 -102.7150   49.5070 O.2    80  ILE80      -0.2718
     82  CB       -18.4800 -102.4280   46.2870 C.3    80  ILE80       0.0266
     83  CG1      -17.3050 -102.4270   45.3030 C.3    80  ILE80       0.0019
     84  CG2      -18.4890 -101.0830   46.8930 C.3    80  ILE80       0.0020
     85  CD1      -17.5110 -101.5440   44.0660 C.3    80  ILE80       0.0001
     86  N        -20.4700 -103.8540   48.4630 N.am   81  ARG81      -0.1980
     87  CA       -21.2590 -103.7640   49.6990 C.3    81  ARG81       0.1597
     88  C        -20.7620 -104.7000   50.8150 C.2    81  ARG81       0.2287
     89  O        -20.6380 -104.2950   51.9670 O.2    81  ARG81      -0.2864
     90  CB       -22.7480 -104.0210   49.4890 C.3    81  ARG81       0.0334
     91  CG       -23.4530 -104.1170   50.8490 C.3    81  ARG81       0.0492
     92  CD       -24.9280 -103.8790   50.7690 C.3    81  ARG81       0.2205
     93  NE       -25.6270 -104.7100   49.8090 N.pl3  81  ARG81      -0.0865
     94  CZ       -26.6530 -104.2780   49.0850 C.cat  81  ARG81       0.5346
     95  NH1      -27.2600 -105.1000   48.2400 N.pl3  81  ARG81       0.1354
     96  NH2      -27.0460 -103.0110   49.1850 N.pl3  81  ARG81       0.1354
@<TRIPOS>BOND
     1    32    31    2
     2    31    30    1
     3    30    33    1
     4    30    29    1
     5    33    34    1
     6    35    34   ar
     7    35    37   ar
     8    34    36   ar
     9    37    39   ar
    10    36    38   ar
    11    39    38   ar
    12    25    24    2
    13    24    23    1
    14    23    26    1
    15    23    22    1
    16    28    26    1
    17    26    27    1
    18    17    16    2
    19    46    45    1
    20    45    44    1
    21    45    47    1
    22    16    15    1
    23    20    18    1
    24    44    41    1
    25    12    11    2
    26    15    18    1
    27    15    14    1
    28    40    41    1
    29    18    19    1
    30    41    42    1
    31    11    14   am
    32    11    10    1
    33    19    21    1
    34    42    43    2
    35    57    58   ar
    36    57    55   ar
    37    58    56   ar
    38    10     9    1
    39    10    13    1
    40    55    53   ar
    41    56    54   ar
    42    53    54   ar
    43    53    52    1
    44     4     3    2
    45     3     2    1
    46    52    49    1
    47    48    49    1
    48    49    50    1
    49     7     5    1
    50     2     1    1
    51     2     5    1
    52    66    64    1
    53     5     6    1
    54    50    51    2
    55    64    63    1
    56     6     8    1
    57    63    65    1
    58    63    60    1
    59    59    60    1
    60    60    61    1
    61    67    61   am
    62    67    68    1
    63    71    68    1
    64    71    72    1
    65    61    62    2
    66    68    69    1
    67    73    72   ar
    68    73    75   ar
    69    72    74   ar
    70    85    83    1
    71    75    77   ar
    72    74    76   ar
    73    69    70    2
    74    77    76   ar
    75    83    82    1
    76    82    84    1
    77    82    79    1
    78    78    79    1
    79    79    80    1
    80    95    94    1
    81    86    80   am
    82    86    87    1
    83    80    81    2
    84    94    96    1
    85    94    93    2
    86    90    87    1
    87    90    91    1
    88    87    88    1
    89    93    92    1
    90    92    91    1
    91    88    89    2
