@<TRIPOS>MOLECULE
tmp/4rngB00.pdb
 78 72 0 0 0
SMALL
GASTEIGER

@<TRIPOS>ATOM
      1  N         -3.6620  -95.6960   15.5610 N.3     4  ASN4       -0.1240
      2  CA        -4.5370  -96.4980   16.3980 C.3     4  ASN4        0.1653
      3  C         -3.7540  -97.3420   17.3640 C.2     4  ASN4        0.2266
      4  O         -4.2070  -97.5810   18.4700 O.2     4  ASN4       -0.2867
      5  CB        -5.4320  -97.3890   15.5550 C.3     4  ASN4        0.1155
      6  CG        -6.4800  -96.6070   14.8320 C.2     4  ASN4        0.2627
      7  OD1       -6.7980  -95.4780   15.2140 O.2     4  ASN4       -0.2716
      8  ND2       -7.0080  -97.1810   13.7560 N.am    4  ASN4       -0.0877
      9  N         -2.7460  -94.7540   20.0650 N.3     7  GLY7       -0.1210
     10  CA        -3.9200  -94.2400   20.7460 C.3     7  GLY7        0.1956
     11  C         -4.5340  -95.2800   21.6590 C.2     7  GLY7        0.2611
     12  O         -4.8390  -95.0040   22.8060 O.2     7  GLY7       -0.2717
     13  N         -4.6980  -96.4920   21.1500 N.am    8  ILE8       -0.1979
     14  CA        -5.3050  -97.5660   21.9260 C.3     8  ILE8        0.1595
     15  C         -4.4250  -97.9030   23.1270 C.2     8  ILE8        0.2287
     16  O         -4.9170  -98.0640   24.2520 O.2     8  ILE8       -0.2864
     17  CB        -5.5240  -98.8180   21.0550 C.3     8  ILE8        0.0276
     18  CG1       -6.6390  -98.5530   20.0430 C.3     8  ILE8        0.0022
     19  CG2       -5.9000  -99.9940   21.8820 C.3     8  ILE8        0.0022
     20  CD1       -6.6660  -99.5250   18.8680 C.3     8  ILE8        0.0001
     21  N         -4.6280  -95.0200   25.6590 N.3    11  GLY11      -0.1210
     22  CA        -5.8970  -94.9920   26.3610 C.3    11  GLY11       0.1956
     23  C         -6.0370  -96.1400   27.3330 C.2    11  GLY11       0.2611
     24  O         -6.5740  -95.9890   28.4350 O.2    11  GLY11      -0.2717
     25  N         -5.5130  -97.2890   26.9260 N.am   12  ALA12      -0.1979
     26  CA        -5.5240  -98.4650   27.7580 C.3    12  ALA12       0.1597
     27  C         -4.7540  -98.1910   29.0320 C.2    12  ALA12       0.2287
     28  O         -5.1860  -98.5700   30.1230 O.2    12  ALA12      -0.2864
     29  CB        -4.9390  -99.6370   27.0140 C.3    12  ALA12       0.0319
     30  N         -6.4990  -95.0970   31.1000 N.3    15  THR15      -0.1203
     31  CA        -7.7900  -95.4910   31.6320 C.3    15  THR15       0.1994
     32  C         -7.6260  -96.4370   32.8340 C.2    15  THR15       0.2618
     33  O         -8.1730  -96.1800   33.9060 O.2    15  THR15      -0.2717
     34  CB        -8.6600  -96.1830   30.5680 C.3    15  THR15       0.1784
     35  OG1       -8.8510  -95.3140   29.4390 O.3    15  THR15      -0.2211
     36  CG2      -10.0000  -96.5860   31.1610 C.3    15  THR15       0.0376
     37  N         -6.8440  -97.5010   32.6810 N.am   16  SER16      -0.1951
     38  CA        -6.7220  -98.4760   33.7650 C.3    16  SER16       0.1924
     39  C         -5.9020  -97.9320   34.9140 C.2    16  SER16       0.2314
     40  O         -5.9660  -98.4710   36.0150 O.2    16  SER16      -0.2863
     41  CB        -6.1500  -99.8070   33.2730 C.3    16  SER16       0.2116
     42  OG        -5.1050  -99.6200   32.3630 O.3    16  SER16      -0.2180
     43  N        -11.7230  -92.8050   17.3130 N.3    59  ILE59      -0.1231
     44  CA       -12.3340  -93.7180   18.2590 C.3    59  ILE59       0.1678
     45  C        -11.5150  -93.9600   19.5440 C.2    59  ILE59       0.2434
     46  O        -12.1070  -94.0360   20.6240 O.2    59  ILE59      -0.2733
     47  CB       -12.6720  -95.0530   17.5850 C.3    59  ILE59       0.0265
     48  CG1      -13.8470  -94.8730   16.6210 C.3    59  ILE59       0.0019
     49  CG2      -13.1230  -96.0370   18.6110 C.3    59  ILE59       0.0020
     50  CD1      -13.4850  -94.3290   15.2650 C.3    59  ILE59       0.0001
     51  N        -10.1690  -94.0810   19.4490 N.am   60  PRO60      -0.2729
     52  CA        -9.4560  -94.3060   20.7220 C.3    60  PRO60       0.1401
     53  C         -9.6530  -93.1610   21.7200 C.2    60  PRO60       0.2269
     54  O         -9.6820  -93.4290   22.9320 O.2    60  PRO60      -0.2865
     55  CB        -7.9790  -94.4500   20.3070 C.3    60  PRO60       0.0296
     56  CG        -7.9170  -94.1320   18.8660 C.3    60  PRO60       0.0237
     57  CD        -9.2890  -94.2920   18.2870 C.3    60  PRO60       0.0939
     58  N        -13.4960  -93.8180   23.0440 N.3    63  LEU63      -0.1231
     59  CA       -13.6120  -94.9900   23.9200 C.3    63  LEU63       0.1693
     60  C        -12.8770  -94.8720   25.2530 C.2    63  LEU63       0.2591
     61  O        -13.4130  -95.2840   26.2740 O.2    63  LEU63      -0.2718
     62  CB       -13.1340  -96.2440   23.2030 C.3    63  LEU63       0.0284
     63  CG       -13.3990  -97.5210   23.9940 C.3    63  LEU63       0.0019
     64  CD1      -14.8640  -97.6340   24.3020 C.3    63  LEU63       0.0001
     65  CD2      -12.9270  -98.7180   23.2240 C.3    63  LEU63       0.0001
     66  N        -11.6270  -94.4100   25.2330 N.am   64  ALA64      -0.1980
     67  CA       -10.8570  -94.2460   26.4650 C.3    64  ALA64       0.1597
     68  C        -11.5510  -93.2960   27.4460 C.2    64  ALA64       0.2287
     69  O        -11.5950  -93.5420   28.6530 O.2    64  ALA64      -0.2864
     70  CB        -9.4840  -93.7390   26.1580 C.3    64  ALA64       0.0319
     71  N        -14.8940  -94.7960   29.0250 N.3    67  ILE67      -0.1245
     72  CA       -14.6410  -95.7460   30.0990 C.3    67  ILE67       0.1561
     73  C        -14.0510  -95.0830   31.3410 C.2    67  ILE67       0.2260
     74  O        -14.4450  -95.3960   32.4610 O.2    67  ILE67      -0.2867
     75  CB       -13.6990  -96.8600   29.6620 C.3    67  ILE67       0.0252
     76  CG1      -14.3380  -97.6840   28.5640 C.3    67  ILE67       0.0019
     77  CG2      -13.4010  -97.8110   30.8150 C.3    67  ILE67       0.0019
     78  CD1      -13.3500  -98.6360   27.9100 C.3    67  ILE67       0.0001
@<TRIPOS>BOND
     1     8     6   am
     2     6     7    2
     3     6     5    1
     4    50    48    1
     5     5     2    1
     6     1     2    1
     7     2     3    1
     8    48    47    1
     9    43    44    1
    10     3     4    2
    11    47    44    1
    12    47    49    1
    13    44    45    1
    14    57    56    1
    15    57    51    1
    16    56    55    1
    17    20    18    1
    18    51    45   am
    19    51    52    1
    20    45    46    2
    21    18    17    1
    22     9    10    1
    23    55    52    1
    24    52    53    1
    25    10    11    1
    26    17    19    1
    27    17    14    1
    28    13    11   am
    29    13    14    1
    30    11    12    2
    31    53    54    2
    32    14    15    1
    33    58    59    1
    34    15    16    2
    35    62    59    1
    36    62    63    1
    37    65    63    1
    38    59    60    1
    39    63    64    1
    40    66    60   am
    41    66    67    1
    42    60    61    2
    43    21    22    1
    44    70    67    1
    45    22    23    1
    46    67    68    1
    47    25    23   am
    48    25    26    1
    49    29    26    1
    50    23    24    2
    51    68    69    2
    52    26    27    1
    53    78    76    1
    54    76    75    1
    55    71    72    1
    56    27    28    2
    57    35    34    1
    58    75    72    1
    59    75    77    1
    60    72    73    1
    61    34    36    1
    62    34    31    1
    63    30    31    1
    64    73    74    2
    65    31    32    1
    66    42    41    1
    67    37    32   am
    68    37    38    1
    69    32    33    2
    70    41    38    1
    71    38    39    1
    72    39    40    2
