@<TRIPOS>MOLECULE
tmp/4rnhA00.pdb
 214 201 0 0 0
SMALL
GASTEIGER

@<TRIPOS>ATOM
      1  N         24.0190  -26.7910  -14.1930 N.3   193  GLN193     -0.1245
      2  CA        25.0150  -26.4190  -15.1420 C.3   193  GLN193      0.1566
      3  C         26.1350  -25.6320  -14.4810 C.2   193  GLN193      0.2260
      4  O         25.8800  -24.6150  -13.8350 O.2   193  GLN193     -0.2867
      5  CB        24.4300  -25.5730  -16.2370 C.3   193  GLN193      0.0367
      6  CG        25.5070  -25.1980  -17.2480 C.3   193  GLN193      0.0905
      7  CD        24.9640  -24.7420  -18.5900 C.2   193  GLN193      0.2608
      8  OE1       24.0550  -23.9070  -18.6470 O.2   193  GLN193     -0.2717
      9  NE2       25.5560  -25.2550  -19.6800 N.am  193  GLN193     -0.0878
     10  N         24.3220  -23.4200  -11.8400 N.3   207  GLU207     -0.1231
     11  CA        22.9870  -22.8700  -12.0580 C.3   207  GLU207      0.1699
     12  C         22.0210  -24.0040  -12.0070 C.2   207  GLU207      0.2592
     13  O         22.1880  -24.9670  -12.7450 O.2   207  GLU207     -0.2718
     14  CB        22.8110  -22.1210  -13.4010 C.3   207  GLU207      0.0402
     15  CG        21.3910  -21.5200  -13.5130 C.3   207  GLU207      0.1161
     16  CD        21.0170  -20.8910  -14.8550 C.2   207  GLU207      0.3649
     17  OE1       21.8680  -20.7340  -15.7400 O.co2 207  GLU207     -0.2457
     18  OE2       19.8330  -20.5220  -14.9990 O.co2 207  GLU207     -0.2457
     19  N         21.0110  -23.8960  -11.1430 N.am  208  ALA208     -0.1966
     20  CA        20.0820  -24.9810  -10.9710 C.3   208  ALA208      0.1728
     21  C         19.0170  -24.7830  -12.0070 C.2   208  ALA208      0.2616
     22  O         18.6910  -23.6430  -12.3450 O.2   208  ALA208     -0.2715
     23  CB        19.4980  -24.9860   -9.5870 C.3   208  ALA208      0.0334
     24  N         18.4970  -25.8990  -12.5190 N.am  209  LEU209     -0.1963
     25  CA        17.6170  -25.9060  -13.6980 C.3   209  LEU209      0.1728
     26  C         16.5480  -26.9640  -13.4990 C.2   209  LEU209      0.2616
     27  O         16.8390  -28.1380  -13.4400 O.2   209  LEU209     -0.2715
     28  CB        18.4130  -26.1940  -14.9830 C.3   209  LEU209      0.0311
     29  CG        19.3480  -25.0680  -15.4870 C.3   209  LEU209      0.0022
     30  CD1       20.2830  -25.5320  -16.5770 C.3   209  LEU209      0.0001
     31  CD2       18.5980  -23.8360  -15.9880 C.3   209  LEU209      0.0001
     32  N         15.3030  -26.5440  -13.3820 N.am  210  LEU210     -0.1963
     33  CA        14.2220  -27.4720  -13.1340 C.3   210  LEU210      0.1728
     34  C         13.9370  -28.3670  -14.3850 C.2   210  LEU210      0.2616
     35  O         13.9210  -27.8860  -15.5060 O.2   210  LEU210     -0.2715
     36  CB        13.0130  -26.6630  -12.7720 C.3   210  LEU210      0.0311
     37  CG        11.7850  -27.3850  -12.2710 C.3   210  LEU210      0.0022
     38  CD1       12.1200  -28.1640  -11.0360 C.3   210  LEU210      0.0001
     39  CD2       10.7090  -26.3670  -11.9510 C.3   210  LEU210      0.0001
     40  N         13.7660  -29.6680  -14.1800 N.am  211  ARG211     -0.1977
     41  CA        13.3040  -30.5680  -15.2240 C.3   211  ARG211      0.1597
     42  C         12.1100  -31.3250  -14.7170 C.2   211  ARG211      0.2287
     43  O         11.9240  -31.4460  -13.5020 O.2   211  ARG211     -0.2864
     44  CB        14.3620  -31.5650  -15.5900 C.3   211  ARG211      0.0334
     45  CG        15.7240  -30.9780  -15.8510 C.3   211  ARG211      0.0492
     46  CD        15.7340  -30.3330  -17.1900 C.3   211  ARG211      0.2205
     47  NE        17.0540  -29.8370  -17.5750 N.pl3 211  ARG211     -0.0865
     48  CZ        17.3120  -28.5760  -17.8880 C.cat 211  ARG211      0.5346
     49  NH1       16.3580  -27.6610  -17.8150 N.pl3 211  ARG211      0.1354
     50  NH2       18.5320  -28.2230  -18.2620 N.pl3 211  ARG211      0.1354
     51  N         11.2410  -27.0390  -19.6030 N.3   222  PRO222     -0.2102
     52  CA        10.8620  -26.0090  -18.6380 C.3   222  PRO222      0.1504
     53  C          9.9840  -24.9320  -19.2340 C.2   222  PRO222      0.2576
     54  O          9.0780  -24.4620  -18.5660 O.2   222  PRO222     -0.2718
     55  CB        12.1980  -25.3990  -18.2110 C.3   222  PRO222      0.0282
     56  CG        13.2000  -26.4450  -18.4820 C.3   222  PRO222      0.0208
     57  CD        12.6980  -27.2270  -19.6660 C.3   222  PRO222      0.0893
     58  N         10.2690  -24.5350  -20.4720 N.am  223  SER223     -0.1953
     59  CA         9.4910  -23.5020  -21.1800 C.3   223  SER223      0.1924
     60  C          8.0150  -23.8580  -21.3780 C.2   223  SER223      0.2314
     61  O          7.1690  -22.9790  -21.3090 O.2   223  SER223     -0.2863
     62  CB        10.1170  -23.2230  -22.5380 C.3   223  SER223      0.2116
     63  OG         9.8930  -24.3250  -23.4010 O.3   223  SER223     -0.2180
     64  N          6.6360  -24.4590  -17.0260 N.3   226  ILE226     -0.1245
     65  CA         6.8280  -23.4060  -16.0090 C.3   226  ILE226      0.1561
     66  C          5.7200  -22.3260  -16.0660 C.2   226  ILE226      0.2260
     67  O          5.1180  -21.9820  -15.0290 O.2   226  ILE226     -0.2867
     68  CB         8.2140  -22.7410  -16.0930 C.3   226  ILE226      0.0252
     69  CG1        9.3440  -23.7950  -15.9760 C.3   226  ILE226      0.0019
     70  CG2        8.3100  -21.6450  -15.0280 C.3   226  ILE226      0.0019
     71  CD1       10.2260  -23.7100  -14.7430 C.3   226  ILE226      0.0001
     72  N          3.6960  -22.2940   -8.5790 N.3   235  VAL235     -0.1245
     73  CA         5.0870  -21.9350   -8.7330 C.3   235  VAL235      0.1561
     74  C          5.8020  -21.5850   -7.4110 C.2   235  VAL235      0.2260
     75  O          6.9660  -21.8990   -7.2650 O.2   235  VAL235     -0.2867
     76  CB         5.2630  -20.8090   -9.7540 C.3   235  VAL235      0.0252
     77  CG1        4.9230  -19.4540   -9.1330 C.3   235  VAL235      0.0019
     78  CG2        6.6830  -20.7970  -10.2650 C.3   235  VAL235      0.0019
     79  N         12.2900  -26.4660   -4.9000 N.3   242  LEU242     -0.1245
     80  CA        13.5530  -26.3190   -5.6120 C.3   242  LEU242      0.1561
     81  C         14.6940  -25.7060   -4.7860 C.2   242  LEU242      0.2260
     82  O         15.8350  -26.2140   -4.7490 O.2   242  LEU242     -0.2867
     83  CB        13.2830  -25.5410   -6.8980 C.3   242  LEU242      0.0270
     84  CG        14.4530  -25.0820   -7.7490 C.3   242  LEU242      0.0019
     85  CD1       14.0400  -25.1970   -9.1830 C.3   242  LEU242      0.0001
     86  CD2       14.8600  -23.6500   -7.4680 C.3   242  LEU242      0.0001
     87  N         16.6840  -19.4800  -10.7080 N.3   266  ASN266     -0.1225
     88  CA        15.9000  -18.5510  -11.5060 C.3   266  ASN266      0.1785
     89  C         14.5690  -18.2640  -10.8240 C.2   266  ASN266      0.2597
     90  O         13.9780  -19.1460  -10.2270 O.2   266  ASN266     -0.2718
     91  CB        15.6300  -19.1540  -12.9000 C.3   266  ASN266      0.1169
     92  CG        16.8990  -19.4090  -13.6940 C.2   266  ASN266      0.2627
     93  OD1       17.4300  -18.5210  -14.3670 O.2   266  ASN266     -0.2716
     94  ND2       17.3670  -20.6450  -13.6550 N.am  266  ASN266     -0.0877
     95  N         14.0810  -17.0390  -10.9470 N.am  267  LEU267     -0.1966
     96  CA        12.7880  -16.6510  -10.3700 C.3   267  LEU267      0.1728
     97  C         11.8640  -16.1320  -11.4450 C.2   267  LEU267      0.2616
     98  O         12.2790  -15.3850  -12.3290 O.2   267  LEU267     -0.2715
     99  CB        12.9770  -15.5230   -9.3520 C.3   267  LEU267      0.0311
    100  CG        13.7750  -15.8190   -8.0820 C.3   267  LEU267      0.0022
    101  CD1       13.6010  -14.6650   -7.1210 C.3   267  LEU267      0.0001
    102  CD2       13.3060  -17.1190   -7.4300 C.3   267  LEU267      0.0001
    103  N         10.6030  -16.4870  -11.3520 N.am  268  SER268     -0.1950
    104  CA         9.6370  -15.9300  -12.2650 C.3   268  SER268      0.1924
    105  C          9.1510  -14.5730  -11.7690 C.2   268  SER268      0.2314
    106  O          9.4740  -14.1420  -10.6520 O.2   268  SER268     -0.2863
    107  CB         8.4440  -16.8360  -12.3590 C.3   268  SER268      0.2116
    108  OG         7.9230  -16.9770  -11.0730 O.3   268  SER268     -0.2180
    109  N          6.9490  -15.0990   -8.6240 N.3   271  GLN271     -0.1245
    110  CA         7.7310  -15.3280   -7.3830 C.3   271  GLN271      0.1566
    111  C          8.3020  -14.0350   -6.8800 C.2   271  GLN271      0.2260
    112  O          8.2830  -13.7530   -5.6820 O.2   271  GLN271     -0.2867
    113  CB         8.8630  -16.2890   -7.6120 C.3   271  GLN271      0.0367
    114  CG         8.3960  -17.6930   -7.8610 C.3   271  GLN271      0.0905
    115  CD         9.5130  -18.5510   -8.4450 C.2   271  GLN271      0.2608
    116  OE1        9.8980  -18.4010   -9.6230 O.2   271  GLN271     -0.2717
    117  NE2       10.0490  -19.4410   -7.6220 N.am  271  GLN271     -0.0878
    118  N         18.4430  -15.2550   -9.8970 N.3   298  GLU298     -0.1245
    119  CA        18.5640  -14.8050  -11.2730 C.3   298  GLU298      0.1567
    120  C         17.2440  -14.2470  -11.7440 C.2   298  GLU298      0.2260
    121  O         16.2860  -14.9760  -11.8520 O.2   298  GLU298     -0.2867
    122  CB        18.9730  -15.9470  -12.1990 C.3   298  GLU298      0.0388
    123  CG        20.4520  -16.3080  -12.1420 C.3   298  GLU298      0.1160
    124  CD        20.8330  -17.4240  -13.1190 C.2   298  GLU298      0.3649
    125  OE1       19.9420  -17.9250  -13.8090 O.co2 298  GLU298     -0.2457
    126  OE2       22.0240  -17.8100  -13.2090 O.co2 298  GLU298     -0.2457
    127  N         15.2180  -11.6050  -14.7240 N.3   300  THR300     -0.1218
    128  CA        15.3550  -10.9630  -16.0500 C.3   300  THR300      0.1862
    129  C         15.1640   -9.4740  -15.9470 C.2   300  THR300      0.2287
    130  O         14.4560   -8.9810  -15.0580 O.2   300  THR300     -0.2866
    131  CB        14.3340  -11.4900  -17.0520 C.3   300  THR300      0.1770
    132  OG1       13.0150  -11.3040  -16.5230 O.3   300  THR300     -0.2211
    133  CG2       14.5710  -12.9860  -17.3580 C.3   300  THR300      0.0375
    134  N         19.5660  -11.8910  -15.5030 N.3   328  ASP328     -0.1225
    135  CA        19.5920  -12.9370  -16.4750 C.3   328  ASP328      0.1805
    136  C         19.1820  -12.3790  -17.8400 C.2   328  ASP328      0.2597
    137  O         18.4450  -11.3740  -17.9440 O.2   328  ASP328     -0.2718
    138  CB        18.6050  -14.0200  -16.0210 C.3   328  ASP328      0.1424
    139  CG        18.8160  -15.3700  -16.7170 C.2   328  ASP328      0.3668
    140  OD1       19.7180  -15.4800  -17.5790 O.co2 328  ASP328     -0.2456
    141  OD2       18.0660  -16.3240  -16.3680 O.co2 328  ASP328     -0.2456
    142  N         19.6900  -13.0140  -18.8880 N.am  329  ASP329     -0.1974
    143  CA        19.2500  -12.7380  -20.2740 C.3   329  ASP329      0.1709
    144  C         19.5030  -11.3050  -20.6900 C.2   329  ASP329      0.2293
    145  O         18.8200  -10.7910  -21.5720 O.2   329  ASP329     -0.2864
    146  CB        17.7510  -13.0050  -20.4380 C.3   329  ASP329      0.1436
    147  CG        17.3940  -14.4950  -20.4530 C.2   329  ASP329      0.3671
    148  OD1       18.3120  -15.3850  -20.4810 O.co2 329  ASP329     -0.2456
    149  OD2       16.1490  -14.7410  -20.4790 O.co2 329  ASP329     -0.2456
    150  N         22.5070  -15.6830  -24.3800 N.3   352  ARG352     -0.1245
    151  CA        23.0900  -16.6410  -25.3330 C.3   352  ARG352      0.1563
    152  C         23.0490  -16.1430  -26.7700 C.2   352  ARG352      0.2260
    153  O         23.9850  -16.3730  -27.5370 O.2   352  ARG352     -0.2867
    154  CB        22.3160  -17.9430  -25.3210 C.3   352  ARG352      0.0307
    155  CG        22.4630  -18.7060  -24.0470 C.3   352  ARG352      0.0489
    156  CD        21.7980  -20.0620  -24.1320 C.3   352  ARG352      0.2205
    157  NE        20.5040  -19.9520  -24.8020 N.pl3 352  ARG352     -0.0865
    158  CZ        19.3160  -19.9890  -24.2020 C.cat 352  ARG352      0.5346
    159  NH1       19.1990  -20.1360  -22.8870 N.pl3 352  ARG352      0.1354
    160  NH2       18.2200  -19.8870  -24.9330 N.pl3 352  ARG352      0.1354
    161  N         26.4810  -16.6020  -20.9950 N.3   385  GLU385     -0.1231
    162  CA        25.7900  -17.8680  -21.0780 C.3   385  GLU385      0.1699
    163  C         25.8070  -18.4210  -22.5040 C.2   385  GLU385      0.2592
    164  O         26.1060  -17.7080  -23.4470 O.2   385  GLU385     -0.2718
    165  CB        24.3730  -17.7630  -20.5170 C.3   385  GLU385      0.0402
    166  CG        23.4030  -16.9010  -21.2880 C.3   385  GLU385      0.1161
    167  CD        21.9530  -17.1050  -20.8360 C.2   385  GLU385      0.3649
    168  OE1       21.7660  -17.4980  -19.6510 O.co2 385  GLU385     -0.2457
    169  OE2       21.0110  -16.8600  -21.6600 O.co2 385  GLU385     -0.2457
    170  N         25.5300  -19.7080  -22.6470 N.am  386  GLY386     -0.1957
    171  CA        25.4820  -20.3430  -23.9600 C.3   386  GLY386      0.1869
    172  C         26.7870  -20.4030  -24.7360 C.2   386  GLY386      0.2309
    173  O         26.7730  -20.5000  -25.9410 O.2   386  GLY386     -0.2863
    174  N         29.4380  -22.1570  -26.4540 N.3   388  GLU388     -0.1245
    175  CA        29.4300  -23.4500  -27.1110 C.3   388  GLU388      0.1567
    176  C         30.6850  -23.7560  -27.9030 C.2   388  GLU388      0.2260
    177  O         30.8350  -24.8740  -28.3770 O.2   388  GLU388     -0.2867
    178  CB        28.2780  -23.5220  -28.1030 C.3   388  GLU388      0.0388
    179  CG        26.8990  -23.4910  -27.4740 C.3   388  GLU388      0.1160
    180  CD        25.7810  -23.5860  -28.5030 C.2   388  GLU388      0.3649
    181  OE1       26.0730  -23.9430  -29.6650 O.co2 388  GLU388     -0.2457
    182  OE2       24.6070  -23.3100  -28.1550 O.co2 388  GLU388     -0.2457
    183  N         29.7150  -19.8920  -19.0340 N.3   405  GLN405     -0.1231
    184  CA        28.7720  -21.0040  -18.8430 C.3   405  GLN405      0.1698
    185  C         28.2260  -21.4860  -20.2050 C.2   405  GLN405      0.2593
    186  O         27.9480  -20.6810  -21.0820 O.2   405  GLN405     -0.2718
    187  CB        27.6420  -20.4710  -17.9970 C.3   405  GLN405      0.0381
    188  CG        26.6200  -21.4600  -17.5000 C.3   405  GLN405      0.0905
    189  CD        25.3690  -20.7640  -16.9370 C.2   405  GLN405      0.2608
    190  OE1       25.4190  -19.6210  -16.4750 O.2   405  GLN405     -0.2717
    191  NE2       24.2460  -21.4670  -16.9780 N.am  405  GLN405     -0.0878
    192  N         28.0800  -22.7870  -20.3920 N.am  406  GLY406     -0.1942
    193  CA        27.6560  -23.3040  -21.7010 C.3   406  GLY406      0.2014
    194  C         27.9790  -24.7560  -22.0240 C.2   406  GLY406      0.2638
    195  O         28.7290  -25.3760  -21.3280 O.2   406  GLY406     -0.2714
    196  N         27.4230  -25.2880  -23.1050 N.am  407  TYR407     -0.1973
    197  CA        27.7040  -26.6880  -23.5250 C.3   407  TYR407      0.1639
    198  C         29.1830  -26.9790  -23.8040 C.2   407  TYR407      0.2290
    199  O         29.6370  -28.0930  -23.6230 O.2   407  TYR407     -0.2864
    200  CB        26.8710  -27.1230  -24.7360 C.3   407  TYR407      0.0560
    201  CG        25.3550  -27.0700  -24.5380 C.ar  407  TYR407     -0.0198
    202  CD1       24.7740  -27.3740  -23.3020 C.ar  407  TYR407     -0.0009
    203  CD2       24.4950  -26.7400  -25.6020 C.ar  407  TYR407     -0.0009
    204  CE1       23.4050  -27.3420  -23.1230 C.ar  407  TYR407      0.0417
    205  CE2       23.1130  -26.7090  -25.4240 C.ar  407  TYR407      0.0417
    206  CZ        22.5810  -27.0200  -24.1760 C.ar  407  TYR407      0.1957
    207  OH        21.2240  -26.9920  -23.9600 O.3   407  TYR407     -0.2866
    208  N         23.9650  -29.3860  -18.5910 N.3   412  PRO412     -0.2116
    209  CA        23.3030  -29.5270  -17.2930 C.3   412  PRO412      0.1372
    210  C         23.1850  -30.9770  -16.8910 C.2   412  PRO412      0.2244
    211  O         23.0250  -31.8490  -17.7170 O.2   412  PRO412     -0.2868
    212  CB        21.9100  -28.9560  -17.5310 C.3   412  PRO412      0.0268
    213  CG        22.0770  -28.0250  -18.6660 C.3   412  PRO412      0.0207
    214  CD        23.1060  -28.6690  -19.5430 C.3   412  PRO412      0.0892
@<TRIPOS>BOND
     1   181   180   ar
     2   180   182   ar
     3   180   179    1
     4   177   176    2
     5   178   179    1
     6   178   175    1
     7   176   175    1
     8   153   152    2
     9   175   174    1
    10   152   151    1
    11   173   172    2
    12   203   205   ar
    13   203   201   ar
    14   205   206   ar
    15   151   154    1
    16   151   150    1
    17   154   155    1
    18   160   158    1
    19   157   158    2
    20   157   156    1
    21   172   171    1
    22   200   201    1
    23   200   197    1
    24   201   202   ar
    25   158   159    1
    26   206   207    1
    27   206   204   ar
    28   156   155    1
    29   171   170    1
    30   198   199    2
    31   198   197    1
    32   197   196    1
    33   164   163    2
    34    63    62    1
    35   202   204   ar
    36   196   194   am
    37   170   163   am
    38    62    59    1
    39   163   162    1
    40   194   193    1
    41   194   195    2
    42   193   192    1
    43   169   167   ar
    44   145   144    2
    45    60    61    2
    46    60    59    1
    47   166   167    1
    48   166   165    1
    49    59    58    1
    50   186   185    2
    51   162   161    1
    52   162   165    1
    53   167   168   ar
    54   144   143    1
    55   148   147   ar
    56   149   147   ar
    57    58    53   am
    58   147   146    1
    59   146   143    1
    60   192   185   am
    61   143   142    1
    62   185   184    1
    63     9     7   am
    64    57    51    1
    65    57    56    1
    66    51    52    1
    67   214   213    1
    68   214   208    1
    69    53    52    1
    70    53    54    2
    71   183   184    1
    72   142   136   am
    73   184   187    1
    74   213   212    1
    75     8     7    2
    76    52    55    1
    77   208   209    1
    78     7     6    1
    79    56    55    1
    80    50    48    1
    81   187   188    1
    82   137   136    2
    83    48    49    1
    84    48    47    2
    85   136   135    1
    86   211   210    2
    87   140   139   ar
    88    47    46    1
    89   212   209    1
    90   188   189    1
    91   133   131    1
    92   209   210    1
    93     6     5    1
    94    46    45    1
    95   131   132    1
    96   131   128    1
    97    64    65    1
    98   191   189   am
    99   189   190    2
   100   139   141   ar
   101   139   138    1
   102    30    29    1
   103   135   138    1
   104   135   134    1
   105     5     2    1
   106    68    65    1
   107    68    69    1
   108    68    70    1
   109    66    65    1
   110    66    67    2
   111   128   129    1
   112   128   127    1
   113    31    29    1
   114    69    71    1
   115   129   130    2
   116    45    44    1
   117    17    16   ar
   118    44    41    1
   119    35    34    2
   120    29    28    1
   121    41    42    1
   122    41    40    1
   123     2     3    1
   124     2     1    1
   125    18    16   ar
   126    28    25    1
   127    16    15    1
   128    42    43    2
   129     3     4    2
   130    34    40   am
   131    34    33    1
   132    93    92    2
   133   125   124   ar
   134    25    26    1
   135    25    24    1
   136    92    94   am
   137    92    91    1
   138    15    14    1
   139    26    27    2
   140    26    32   am
   141    14    11    1
   142    32    33    1
   143   126   124   ar
   144    33    36    1
   145   124   123    1
   146    91    88    1
   147    36    37    1
   148    13    12    2
   149    24    21   am
   150   107   104    1
   151   107   108    1
   152    22    21    2
   153    98    97    2
   154    37    39    1
   155    37    38    1
   156   104   105    1
   157   104   103    1
   158   122   123    1
   159   122   119    1
   160    11    12    1
   161    11    10    1
   162    21    20    1
   163    12    19   am
   164   121   120    2
   165   105   106    2
   166   120   119    1
   167    88    89    1
   168    88    87    1
   169    97   103   am
   170    97    96    1
   171   119   118    1
   172    19    20    1
   173    20    23    1
   174    95    89   am
   175    95    96    1
   176    89    90    2
   177    96    99    1
   178    78    76    1
   179    76    77    1
   180    76    73    1
   181   116   115    2
   182    99   100    1
   183    85    84    1
   184    73    72    1
   185    73    74    1
   186   109   110    1
   187   115   114    1
   188   115   117   am
   189   100   102    1
   190   100   101    1
   191   114   113    1
   192    84    86    1
   193    84    83    1
   194   113   110    1
   195    74    75    2
   196   110   111    1
   197    83    80    1
   198   111   112    2
   199    80    79    1
   200    80    81    1
   201    81    82    2
