@<TRIPOS>MOLECULE
tmp/4rnqA02.pdb
 137 127 0 0 0
SMALL
GASTEIGER

@<TRIPOS>ATOM
      1  N         13.2730   77.6110   10.5590 N.3   252  ARG252     -0.1245
      2  CA        13.8730   76.3280   10.2930 C.3   252  ARG252      0.1563
      3  C         13.4100   75.3030   11.3150 C.2   252  ARG252      0.2260
      4  O         13.4510   75.5600   12.5150 O.2   252  ARG252     -0.2867
      5  CB        15.3890   76.4650   10.3090 C.3   252  ARG252      0.0307
      6  CG        15.9160   77.2030    9.1080 C.3   252  ARG252      0.0489
      7  CD        17.4070   77.3850    9.1470 C.3   252  ARG252      0.2205
      8  NE        17.8110   78.1440   10.3230 N.pl3 252  ARG252     -0.0865
      9  CZ        19.0200   78.6700   10.4860 C.cat 252  ARG252      0.5346
     10  NH1       19.9360   78.5210    9.5390 N.pl3 252  ARG252      0.1354
     11  NH2       19.3100   79.3460   11.5920 N.pl3 252  ARG252      0.1354
     12  N         16.8170   83.4700   16.0060 N.3   289  ASP289     -0.1239
     13  CA        17.6650   83.8350   14.8740 C.3   289  ASP289      0.1674
     14  C         16.8610   83.9790   13.5850 C.2   289  ASP289      0.2266
     15  O         17.0930   84.8970   12.8170 O.2   289  ASP289     -0.2867
     16  CB        18.7780   82.8030   14.6830 C.3   289  ASP289      0.1410
     17  CG        19.6990   83.1320   13.5130 C.2   289  ASP289      0.3668
     18  OD1       19.3790   82.7220   12.3750 O.co2 289  ASP289     -0.2456
     19  OD2       20.7520   83.7750   13.7360 O.co2 289  ASP289     -0.2456
     20  N         16.2180   87.2350   11.2720 N.3   293  ASP293     -0.1239
     21  CA        16.8860   87.0310    9.9860 C.3   293  ASP293      0.1674
     22  C         15.9570   86.8450    8.7870 C.2   293  ASP293      0.2266
     23  O         16.3980   86.9620    7.6470 O.2   293  ASP293     -0.2867
     24  CB        17.8050   85.8080   10.0900 C.3   293  ASP293      0.1410
     25  CG        19.0160   85.8920    9.1860 C.2   293  ASP293      0.3668
     26  OD1       18.9000   86.4450    8.0720 O.co2 293  ASP293     -0.2456
     27  OD2       20.0900   85.3920    9.5940 O.co2 293  ASP293     -0.2456
     28  N         21.6510   90.5100   17.6860 N.3   364  TYR364     -0.1241
     29  CA        20.7100   90.2370   16.6010 C.3   364  TYR364      0.1605
     30  C         20.0520   91.5390   16.1290 C.2   364  TYR364      0.2264
     31  O         19.9060   91.7890   14.9330 O.2   364  TYR364     -0.2867
     32  CB        19.6350   89.2460   17.0470 C.3   364  TYR364      0.0534
     33  CG        20.0540   87.8020   16.9590 C.ar  364  TYR364     -0.0201
     34  CD1       21.1390   87.4240   16.1820 C.ar  364  TYR364     -0.0009
     35  CD2       19.3590   86.8120   17.6470 C.ar  364  TYR364     -0.0009
     36  CE1       21.5250   86.1090   16.0960 C.ar  364  TYR364      0.0417
     37  CE2       19.7420   85.4840   17.5700 C.ar  364  TYR364      0.0417
     38  CZ        20.8210   85.1400   16.7880 C.ar  364  TYR364      0.1957
     39  OH        21.2010   83.8250   16.6920 O.3   364  TYR364     -0.2866
     40  N         22.7210   93.9240   14.3160 N.3   367  GLU367     -0.1245
     41  CA        22.8130   93.2640   13.0160 C.3   367  GLU367      0.1567
     42  C         21.6490   93.6220   12.0870 C.2   367  GLU367      0.2260
     43  O         21.8480   93.9890   10.9220 O.2   367  GLU367     -0.2867
     44  CB        22.8630   91.7640   13.2590 C.3   367  GLU367      0.0388
     45  CG        23.4220   90.9010   12.1640 C.3   367  GLU367      0.1160
     46  CD        23.5740   89.4680   12.6440 C.2   367  GLU367      0.3649
     47  OE1       24.7030   89.0650   13.0340 O.co2 367  GLU367     -0.2457
     48  OE2       22.5490   88.7580   12.6620 O.co2 367  GLU367     -0.2457
     49  N         26.5740   86.8660   18.0260 N.3   389  THR389     -0.1203
     50  CA        25.5150   86.3140   17.1680 C.3   389  THR389      0.1994
     51  C         25.7770   84.8630   16.6900 C.2   389  THR389      0.2618
     52  O         24.8690   84.2140   16.1520 O.2   389  THR389     -0.2717
     53  CB        25.2530   87.2000   15.9220 C.3   389  THR389      0.1784
     54  OG1       26.4370   87.2920   15.1250 O.3   389  THR389     -0.2211
     55  CG2       24.7850   88.6120   16.3350 C.3   389  THR389      0.0376
     56  N         26.9900   84.3500   16.9020 N.am  390  THR390     -0.1952
     57  CA        27.2530   82.9210   16.6730 C.3   390  THR390      0.1897
     58  C         26.4300   82.0800   17.6370 C.2   390  THR390      0.2313
     59  O         26.1910   80.9100   17.3860 O.2   390  THR390     -0.2863
     60  CB        28.7570   82.5340   16.8510 C.3   390  THR390      0.1794
     61  OG1       29.1550   82.6940   18.2240 O.3   390  THR390     -0.2208
     62  CG2       29.6540   83.3710   15.9480 C.3   390  THR390      0.0378
     63  N         32.1570   81.8860   13.7590 N.3   429  ARG429     -0.1245
     64  CA        31.9080   83.0910   12.9720 C.3   429  ARG429      0.1563
     65  C         32.5280   83.0320   11.5720 C.2   429  ARG429      0.2260
     66  O         31.8230   83.2370   10.5770 O.2   429  ARG429     -0.2867
     67  CB        32.4330   84.3220   13.6930 C.3   429  ARG429      0.0307
     68  CG        32.2480   85.5770   12.8820 C.3   429  ARG429      0.0489
     69  CD        30.8390   86.1200   13.0150 C.3   429  ARG429      0.2205
     70  NE        29.9130   85.4760   12.0980 N.pl3 429  ARG429     -0.0865
     71  CZ        28.6680   85.1330   12.4050 C.cat 429  ARG429      0.5346
     72  NH1       28.1780   85.3670   13.6150 N.pl3 429  ARG429      0.1354
     73  NH2       27.9160   84.5520   11.4890 N.pl3 429  ARG429      0.1354
     74  N         30.9480   80.2280    9.3700 N.3   432  ASP432     -0.1225
     75  CA        29.6020   80.6180    8.9580 C.3   432  ASP432      0.1805
     76  C         29.6200   81.6720    7.8510 C.2   432  ASP432      0.2597
     77  O         28.8840   81.5530    6.8770 O.2   432  ASP432     -0.2718
     78  CB        28.7970   81.1310   10.1450 C.3   432  ASP432      0.1424
     79  CG        27.3330   81.3390    9.8040 C.2   432  ASP432      0.3668
     80  OD1       26.8300   80.6680    8.8750 O.co2 432  ASP432     -0.2456
     81  OD2       26.6810   82.1700   10.4640 O.co2 432  ASP432     -0.2456
     82  N         30.4730   82.6820    7.9740 N.am  433  ASP433     -0.1974
     83  CA        30.5000   83.7230    6.9620 C.3   433  ASP433      0.1709
     84  C         31.0700   83.2360    5.6390 C.2   433  ASP433      0.2293
     85  O         30.6540   83.6790    4.5720 O.2   433  ASP433     -0.2864
     86  CB        31.2830   84.9380    7.4650 C.3   433  ASP433      0.1436
     87  CG        30.5920   85.6200    8.6320 C.2   433  ASP433      0.3671
     88  OD1       29.4000   85.3230    8.8800 O.co2 433  ASP433     -0.2456
     89  OD2       31.2360   86.4400    9.3080 O.co2 433  ASP433     -0.2456
     90  N         28.1410   80.8460    4.0790 N.3   436  THR436     -0.1218
     91  CA        26.9180   81.5500    3.7280 C.3   436  THR436      0.1862
     92  C         27.2150   82.9170    3.1320 C.2   436  THR436      0.2287
     93  O         26.4760   83.8680    3.3690 O.2   436  THR436     -0.2866
     94  CB        25.9930   81.7310    4.9500 C.3   436  THR436      0.1770
     95  OG1       26.4120   82.8770    5.7050 O.3   436  THR436     -0.2211
     96  CG2       26.0050   80.4810    5.8360 C.3   436  THR436      0.0375
     97  N         23.7440   84.5480    1.0300 N.3   440  GLU440     -0.1245
     98  CA        23.1040   85.7930    1.4090 C.3   440  GLU440      0.1567
     99  C         23.7710   87.0180    0.7990 C.2   440  GLU440      0.2260
    100  O         23.6270   88.1210    1.3180 O.2   440  GLU440     -0.2867
    101  CB        23.0810   85.9090    2.9300 C.3   440  GLU440      0.0388
    102  CG        22.3160   84.7810    3.5930 C.3   440  GLU440      0.1160
    103  CD        22.7520   84.5400    5.0180 C.2   440  GLU440      0.3649
    104  OE1       23.8100   85.0790    5.4160 O.co2 440  GLU440     -0.2457
    105  OE2       22.0340   83.8110    5.7380 O.co2 440  GLU440     -0.2457
    106  N         30.1020   72.1930    8.3950 N.3   508  TYR508     -0.1241
    107  CA        30.3480   73.1100    7.2990 C.3   508  TYR508      0.1605
    108  C         31.4790   72.6230    6.4240 C.2   508  TYR508      0.2264
    109  O         32.0050   73.3790    5.6070 O.2   508  TYR508     -0.2867
    110  CB        30.6440   74.5080    7.8350 C.3   508  TYR508      0.0534
    111  CG        29.4290   75.1950    8.4020 C.ar  508  TYR508     -0.0201
    112  CD1       28.9770   74.9010    9.6820 C.ar  508  TYR508     -0.0009
    113  CD2       28.7240   76.1340    7.6570 C.ar  508  TYR508     -0.0009
    114  CE1       27.8410   75.5180   10.2020 C.ar  508  TYR508      0.0417
    115  CE2       27.5940   76.7600    8.1710 C.ar  508  TYR508      0.0417
    116  CZ        27.1570   76.4450    9.4430 C.ar  508  TYR508      0.1957
    117  OH        26.0390   77.0560    9.9570 O.3   508  TYR508     -0.2866
    118  N         26.4090   75.2700    4.3670 N.3   513  ASP513     -0.1239
    119  CA        25.5760   75.3690    5.5600 C.3   513  ASP513      0.1674
    120  C         24.8510   74.0360    5.8090 C.2   513  ASP513      0.2266
    121  O         23.7120   73.8410    5.3850 O.2   513  ASP513     -0.2867
    122  CB        24.5750   76.5220    5.3960 C.3   513  ASP513      0.1410
    123  CG        23.8570   76.8850    6.6930 C.2   513  ASP513      0.3668
    124  OD1       24.0170   76.1770    7.7140 O.co2 513  ASP513     -0.2456
    125  OD2       23.1140   77.8910    6.6790 O.co2 513  ASP513     -0.2456
    126  N         23.6170   72.9080    8.4470 N.3   515  TYR515     -0.1241
    127  CA        22.5040   72.9930    9.3800 C.3   515  TYR515      0.1605
    128  C         21.2410   73.3840    8.6440 C.2   515  TYR515      0.2264
    129  O         20.1640   72.8470    8.9010 O.2   515  TYR515     -0.2867
    130  CB        22.8000   73.9940   10.4870 C.3   515  TYR515      0.0534
    131  CG        21.6470   74.2320   11.4290 C.ar  515  TYR515     -0.0201
    132  CD1       21.4090   73.3750   12.4940 C.ar  515  TYR515     -0.0009
    133  CD2       20.7980   75.3270   11.2590 C.ar  515  TYR515     -0.0009
    134  CE1       20.3530   73.6010   13.3650 C.ar  515  TYR515      0.0417
    135  CE2       19.7440   75.5580   12.1210 C.ar  515  TYR515      0.0417
    136  CZ        19.5260   74.6940   13.1730 C.ar  515  TYR515      0.1957
    137  OH        18.4780   74.9230   14.0320 O.3   515  TYR515     -0.2866
@<TRIPOS>BOND
     1    99   100    2
     2    99    98    1
     3    97    98    1
     4    98   101    1
     5   101   102    1
     6    92    93    2
     7    92    91    1
     8   102   103    1
     9    91    90    1
    10    91    94    1
    11   118   119    1
    12    85    84    2
    13    94    95    1
    14    94    96    1
    15   103   104   ar
    16   103   105   ar
    17   121   120    2
    18   122   119    1
    19   122   123    1
    20   119   120    1
    21   109   108    2
    22    84    83    1
    23   108   107    1
    24   125   123   ar
    25   123   124   ar
    26    77    76    2
    27    83    86    1
    28    83    82    1
    29   107   110    1
    30   107   106    1
    31    86    87    1
    32    23    22    2
    33   113   115   ar
    34   113   111   ar
    35   110   111    1
    36    76    82   am
    37    76    75    1
    38    26    25   ar
    39   115   116   ar
    40   111   112   ar
    41   126   127    1
    42    87    88   ar
    43    87    89   ar
    44   128   129    2
    45   128   127    1
    46    22    21    1
    47    80    79   ar
    48    75    74    1
    49    75    78    1
    50     6     7    1
    51     6     5    1
    52     7     8    1
    53    25    27   ar
    54    25    24    1
    55   127   130    1
    56   116   117    1
    57   116   114   ar
    58    10     9    1
    59   112   114   ar
    60    79    78    1
    61    79    81   ar
    62    21    24    1
    63    21    20    1
    64     2     5    1
    65     2     1    1
    66     2     3    1
    67     8     9    2
    68     9    11    1
    69   130   131    1
    70    66    65    2
    71    43    42    2
    72   133   131   ar
    73   133   135   ar
    74     3     4    2
    75   131   132   ar
    76    73    71    1
    77    65    64    1
    78    42    41    1
    79    70    71    2
    80    70    69    1
    81   135   136   ar
    82    45    46    1
    83    45    44    1
    84    18    17   ar
    85    71    72    1
    86   132   134   ar
    87    46    48   ar
    88    46    47   ar
    89    15    14    2
    90    68    69    1
    91    68    67    1
    92    64    67    1
    93    64    63    1
    94    41    44    1
    95    41    40    1
    96   136   134   ar
    97   136   137    1
    98    17    19   ar
    99    17    16    1
   100    14    13    1
   101    16    13    1
   102    13    12    1
   103    31    30    2
   104    54    53    1
   105    53    55    1
   106    53    50    1
   107    62    60    1
   108    36    34   ar
   109    36    38   ar
   110    30    29    1
   111    52    51    2
   112    34    33   ar
   113    29    32    1
   114    29    28    1
   115    57    60    1
   116    57    56    1
   117    57    58    1
   118    51    56   am
   119    51    50    1
   120    39    38    1
   121    38    37   ar
   122    60    61    1
   123    33    32    1
   124    33    35   ar
   125    50    49    1
   126    59    58    2
   127    37    35   ar
