@<TRIPOS>MOLECULE
tmp/4rnqA00.pdb
 224 211 0 0 0
SMALL
GASTEIGER

@<TRIPOS>ATOM
      1  N         13.2730   77.6110   10.5590 N.3   252  ARG252     -0.1245
      2  CA        13.8730   76.3280   10.2930 C.3   252  ARG252      0.1563
      3  C         13.4100   75.3030   11.3150 C.2   252  ARG252      0.2260
      4  O         13.4510   75.5600   12.5150 O.2   252  ARG252     -0.2867
      5  CB        15.3890   76.4650   10.3090 C.3   252  ARG252      0.0307
      6  CG        15.9160   77.2030    9.1080 C.3   252  ARG252      0.0489
      7  CD        17.4070   77.3850    9.1470 C.3   252  ARG252      0.2205
      8  NE        17.8110   78.1440   10.3230 N.pl3 252  ARG252     -0.0865
      9  CZ        19.0200   78.6700   10.4860 C.cat 252  ARG252      0.5346
     10  NH1       19.9360   78.5210    9.5390 N.pl3 252  ARG252      0.1354
     11  NH2       19.3100   79.3460   11.5920 N.pl3 252  ARG252      0.1354
     12  N         23.8180   68.3960   17.4610 N.3   261  TRP261     -0.1241
     13  CA        24.7410   69.4020   17.9750 C.3   261  TRP261      0.1605
     14  C         25.0340   69.1840   19.4530 C.2   261  TRP261      0.2264
     15  O         26.1750   69.2750   19.8990 O.2   261  TRP261     -0.2867
     16  CB        24.1650   70.8010   17.7690 C.3   261  TRP261      0.0550
     17  CG        25.1530   71.7810   17.2940 C.ar  261  TRP261      0.0003
     18  CD1       25.9870   72.5520   18.0580 C.ar  261  TRP261      0.0946
     19  CD2       25.4200   72.1270   15.9330 C.ar  261  TRP261      0.0152
     20  NE1       26.7660   73.3560   17.2500 N.ar  261  TRP261     -0.2442
     21  CE2       26.4350   73.1160   15.9430 C.ar  261  TRP261      0.0810
     22  CE3       24.9110   71.6910   14.7040 C.ar  261  TRP261      0.0012
     23  CZ2       26.9470   73.6690   14.7710 C.ar  261  TRP261      0.0191
     24  CZ3       25.4100   72.2550   13.5370 C.ar  261  TRP261      0.0001
     25  CH2       26.4240   73.2310   13.5810 C.ar  261  TRP261      0.0015
     26  N         19.4060   75.3660   22.1420 N.3   282  ILE282     -0.1245
     27  CA        19.8570   75.4900   20.7590 C.3   282  ILE282      0.1561
     28  C         18.6580   75.6710   19.8290 C.2   282  ILE282      0.2260
     29  O         18.6130   76.5550   18.9700 O.2   282  ILE282     -0.2867
     30  CB        20.6510   74.2560   20.3080 C.3   282  ILE282      0.0252
     31  CG1       21.9870   74.1640   21.0490 C.3   282  ILE282      0.0019
     32  CG2       20.8660   74.3040   18.8180 C.3   282  ILE282      0.0019
     33  CD1       22.8530   72.9850   20.6040 C.3   282  ILE282      0.0001
     34  N         16.9740   79.1850   20.3500 N.3   285  ILE285     -0.1231
     35  CA        17.7110   80.3390   19.8540 C.3   285  ILE285      0.1692
     36  C         17.7320   80.3040   18.3220 C.2   285  ILE285      0.2592
     37  O         17.8260   81.3450   17.6700 O.2   285  ILE285     -0.2718
     38  CB        19.1620   80.4230   20.4390 C.3   285  ILE285      0.0266
     39  CG1       19.7710   81.8060   20.1780 C.3   285  ILE285      0.0019
     40  CG2       20.0540   79.3400   19.8780 C.3   285  ILE285      0.0020
     41  CD1       18.9140   82.9710   20.6900 C.3   285  ILE285      0.0001
     42  N         17.6120   79.1130   17.7470 N.am  286  SER286     -0.1952
     43  CA        17.5100   78.9970   16.2990 C.3   286  SER286      0.1924
     44  C         16.2510   79.7140   15.7950 C.2   286  SER286      0.2314
     45  O         16.2640   80.3180   14.7240 O.2   286  SER286     -0.2863
     46  CB        17.4950   77.5280   15.8750 C.3   286  SER286      0.2116
     47  OG        17.2540   77.4100   14.4810 O.3   286  SER286     -0.2180
     48  N         16.8170   83.4700   16.0060 N.3   289  ASP289     -0.1239
     49  CA        17.6650   83.8350   14.8740 C.3   289  ASP289      0.1674
     50  C         16.8610   83.9790   13.5850 C.2   289  ASP289      0.2266
     51  O         17.0930   84.8970   12.8170 O.2   289  ASP289     -0.2867
     52  CB        18.7780   82.8030   14.6830 C.3   289  ASP289      0.1410
     53  CG        19.6990   83.1320   13.5130 C.2   289  ASP289      0.3668
     54  OD1       19.3790   82.7220   12.3750 O.co2 289  ASP289     -0.2456
     55  OD2       20.7520   83.7750   13.7360 O.co2 289  ASP289     -0.2456
     56  N         16.2180   87.2350   11.2720 N.3   293  ASP293     -0.1239
     57  CA        16.8860   87.0310    9.9860 C.3   293  ASP293      0.1674
     58  C         15.9570   86.8450    8.7870 C.2   293  ASP293      0.2266
     59  O         16.3980   86.9620    7.6470 O.2   293  ASP293     -0.2867
     60  CB        17.8050   85.8080   10.0900 C.3   293  ASP293      0.1410
     61  CG        19.0160   85.8920    9.1860 C.2   293  ASP293      0.3668
     62  OD1       18.9000   86.4450    8.0720 O.co2 293  ASP293     -0.2456
     63  OD2       20.0900   85.3920    9.5940 O.co2 293  ASP293     -0.2456
     64  N         21.6510   90.5100   17.6860 N.3   364  TYR364     -0.1241
     65  CA        20.7100   90.2370   16.6010 C.3   364  TYR364      0.1605
     66  C         20.0520   91.5390   16.1290 C.2   364  TYR364      0.2264
     67  O         19.9060   91.7890   14.9330 O.2   364  TYR364     -0.2867
     68  CB        19.6350   89.2460   17.0470 C.3   364  TYR364      0.0534
     69  CG        20.0540   87.8020   16.9590 C.ar  364  TYR364     -0.0201
     70  CD1       21.1390   87.4240   16.1820 C.ar  364  TYR364     -0.0009
     71  CD2       19.3590   86.8120   17.6470 C.ar  364  TYR364     -0.0009
     72  CE1       21.5250   86.1090   16.0960 C.ar  364  TYR364      0.0417
     73  CE2       19.7420   85.4840   17.5700 C.ar  364  TYR364      0.0417
     74  CZ        20.8210   85.1400   16.7880 C.ar  364  TYR364      0.1957
     75  OH        21.2010   83.8250   16.6920 O.3   364  TYR364     -0.2866
     76  N         22.7210   93.9240   14.3160 N.3   367  GLU367     -0.1245
     77  CA        22.8130   93.2640   13.0160 C.3   367  GLU367      0.1567
     78  C         21.6490   93.6220   12.0870 C.2   367  GLU367      0.2260
     79  O         21.8480   93.9890   10.9220 O.2   367  GLU367     -0.2867
     80  CB        22.8630   91.7640   13.2590 C.3   367  GLU367      0.0388
     81  CG        23.4220   90.9010   12.1640 C.3   367  GLU367      0.1160
     82  CD        23.5740   89.4680   12.6440 C.2   367  GLU367      0.3649
     83  OE1       24.7030   89.0650   13.0340 O.co2 367  GLU367     -0.2457
     84  OE2       22.5490   88.7580   12.6620 O.co2 367  GLU367     -0.2457
     85  N         26.5740   86.8660   18.0260 N.3   389  THR389     -0.1203
     86  CA        25.5150   86.3140   17.1680 C.3   389  THR389      0.1994
     87  C         25.7770   84.8630   16.6900 C.2   389  THR389      0.2619
     88  O         24.8690   84.2140   16.1520 O.2   389  THR389     -0.2717
     89  CB        25.2530   87.2000   15.9220 C.3   389  THR389      0.1784
     90  OG1       26.4370   87.2920   15.1250 O.3   389  THR389     -0.2211
     91  CG2       24.7850   88.6120   16.3350 C.3   389  THR389      0.0376
     92  N         26.9900   84.3500   16.9020 N.am  390  THR390     -0.1938
     93  CA        27.2530   82.9210   16.6730 C.3   390  THR390      0.2028
     94  C         26.4300   82.0800   17.6370 C.2   390  THR390      0.2643
     95  O         26.1910   80.9100   17.3860 O.2   390  THR390     -0.2714
     96  CB        28.7570   82.5340   16.8510 C.3   390  THR390      0.1808
     97  OG1       29.1550   82.6940   18.2240 O.3   390  THR390     -0.2208
     98  CG2       29.6540   83.3710   15.9480 C.3   390  THR390      0.0379
     99  N         25.9940   82.7150   18.7240 N.am  391  THR391     -0.1936
    100  CA        25.3200   82.0890   19.8610 C.3   391  THR391      0.2028
    101  C         26.3020   81.2670   20.6820 C.2   391  THR391      0.2642
    102  O         25.9060   80.6210   21.6480 O.2   391  THR391     -0.2714
    103  CB        24.1270   81.1730   19.4420 C.3   391  THR391      0.1808
    104  OG1       24.6300   80.0040   18.7860 O.3   391  THR391     -0.2208
    105  CG2       23.1680   81.9010   18.5120 C.3   391  THR391      0.0379
    106  N         27.5860   81.2960   20.3310 N.am  392  TYR392     -0.1973
    107  CA        28.5020   80.3340   20.9430 C.3   392  TYR392      0.1639
    108  C         28.9330   80.6770   22.3680 C.2   392  TYR392      0.2290
    109  O         29.1690   79.7680   23.1530 O.2   392  TYR392     -0.2864
    110  CB        29.7270   80.1260   20.0690 C.3   392  TYR392      0.0560
    111  CG        29.6530   78.8460   19.2940 C.ar  392  TYR392     -0.0198
    112  CD1       28.4280   78.2590   19.0080 C.ar  392  TYR392     -0.0009
    113  CD2       30.8060   78.1930   18.8750 C.ar  392  TYR392     -0.0009
    114  CE1       28.3530   77.0620   18.3050 C.ar  392  TYR392      0.0417
    115  CE2       30.7410   77.0020   18.1800 C.ar  392  TYR392      0.0417
    116  CZ        29.5150   76.4420   17.9010 C.ar  392  TYR392      0.1957
    117  OH        29.4520   75.2530   17.2160 O.3   392  TYR392     -0.2866
    118  N         25.7450   79.1370   24.0530 N.3   395  LEU395     -0.1245
    119  CA        25.6700   77.6680   24.0850 C.3   395  LEU395      0.1561
    120  C         26.6920   77.0670   25.0440 C.2   395  LEU395      0.2260
    121  O         26.3590   76.1900   25.8360 O.2   395  LEU395     -0.2867
    122  CB        25.8850   77.0760   22.6930 C.3   395  LEU395      0.0270
    123  CG        24.8480   77.4500   21.6440 C.3   395  LEU395      0.0019
    124  CD1       24.9500   76.4700   20.5250 C.3   395  LEU395      0.0001
    125  CD2       23.4610   77.4560   22.2540 C.3   395  LEU395      0.0001
    126  N         33.5070   79.5880   14.7310 N.3   428  CYS428     -0.1221
    127  CA        32.1170   79.5290   14.2800 C.3   428  CYS428      0.1808
    128  C         31.7850   80.6830   13.3370 C.2   428  CYS428      0.2601
    129  O         31.1940   80.4800   12.2590 O.2   428  CYS428     -0.2717
    130  CB        31.1340   79.5490   15.4530 C.3   428  CYS428      0.0970
    131  SG        29.4700   79.3630   14.8740 S.3   428  CYS428     -0.0800
    132  N         32.1570   81.8860   13.7590 N.am  429  ARG429     -0.1979
    133  CA        31.9080   83.0910   12.9720 C.3   429  ARG429      0.1597
    134  C         32.5280   83.0320   11.5720 C.2   429  ARG429      0.2287
    135  O         31.8230   83.2370   10.5770 O.2   429  ARG429     -0.2864
    136  CB        32.4330   84.3220   13.6930 C.3   429  ARG429      0.0334
    137  CG        32.2480   85.5770   12.8820 C.3   429  ARG429      0.0492
    138  CD        30.8390   86.1200   13.0150 C.3   429  ARG429      0.2205
    139  NE        29.9130   85.4760   12.0980 N.pl3 429  ARG429     -0.0865
    140  CZ        28.6680   85.1330   12.4050 C.cat 429  ARG429      0.5346
    141  NH1       28.1780   85.3670   13.6150 N.pl3 429  ARG429      0.1354
    142  NH2       27.9160   84.5520   11.4890 N.pl3 429  ARG429      0.1354
    143  N         30.9480   80.2280    9.3700 N.3   432  ASP432     -0.1225
    144  CA        29.6020   80.6180    8.9580 C.3   432  ASP432      0.1805
    145  C         29.6200   81.6720    7.8510 C.2   432  ASP432      0.2597
    146  O         28.8840   81.5530    6.8770 O.2   432  ASP432     -0.2718
    147  CB        28.7970   81.1310   10.1450 C.3   432  ASP432      0.1424
    148  CG        27.3330   81.3390    9.8040 C.2   432  ASP432      0.3668
    149  OD1       26.8300   80.6680    8.8750 O.co2 432  ASP432     -0.2456
    150  OD2       26.6810   82.1700   10.4640 O.co2 432  ASP432     -0.2456
    151  N         30.4730   82.6820    7.9740 N.am  433  ASP433     -0.1974
    152  CA        30.5000   83.7230    6.9620 C.3   433  ASP433      0.1709
    153  C         31.0700   83.2360    5.6390 C.2   433  ASP433      0.2293
    154  O         30.6540   83.6790    4.5720 O.2   433  ASP433     -0.2864
    155  CB        31.2830   84.9380    7.4650 C.3   433  ASP433      0.1436
    156  CG        30.5920   85.6200    8.6320 C.2   433  ASP433      0.3671
    157  OD1       29.4000   85.3230    8.8800 O.co2 433  ASP433     -0.2456
    158  OD2       31.2360   86.4400    9.3080 O.co2 433  ASP433     -0.2456
    159  N         28.1410   80.8460    4.0790 N.3   436  THR436     -0.1218
    160  CA        26.9180   81.5500    3.7280 C.3   436  THR436      0.1862
    161  C         27.2150   82.9170    3.1320 C.2   436  THR436      0.2287
    162  O         26.4760   83.8680    3.3690 O.2   436  THR436     -0.2866
    163  CB        25.9930   81.7310    4.9500 C.3   436  THR436      0.1770
    164  OG1       26.4120   82.8770    5.7050 O.3   436  THR436     -0.2211
    165  CG2       26.0050   80.4810    5.8360 C.3   436  THR436      0.0375
    166  N         23.7440   84.5480    1.0300 N.3   440  GLU440     -0.1245
    167  CA        23.1040   85.7930    1.4090 C.3   440  GLU440      0.1567
    168  C         23.7710   87.0180    0.7990 C.2   440  GLU440      0.2260
    169  O         23.6270   88.1210    1.3180 O.2   440  GLU440     -0.2867
    170  CB        23.0810   85.9090    2.9300 C.3   440  GLU440      0.0388
    171  CG        22.3160   84.7810    3.5930 C.3   440  GLU440      0.1160
    172  CD        22.7520   84.5400    5.0180 C.2   440  GLU440      0.3649
    173  OE1       23.8100   85.0790    5.4160 O.co2 440  GLU440     -0.2457
    174  OE2       22.0340   83.8110    5.7380 O.co2 440  GLU440     -0.2457
    175  N         20.4590   87.1990   -1.1630 N.3   443  ARG443     -0.1245
    176  CA        19.2780   87.5910   -0.3830 C.3   443  ARG443      0.1563
    177  C         19.2900   89.0640    0.0650 C.2   443  ARG443      0.2260
    178  O         18.5630   89.4490    0.9840 O.2   443  ARG443     -0.2867
    179  CB        19.1340   86.6760    0.8430 C.3   443  ARG443      0.0307
    180  CG        18.0520   85.6080    0.7080 C.3   443  ARG443      0.0489
    181  CD        18.1100   84.6070    1.8540 C.3   443  ARG443      0.2205
    182  NE        18.2550   85.2600    3.1540 N.pl3 443  ARG443     -0.0865
    183  CZ        18.5820   84.6300    4.2800 C.cat 443  ARG443      0.5346
    184  NH1       18.8010   83.3210    4.2750 N.pl3 443  ARG443      0.1354
    185  NH2       18.6940   85.3090    5.4150 N.pl3 443  ARG443      0.1354
    186  N         31.2730   72.7270   14.3550 N.3   504  VAL504     -0.1245
    187  CA        31.2010   73.7280   13.3080 C.3   504  VAL504      0.1561
    188  C         32.0350   73.2820   12.1010 C.2   504  VAL504      0.2260
    189  O         31.5670   73.3620   10.9570 O.2   504  VAL504     -0.2867
    190  CB        31.6530   75.1200   13.8370 C.3   504  VAL504      0.0252
    191  CG1       32.2420   75.9640   12.7430 C.3   504  VAL504      0.0019
    192  CG2       30.4820   75.8340   14.4380 C.3   504  VAL504      0.0019
    193  N         30.1020   72.1930    8.3950 N.3   508  TYR508     -0.1241
    194  CA        30.3480   73.1100    7.2990 C.3   508  TYR508      0.1605
    195  C         31.4790   72.6230    6.4240 C.2   508  TYR508      0.2264
    196  O         32.0050   73.3790    5.6070 O.2   508  TYR508     -0.2867
    197  CB        30.6440   74.5080    7.8350 C.3   508  TYR508      0.0534
    198  CG        29.4290   75.1950    8.4020 C.ar  508  TYR508     -0.0201
    199  CD1       28.9770   74.9010    9.6820 C.ar  508  TYR508     -0.0009
    200  CD2       28.7240   76.1340    7.6570 C.ar  508  TYR508     -0.0009
    201  CE1       27.8410   75.5180   10.2020 C.ar  508  TYR508      0.0417
    202  CE2       27.5940   76.7600    8.1710 C.ar  508  TYR508      0.0417
    203  CZ        27.1570   76.4450    9.4430 C.ar  508  TYR508      0.1957
    204  OH        26.0390   77.0560    9.9570 O.3   508  TYR508     -0.2866
    205  N         26.4090   75.2700    4.3670 N.3   513  ASP513     -0.1239
    206  CA        25.5760   75.3690    5.5600 C.3   513  ASP513      0.1674
    207  C         24.8510   74.0360    5.8090 C.2   513  ASP513      0.2266
    208  O         23.7120   73.8410    5.3850 O.2   513  ASP513     -0.2867
    209  CB        24.5750   76.5220    5.3960 C.3   513  ASP513      0.1410
    210  CG        23.8570   76.8850    6.6930 C.2   513  ASP513      0.3668
    211  OD1       24.0170   76.1770    7.7140 O.co2 513  ASP513     -0.2456
    212  OD2       23.1140   77.8910    6.6790 O.co2 513  ASP513     -0.2456
    213  N         23.6170   72.9080    8.4470 N.3   515  TYR515     -0.1241
    214  CA        22.5040   72.9930    9.3800 C.3   515  TYR515      0.1605
    215  C         21.2410   73.3840    8.6440 C.2   515  TYR515      0.2264
    216  O         20.1640   72.8470    8.9010 O.2   515  TYR515     -0.2867
    217  CB        22.8000   73.9940   10.4870 C.3   515  TYR515      0.0534
    218  CG        21.6470   74.2320   11.4290 C.ar  515  TYR515     -0.0201
    219  CD1       21.4090   73.3750   12.4940 C.ar  515  TYR515     -0.0009
    220  CD2       20.7980   75.3270   11.2590 C.ar  515  TYR515     -0.0009
    221  CE1       20.3530   73.6010   13.3650 C.ar  515  TYR515      0.0417
    222  CE2       19.7440   75.5580   12.1210 C.ar  515  TYR515      0.0417
    223  CZ        19.5260   74.6940   13.1730 C.ar  515  TYR515      0.1957
    224  OH        18.4780   74.9230   14.0320 O.3   515  TYR515     -0.2866
@<TRIPOS>BOND
     1   175   176    1
     2   176   177    1
     3   176   179    1
     4   177   178    2
     5   180   179    1
     6   180   181    1
     7   168   169    2
     8   168   167    1
     9   166   167    1
    10   167   170    1
    11   181   182    1
    12   170   171    1
    13   161   162    2
    14   161   160    1
    15   182   183    2
    16   171   172    1
    17   160   159    1
    18   160   163    1
    19   184   183    1
    20   183   185    1
    21   205   206    1
    22   154   153    2
    23   163   164    1
    24   163   165    1
    25   172   173   ar
    26   172   174   ar
    27   208   207    2
    28   209   206    1
    29   209   210    1
    30   206   207    1
    31   196   195    2
    32   153   152    1
    33   195   194    1
    34   212   210   ar
    35   210   211   ar
    36   146   145    2
    37   152   155    1
    38   152   151    1
    39   194   197    1
    40   194   193    1
    41   155   156    1
    42    59    58    2
    43   200   202   ar
    44   200   198   ar
    45   197   198    1
    46   145   151   am
    47   145   144    1
    48    62    61   ar
    49   202   203   ar
    50   198   199   ar
    51   213   214    1
    52   156   157   ar
    53   156   158   ar
    54   215   216    2
    55   215   214    1
    56    58    57    1
    57   149   148   ar
    58   144   143    1
    59   144   147    1
    60     6     7    1
    61     6     5    1
    62     7     8    1
    63    61    63   ar
    64    61    60    1
    65   214   217    1
    66   203   204    1
    67   203   201   ar
    68    10     9    1
    69   199   201   ar
    70   148   147    1
    71   148   150   ar
    72    57    60    1
    73    57    56    1
    74     2     5    1
    75     2     1    1
    76     2     3    1
    77     8     9    2
    78     9    11    1
    79   217   218    1
    80   135   134    2
    81    79    78    2
    82   189   188    2
    83   220   218   ar
    84   220   222   ar
    85     3     4    2
    86   218   219   ar
    87   142   140    1
    88   134   133    1
    89    78    77    1
    90   139   140    2
    91   139   138    1
    92   188   187    1
    93   222   223   ar
    94    81    82    1
    95    81    80    1
    96   129   128    2
    97    54    53   ar
    98   140   141    1
    99   219   221   ar
   100    82    84   ar
   101    82    83   ar
   102   191   190    1
   103    51    50    2
   104   137   138    1
   105   137   136    1
   106   133   136    1
   107   133   132    1
   108    77    80    1
   109    77    76    1
   110   223   221   ar
   111   223   224    1
   112   187   190    1
   113   187   186    1
   114   128   132   am
   115   128   127    1
   116    53    55   ar
   117    53    52    1
   118    24    25   ar
   119    24    22   ar
   120    25    23   ar
   121    50    49    1
   122   190   192    1
   123   127   126    1
   124   127   130    1
   125    47    46    1
   126    52    49    1
   127    22    19   ar
   128    45    44    2
   129    23    21   ar
   130   131   130    1
   131    49    48    1
   132    67    66    2
   133    90    89    1
   134    44    43    1
   135    46    43    1
   136    89    91    1
   137    89    86    1
   138    19    21   ar
   139    19    17   ar
   140    21    20   ar
   141    98    96    1
   142    72    70   ar
   143    72    74   ar
   144    66    65    1
   145    88    87    2
   146    70    69   ar
   147    43    42    1
   148    65    68    1
   149    65    64    1
   150    93    96    1
   151    93    92    1
   152    93    94    1
   153    87    92   am
   154    87    86    1
   155    75    74    1
   156    74    73   ar
   157    96    97    1
   158    69    68    1
   159    69    71   ar
   160    86    85    1
   161   117   116    1
   162    20    18   ar
   163    17    16    1
   164    17    18   ar
   165    95    94    2
   166    12    13    1
   167    73    71   ar
   168    94    99   am
   169    37    36    2
   170    42    36   am
   171    16    13    1
   172   116   115   ar
   173   116   114   ar
   174    13    14    1
   175   115   113   ar
   176   114   112   ar
   177    36    35    1
   178   105   103    1
   179    99   100    1
   180   104   103    1
   181    32    30    1
   182   113   111   ar
   183    29    28    2
   184   112   111   ar
   185   111   110    1
   186   103   100    1
   187    14    15    2
   188    28    27    1
   189    35    34    1
   190    35    38    1
   191   100   101    1
   192    40    38    1
   193   110   107    1
   194    39    38    1
   195    39    41    1
   196    30    27    1
   197    30    31    1
   198   106   101   am
   199   106   107    1
   200   124   123    1
   201    33    31    1
   202   101   102    2
   203    27    26    1
   204   107   108    1
   205   123   125    1
   206   123   122    1
   207   108   109    2
   208   122   119    1
   209   118   119    1
   210   119   120    1
   211   120   121    2
