@<TRIPOS>MOLECULE
tmp/4rnqA01.pdb
 164 157 0 0 0
SMALL
GASTEIGER

@<TRIPOS>ATOM
      1  N         13.2730   77.6110   10.5590 N.3   252  ARG252     -0.1245
      2  CA        13.8730   76.3280   10.2930 C.3   252  ARG252      0.1563
      3  C         13.4100   75.3030   11.3150 C.2   252  ARG252      0.2260
      4  O         13.4510   75.5600   12.5150 O.2   252  ARG252     -0.2867
      5  CB        15.3890   76.4650   10.3090 C.3   252  ARG252      0.0307
      6  CG        15.9160   77.2030    9.1080 C.3   252  ARG252      0.0489
      7  CD        17.4070   77.3850    9.1470 C.3   252  ARG252      0.2205
      8  NE        17.8110   78.1440   10.3230 N.pl3 252  ARG252     -0.0865
      9  CZ        19.0200   78.6700   10.4860 C.cat 252  ARG252      0.5346
     10  NH1       19.9360   78.5210    9.5390 N.pl3 252  ARG252      0.1354
     11  NH2       19.3100   79.3460   11.5920 N.pl3 252  ARG252      0.1354
     12  N         23.8180   68.3960   17.4610 N.3   261  TRP261     -0.1241
     13  CA        24.7410   69.4020   17.9750 C.3   261  TRP261      0.1605
     14  C         25.0340   69.1840   19.4530 C.2   261  TRP261      0.2264
     15  O         26.1750   69.2750   19.8990 O.2   261  TRP261     -0.2867
     16  CB        24.1650   70.8010   17.7690 C.3   261  TRP261      0.0550
     17  CG        25.1530   71.7810   17.2940 C.ar  261  TRP261      0.0003
     18  CD1       25.9870   72.5520   18.0580 C.ar  261  TRP261      0.0946
     19  CD2       25.4200   72.1270   15.9330 C.ar  261  TRP261      0.0152
     20  NE1       26.7660   73.3560   17.2500 N.ar  261  TRP261     -0.2442
     21  CE2       26.4350   73.1160   15.9430 C.ar  261  TRP261      0.0810
     22  CE3       24.9110   71.6910   14.7040 C.ar  261  TRP261      0.0012
     23  CZ2       26.9470   73.6690   14.7710 C.ar  261  TRP261      0.0191
     24  CZ3       25.4100   72.2550   13.5370 C.ar  261  TRP261      0.0001
     25  CH2       26.4240   73.2310   13.5810 C.ar  261  TRP261      0.0015
     26  N         19.4060   75.3660   22.1420 N.3   282  ILE282     -0.1245
     27  CA        19.8570   75.4900   20.7590 C.3   282  ILE282      0.1561
     28  C         18.6580   75.6710   19.8290 C.2   282  ILE282      0.2260
     29  O         18.6130   76.5550   18.9700 O.2   282  ILE282     -0.2867
     30  CB        20.6510   74.2560   20.3080 C.3   282  ILE282      0.0252
     31  CG1       21.9870   74.1640   21.0490 C.3   282  ILE282      0.0019
     32  CG2       20.8660   74.3040   18.8180 C.3   282  ILE282      0.0019
     33  CD1       22.8530   72.9850   20.6040 C.3   282  ILE282      0.0001
     34  N         16.9740   79.1850   20.3500 N.3   285  ILE285     -0.1231
     35  CA        17.7110   80.3390   19.8540 C.3   285  ILE285      0.1692
     36  C         17.7320   80.3040   18.3220 C.2   285  ILE285      0.2592
     37  O         17.8260   81.3450   17.6700 O.2   285  ILE285     -0.2718
     38  CB        19.1620   80.4230   20.4390 C.3   285  ILE285      0.0266
     39  CG1       19.7710   81.8060   20.1780 C.3   285  ILE285      0.0019
     40  CG2       20.0540   79.3400   19.8780 C.3   285  ILE285      0.0020
     41  CD1       18.9140   82.9710   20.6900 C.3   285  ILE285      0.0001
     42  N         17.6120   79.1130   17.7470 N.am  286  SER286     -0.1952
     43  CA        17.5100   78.9970   16.2990 C.3   286  SER286      0.1924
     44  C         16.2510   79.7140   15.7950 C.2   286  SER286      0.2314
     45  O         16.2640   80.3180   14.7240 O.2   286  SER286     -0.2863
     46  CB        17.4950   77.5280   15.8750 C.3   286  SER286      0.2116
     47  OG        17.2540   77.4100   14.4810 O.3   286  SER286     -0.2180
     48  N         16.8170   83.4700   16.0060 N.3   289  ASP289     -0.1239
     49  CA        17.6650   83.8350   14.8740 C.3   289  ASP289      0.1674
     50  C         16.8610   83.9790   13.5850 C.2   289  ASP289      0.2266
     51  O         17.0930   84.8970   12.8170 O.2   289  ASP289     -0.2867
     52  CB        18.7780   82.8030   14.6830 C.3   289  ASP289      0.1410
     53  CG        19.6990   83.1320   13.5130 C.2   289  ASP289      0.3668
     54  OD1       19.3790   82.7220   12.3750 O.co2 289  ASP289     -0.2456
     55  OD2       20.7520   83.7750   13.7360 O.co2 289  ASP289     -0.2456
     56  N         21.6510   90.5100   17.6860 N.3   364  TYR364     -0.1241
     57  CA        20.7100   90.2370   16.6010 C.3   364  TYR364      0.1605
     58  C         20.0520   91.5390   16.1290 C.2   364  TYR364      0.2264
     59  O         19.9060   91.7890   14.9330 O.2   364  TYR364     -0.2867
     60  CB        19.6350   89.2460   17.0470 C.3   364  TYR364      0.0534
     61  CG        20.0540   87.8020   16.9590 C.ar  364  TYR364     -0.0201
     62  CD1       21.1390   87.4240   16.1820 C.ar  364  TYR364     -0.0009
     63  CD2       19.3590   86.8120   17.6470 C.ar  364  TYR364     -0.0009
     64  CE1       21.5250   86.1090   16.0960 C.ar  364  TYR364      0.0417
     65  CE2       19.7420   85.4840   17.5700 C.ar  364  TYR364      0.0417
     66  CZ        20.8210   85.1400   16.7880 C.ar  364  TYR364      0.1957
     67  OH        21.2010   83.8250   16.6920 O.3   364  TYR364     -0.2866
     68  N         26.5740   86.8660   18.0260 N.3   389  THR389     -0.1203
     69  CA        25.5150   86.3140   17.1680 C.3   389  THR389      0.1994
     70  C         25.7770   84.8630   16.6900 C.2   389  THR389      0.2619
     71  O         24.8690   84.2140   16.1520 O.2   389  THR389     -0.2717
     72  CB        25.2530   87.2000   15.9220 C.3   389  THR389      0.1784
     73  OG1       26.4370   87.2920   15.1250 O.3   389  THR389     -0.2211
     74  CG2       24.7850   88.6120   16.3350 C.3   389  THR389      0.0376
     75  N         26.9900   84.3500   16.9020 N.am  390  THR390     -0.1938
     76  CA        27.2530   82.9210   16.6730 C.3   390  THR390      0.2028
     77  C         26.4300   82.0800   17.6370 C.2   390  THR390      0.2643
     78  O         26.1910   80.9100   17.3860 O.2   390  THR390     -0.2714
     79  CB        28.7570   82.5340   16.8510 C.3   390  THR390      0.1808
     80  OG1       29.1550   82.6940   18.2240 O.3   390  THR390     -0.2208
     81  CG2       29.6540   83.3710   15.9480 C.3   390  THR390      0.0379
     82  N         25.9940   82.7150   18.7240 N.am  391  THR391     -0.1936
     83  CA        25.3200   82.0890   19.8610 C.3   391  THR391      0.2028
     84  C         26.3020   81.2670   20.6820 C.2   391  THR391      0.2642
     85  O         25.9060   80.6210   21.6480 O.2   391  THR391     -0.2714
     86  CB        24.1270   81.1730   19.4420 C.3   391  THR391      0.1808
     87  OG1       24.6300   80.0040   18.7860 O.3   391  THR391     -0.2208
     88  CG2       23.1680   81.9010   18.5120 C.3   391  THR391      0.0379
     89  N         27.5860   81.2960   20.3310 N.am  392  TYR392     -0.1973
     90  CA        28.5020   80.3340   20.9430 C.3   392  TYR392      0.1639
     91  C         28.9330   80.6770   22.3680 C.2   392  TYR392      0.2290
     92  O         29.1690   79.7680   23.1530 O.2   392  TYR392     -0.2864
     93  CB        29.7270   80.1260   20.0690 C.3   392  TYR392      0.0560
     94  CG        29.6530   78.8460   19.2940 C.ar  392  TYR392     -0.0198
     95  CD1       28.4280   78.2590   19.0080 C.ar  392  TYR392     -0.0009
     96  CD2       30.8060   78.1930   18.8750 C.ar  392  TYR392     -0.0009
     97  CE1       28.3530   77.0620   18.3050 C.ar  392  TYR392      0.0417
     98  CE2       30.7410   77.0020   18.1800 C.ar  392  TYR392      0.0417
     99  CZ        29.5150   76.4420   17.9010 C.ar  392  TYR392      0.1957
    100  OH        29.4520   75.2530   17.2160 O.3   392  TYR392     -0.2866
    101  N         25.7450   79.1370   24.0530 N.3   395  LEU395     -0.1245
    102  CA        25.6700   77.6680   24.0850 C.3   395  LEU395      0.1561
    103  C         26.6920   77.0670   25.0440 C.2   395  LEU395      0.2260
    104  O         26.3590   76.1900   25.8360 O.2   395  LEU395     -0.2867
    105  CB        25.8850   77.0760   22.6930 C.3   395  LEU395      0.0270
    106  CG        24.8480   77.4500   21.6440 C.3   395  LEU395      0.0019
    107  CD1       24.9500   76.4700   20.5250 C.3   395  LEU395      0.0001
    108  CD2       23.4610   77.4560   22.2540 C.3   395  LEU395      0.0001
    109  N         33.5070   79.5880   14.7310 N.3   428  CYS428     -0.1221
    110  CA        32.1170   79.5290   14.2800 C.3   428  CYS428      0.1808
    111  C         31.7850   80.6830   13.3370 C.2   428  CYS428      0.2601
    112  O         31.1940   80.4800   12.2590 O.2   428  CYS428     -0.2717
    113  CB        31.1340   79.5490   15.4530 C.3   428  CYS428      0.0970
    114  SG        29.4700   79.3630   14.8740 S.3   428  CYS428     -0.0800
    115  N         32.1570   81.8860   13.7590 N.am  429  ARG429     -0.1979
    116  CA        31.9080   83.0910   12.9720 C.3   429  ARG429      0.1597
    117  C         32.5280   83.0320   11.5720 C.2   429  ARG429      0.2287
    118  O         31.8230   83.2370   10.5770 O.2   429  ARG429     -0.2864
    119  CB        32.4330   84.3220   13.6930 C.3   429  ARG429      0.0334
    120  CG        32.2480   85.5770   12.8820 C.3   429  ARG429      0.0492
    121  CD        30.8390   86.1200   13.0150 C.3   429  ARG429      0.2205
    122  NE        29.9130   85.4760   12.0980 N.pl3 429  ARG429     -0.0865
    123  CZ        28.6680   85.1330   12.4050 C.cat 429  ARG429      0.5346
    124  NH1       28.1780   85.3670   13.6150 N.pl3 429  ARG429      0.1354
    125  NH2       27.9160   84.5520   11.4890 N.pl3 429  ARG429      0.1354
    126  N         30.9480   80.2280    9.3700 N.3   432  ASP432     -0.1239
    127  CA        29.6020   80.6180    8.9580 C.3   432  ASP432      0.1674
    128  C         29.6200   81.6720    7.8510 C.2   432  ASP432      0.2266
    129  O         28.8840   81.5530    6.8770 O.2   432  ASP432     -0.2867
    130  CB        28.7970   81.1310   10.1450 C.3   432  ASP432      0.1410
    131  CG        27.3330   81.3390    9.8040 C.2   432  ASP432      0.3668
    132  OD1       26.8300   80.6680    8.8750 O.co2 432  ASP432     -0.2456
    133  OD2       26.6810   82.1700   10.4640 O.co2 432  ASP432     -0.2456
    134  N         31.2730   72.7270   14.3550 N.3   504  VAL504     -0.1245
    135  CA        31.2010   73.7280   13.3080 C.3   504  VAL504      0.1561
    136  C         32.0350   73.2820   12.1010 C.2   504  VAL504      0.2260
    137  O         31.5670   73.3620   10.9570 O.2   504  VAL504     -0.2867
    138  CB        31.6530   75.1200   13.8370 C.3   504  VAL504      0.0252
    139  CG1       32.2420   75.9640   12.7430 C.3   504  VAL504      0.0019
    140  CG2       30.4820   75.8340   14.4380 C.3   504  VAL504      0.0019
    141  N         30.1020   72.1930    8.3950 N.3   508  TYR508     -0.1241
    142  CA        30.3480   73.1100    7.2990 C.3   508  TYR508      0.1605
    143  C         31.4790   72.6230    6.4240 C.2   508  TYR508      0.2264
    144  O         32.0050   73.3790    5.6070 O.2   508  TYR508     -0.2867
    145  CB        30.6440   74.5080    7.8350 C.3   508  TYR508      0.0534
    146  CG        29.4290   75.1950    8.4020 C.ar  508  TYR508     -0.0201
    147  CD1       28.9770   74.9010    9.6820 C.ar  508  TYR508     -0.0009
    148  CD2       28.7240   76.1340    7.6570 C.ar  508  TYR508     -0.0009
    149  CE1       27.8410   75.5180   10.2020 C.ar  508  TYR508      0.0417
    150  CE2       27.5940   76.7600    8.1710 C.ar  508  TYR508      0.0417
    151  CZ        27.1570   76.4450    9.4430 C.ar  508  TYR508      0.1957
    152  OH        26.0390   77.0560    9.9570 O.3   508  TYR508     -0.2866
    153  N         23.6170   72.9080    8.4470 N.3   515  TYR515     -0.1241
    154  CA        22.5040   72.9930    9.3800 C.3   515  TYR515      0.1605
    155  C         21.2410   73.3840    8.6440 C.2   515  TYR515      0.2264
    156  O         20.1640   72.8470    8.9010 O.2   515  TYR515     -0.2867
    157  CB        22.8000   73.9940   10.4870 C.3   515  TYR515      0.0534
    158  CG        21.6470   74.2320   11.4290 C.ar  515  TYR515     -0.0201
    159  CD1       21.4090   73.3750   12.4940 C.ar  515  TYR515     -0.0009
    160  CD2       20.7980   75.3270   11.2590 C.ar  515  TYR515     -0.0009
    161  CE1       20.3530   73.6010   13.3650 C.ar  515  TYR515      0.0417
    162  CE2       19.7440   75.5580   12.1210 C.ar  515  TYR515      0.0417
    163  CZ        19.5260   74.6940   13.1730 C.ar  515  TYR515      0.1957
    164  OH        18.4780   74.9230   14.0320 O.3   515  TYR515     -0.2866
@<TRIPOS>BOND
     1   144   143    2
     2   143   142    1
     3   129   128    2
     4   142   145    1
     5   142   141    1
     6   148   150   ar
     7   148   146   ar
     8   145   146    1
     9   128   127    1
    10   150   151   ar
    11   146   147   ar
    12   153   154    1
    13   155   156    2
    14   155   154    1
    15   132   131   ar
    16   127   126    1
    17   127   130    1
    18     6     7    1
    19     6     5    1
    20     7     8    1
    21   154   157    1
    22   151   152    1
    23   151   149   ar
    24    10     9    1
    25   147   149   ar
    26   131   130    1
    27   131   133   ar
    28     2     5    1
    29     2     1    1
    30     2     3    1
    31     8     9    2
    32     9    11    1
    33   157   158    1
    34   118   117    2
    35   137   136    2
    36   160   158   ar
    37   160   162   ar
    38     3     4    2
    39   158   159   ar
    40   125   123    1
    41   117   116    1
    42   122   123    2
    43   122   121    1
    44   136   135    1
    45   162   163   ar
    46   112   111    2
    47    54    53   ar
    48   123   124    1
    49   159   161   ar
    50   139   138    1
    51    51    50    2
    52   120   121    1
    53   120   119    1
    54   116   119    1
    55   116   115    1
    56   163   161   ar
    57   163   164    1
    58   135   138    1
    59   135   134    1
    60   111   115   am
    61   111   110    1
    62    53    55   ar
    63    53    52    1
    64    24    25   ar
    65    24    22   ar
    66    25    23   ar
    67    50    49    1
    68   138   140    1
    69   110   109    1
    70   110   113    1
    71    47    46    1
    72    52    49    1
    73    22    19   ar
    74    45    44    2
    75    23    21   ar
    76   114   113    1
    77    49    48    1
    78    59    58    2
    79    73    72    1
    80    44    43    1
    81    46    43    1
    82    72    74    1
    83    72    69    1
    84    19    21   ar
    85    19    17   ar
    86    21    20   ar
    87    81    79    1
    88    64    62   ar
    89    64    66   ar
    90    58    57    1
    91    71    70    2
    92    62    61   ar
    93    43    42    1
    94    57    60    1
    95    57    56    1
    96    76    79    1
    97    76    75    1
    98    76    77    1
    99    70    75   am
   100    70    69    1
   101    67    66    1
   102    66    65   ar
   103    79    80    1
   104    61    60    1
   105    61    63   ar
   106    69    68    1
   107   100    99    1
   108    20    18   ar
   109    17    16    1
   110    17    18   ar
   111    78    77    2
   112    12    13    1
   113    65    63   ar
   114    77    82   am
   115    37    36    2
   116    42    36   am
   117    16    13    1
   118    99    98   ar
   119    99    97   ar
   120    13    14    1
   121    98    96   ar
   122    97    95   ar
   123    36    35    1
   124    88    86    1
   125    82    83    1
   126    87    86    1
   127    32    30    1
   128    96    94   ar
   129    29    28    2
   130    95    94   ar
   131    94    93    1
   132    86    83    1
   133    14    15    2
   134    28    27    1
   135    35    34    1
   136    35    38    1
   137    83    84    1
   138    40    38    1
   139    93    90    1
   140    39    38    1
   141    39    41    1
   142    30    27    1
   143    30    31    1
   144    89    84   am
   145    89    90    1
   146   107   106    1
   147    33    31    1
   148    84    85    2
   149    27    26    1
   150    90    91    1
   151   106   108    1
   152   106   105    1
   153    91    92    2
   154   105   102    1
   155   101   102    1
   156   102   103    1
   157   103   104    2
