@<TRIPOS>MOLECULE
tmp/4rnuC00.pdb
 221 218 0 0 0
SMALL
GASTEIGER

@<TRIPOS>ATOM
      1  N         71.0390   20.6550   64.1250 N.3    18  ALA18      -0.1231
      2  CA        71.4880   22.0020   63.7870 C.3    18  ALA18       0.1694
      3  C         73.0080   22.1340   63.8220 C.2    18  ALA18       0.2593
      4  O         73.6720   21.5580   64.6830 O.2    18  ALA18      -0.2718
      5  CB        70.8450   23.0230   64.7160 C.3    18  ALA18       0.0304
      6  N         73.5520   22.8980   62.8790 N.am   19  GLY19      -0.1942
      7  CA        74.9790   23.1630   62.8450 C.3    19  GLY19       0.2014
      8  C         75.6550   22.7950   61.5380 C.2    19  GLY19       0.2639
      9  O         75.6900   21.6250   61.1570 O.2    19  GLY19      -0.2714
     10  N         76.1910   23.8060   60.8560 N.am   20  ASN20      -0.1958
     11  CA        76.9740   23.6160   59.6350 C.3    20  ASN20       0.1819
     12  C         76.2280   22.8490   58.5420 C.2    20  ASN20       0.2621
     13  O         76.7610   21.9070   57.9560 O.2    20  ASN20      -0.2715
     14  CB        78.3060   22.9300   59.9590 C.3    20  ASN20       0.1195
     15  CG        79.3550   23.1520   58.8860 C.2    20  ASN20       0.2630
     16  OD1       79.2890   24.1180   58.1260 O.2    20  ASN20      -0.2716
     17  ND2       80.3330   22.2550   58.8210 N.am   20  ASN20      -0.0877
     18  N         74.9930   23.2610   58.2730 N.am   21  PHE21      -0.1960
     19  CA        74.1640   22.5930   57.2750 C.3    21  PHE21       0.1771
     20  C         73.7500   23.5360   56.1520 C.2    21  PHE21       0.2619
     21  O         73.0600   23.1350   55.2150 O.2    21  PHE21      -0.2715
     22  CB        72.9210   21.9900   57.9330 C.3    21  PHE21       0.0574
     23  CG        73.2050   20.7750   58.7680 C.ar   21  PHE21      -0.0200
     24  CD1       74.1990   19.8840   58.4000 C.ar   21  PHE21      -0.0042
     25  CD2       72.4810   20.5250   59.9210 C.ar   21  PHE21      -0.0042
     26  CE1       74.4630   18.7640   59.1640 C.ar   21  PHE21      -0.0003
     27  CE2       72.7400   19.4070   60.6900 C.ar   21  PHE21      -0.0003
     28  CZ        73.7330   18.5260   60.3110 C.ar   21  PHE21      -0.0000
     29  N         74.1770   24.7910   56.2490 N.am   22  ALA22      -0.1977
     30  CA        73.8060   25.8020   55.2660 C.3    22  ALA22       0.1597
     31  C         74.6290   25.6890   53.9850 C.2    22  ALA22       0.2287
     32  O         74.1010   25.8440   52.8830 O.2    22  ALA22      -0.2864
     33  CB        73.9400   27.1940   55.8640 C.3    22  ALA22       0.0319
     34  N         68.0320   22.6960   61.1820 N.3    40  GLY40      -0.1210
     35  CA        68.0690   24.0990   61.5500 C.3    40  GLY40       0.1956
     36  C         69.2530   24.8310   60.9460 C.2    40  GLY40       0.2612
     37  O         70.3080   24.2400   60.7140 O.2    40  GLY40      -0.2717
     38  N         69.0760   26.1230   60.6910 N.am   41  TYR41      -0.1962
     39  CA        70.1340   26.9490   60.1210 C.3    41  TYR41       0.1771
     40  C         70.3760   28.1810   60.9850 C.2    41  TYR41       0.2620
     41  O         69.4980   29.0290   61.1320 O.2    41  TYR41      -0.2715
     42  CB        69.7750   27.3710   58.6960 C.3    41  TYR41       0.0574
     43  CG        69.5510   26.2140   57.7490 C.ar   41  TYR41      -0.0198
     44  CD1       68.2910   25.6490   57.5970 C.ar   41  TYR41      -0.0009
     45  CD2       70.5980   25.6890   57.0040 C.ar   41  TYR41      -0.0009
     46  CE1       68.0820   24.5920   56.7310 C.ar   41  TYR41       0.0417
     47  CE2       70.3990   24.6330   56.1350 C.ar   41  TYR41       0.0417
     48  CZ        69.1390   24.0880   56.0030 C.ar   41  TYR41       0.1957
     49  OH        68.9360   23.0370   55.1390 O.3    41  TYR41      -0.2866
     50  N         71.5750   28.2800   61.5490 N.am   42  GLY42      -0.1940
     51  CA        71.8920   29.3440   62.4840 C.3    42  GLY42       0.2014
     52  C         72.2490   30.6760   61.8530 C.2    42  GLY42       0.2639
     53  O         71.4250   31.5890   61.8010 O.2    42  GLY42      -0.2714
     54  N         73.4850   30.7870   61.3740 N.am   43  ARG43      -0.1963
     55  CA        74.0120   32.0580   60.8840 C.3    43  ARG43       0.1729
     56  C         73.3250   32.5510   59.6130 C.2    43  ARG43       0.2616
     57  O         73.0920   33.7480   59.4530 O.2    43  ARG43      -0.2715
     58  CB        75.5190   31.9570   60.6440 C.3    43  ARG43       0.0348
     59  CG        76.2890   31.2930   61.7700 C.3    43  ARG43       0.0492
     60  CD        77.7840   31.4840   61.5900 C.3    43  ARG43       0.2205
     61  NE        78.5590   30.5230   62.3690 N.pl3  43  ARG43      -0.0865
     62  CZ        79.1160   29.4300   61.8590 C.cat  43  ARG43       0.5346
     63  NH1       78.9910   29.1620   60.5670 N.pl3  43  ARG43       0.1354
     64  NH2       79.8040   28.6080   62.6400 N.pl3  43  ARG43       0.1354
     65  N         73.0080   31.6300   58.7090 N.am   44  PHE44      -0.1974
     66  CA        72.4230   32.0080   57.4250 C.3    44  PHE44       0.1639
     67  C         70.9260   32.2930   57.5030 C.2    44  PHE44       0.2290
     68  O         70.2890   32.5820   56.4910 O.2    44  PHE44      -0.2864
     69  CB        72.7270   30.9570   56.3550 C.3    44  PHE44       0.0560
     70  CG        74.1200   31.0490   55.8020 C.ar   44  PHE44      -0.0200
     71  CD1       75.1820   30.4550   56.4630 C.ar   44  PHE44      -0.0042
     72  CD2       74.3690   31.7380   54.6270 C.ar   44  PHE44      -0.0042
     73  CE1       76.4660   30.5400   55.9580 C.ar   44  PHE44      -0.0003
     74  CE2       75.6500   31.8270   54.1160 C.ar   44  PHE44      -0.0003
     75  CZ        76.7000   31.2270   54.7830 C.ar   44  PHE44      -0.0000
     76  N         70.1960   34.4990   59.9150 N.3    46  ILE46      -0.1245
     77  CA        70.4270   35.8850   60.2980 C.3    46  ILE46       0.1561
     78  C         70.7270   36.7060   59.0500 C.2    46  ILE46       0.2260
     79  O         70.1670   37.7840   58.8500 O.2    46  ILE46      -0.2867
     80  CB        71.6110   36.0100   61.2780 C.3    46  ILE46       0.0252
     81  CG1       71.2600   35.3830   62.6280 C.3    46  ILE46       0.0019
     82  CG2       72.0060   37.4670   61.4600 C.3    46  ILE46       0.0019
     83  CD1       72.3700   35.4790   63.6540 C.3    46  ILE46       0.0001
     84  N         76.5990   40.4860   65.4020 N.3    69  PHE69      -0.1227
     85  CA        75.8670   39.3940   66.0360 C.3    69  PHE69       0.1736
     86  C         75.3200   39.7840   67.4070 C.2    69  PHE69       0.2595
     87  O         74.1140   39.7200   67.6430 O.2    69  PHE69      -0.2718
     88  CB        76.7450   38.1450   66.1550 C.3    69  PHE69       0.0547
     89  CG        76.8260   37.3360   64.8920 C.ar   69  PHE69      -0.0202
     90  CD1       75.9750   37.5960   63.8300 C.ar   69  PHE69      -0.0042
     91  CD2       77.7450   36.3070   64.7700 C.ar   69  PHE69      -0.0042
     92  CE1       76.0450   36.8500   62.6680 C.ar   69  PHE69      -0.0003
     93  CE2       77.8200   35.5570   63.6110 C.ar   69  PHE69      -0.0003
     94  CZ        76.9690   35.8300   62.5590 C.ar   69  PHE69      -0.0000
     95  N         76.2120   40.1880   68.3050 N.am   70  TYR70      -0.1976
     96  CA        75.8210   40.5360   69.6670 C.3    70  TYR70       0.1639
     97  C         75.8400   42.0460   69.8860 C.2    70  TYR70       0.2290
     98  O         75.7080   42.5230   71.0130 O.2    70  TYR70      -0.2864
     99  CB        76.7420   39.8500   70.6780 C.3    70  TYR70       0.0560
    100  CG        77.0090   38.3920   70.3740 C.ar   70  TYR70      -0.0198
    101  CD1       76.0800   37.4130   70.7000 C.ar   70  TYR70      -0.0009
    102  CD2       78.1920   37.9960   69.7650 C.ar   70  TYR70      -0.0009
    103  CE1       76.3210   36.0790   70.4240 C.ar   70  TYR70       0.0417
    104  CE2       78.4430   36.6660   69.4860 C.ar   70  TYR70       0.0417
    105  CZ        77.5040   35.7110   69.8180 C.ar   70  TYR70       0.1957
    106  OH        77.7510   34.3860   69.5410 O.3    70  TYR70      -0.2866
    107  N         66.8050   27.9370   64.4710 N.3   128  PRO128     -0.2103
    108  CA        67.2630   27.6990   65.8430 C.3   128  PRO128      0.1489
    109  C         67.3030   28.9970   66.6430 C.2   128  PRO128      0.2418
    110  O         67.3180   30.0730   66.0450 O.2   128  PRO128     -0.2734
    111  CB        68.6820   27.1540   65.6420 C.3   128  PRO128      0.0282
    112  CG        69.1110   27.6940   64.3260 C.3   128  PRO128      0.0208
    113  CD        67.8720   27.6920   63.4870 C.3   128  PRO128      0.0893
    114  N         67.3090   28.8980   67.9830 N.am  129  PRO129     -0.2718
    115  CA        67.3920   30.0820   68.8440 C.3   129  PRO129      0.1535
    116  C         68.6530   30.8890   68.5630 C.2   129  PRO129      0.2598
    117  O         69.7310   30.3130   68.4230 O.2   129  PRO129     -0.2715
    118  CB        67.4390   29.4880   70.2570 C.3   129  PRO129      0.0310
    119  CG        67.8320   28.0590   70.0710 C.3   129  PRO129      0.0237
    120  CD        67.2470   27.6530   68.7650 C.3   129  PRO129      0.0939
    121  N         68.5120   32.2070   68.4690 N.am  130  LEU130     -0.1964
    122  CA        69.6330   33.0730   68.1230 C.3   130  LEU130      0.1728
    123  C         69.6270   34.3580   68.9430 C.2   130  LEU130      0.2616
    124  O         68.8570   35.2780   68.6640 O.2   130  LEU130     -0.2715
    125  CB        69.5990   33.4120   66.6300 C.3   130  LEU130      0.0311
    126  CG        69.7700   32.2510   65.6480 C.3   130  LEU130      0.0022
    127  CD1       69.4390   32.6900   64.2310 C.3   130  LEU130      0.0001
    128  CD2       71.1810   31.6900   65.7210 C.3   130  LEU130      0.0001
    129  N         70.4890   34.4180   69.9530 N.am  131  THR131     -0.1951
    130  CA        70.6230   35.6200   70.7670 C.3   131  THR131      0.1897
    131  C         71.3140   36.7300   69.9850 C.2   131  THR131      0.2313
    132  O         72.4600   36.5860   69.5620 O.2   131  THR131     -0.2863
    133  CB        71.4010   35.3490   72.0660 C.3   131  THR131      0.1794
    134  OG1       72.5480   34.5400   71.7790 O.3   131  THR131     -0.2208
    135  CG2       70.5180   34.6270   73.0680 C.3   131  THR131      0.0378
    136  N         67.1390   33.0030   73.4800 N.3   166  GLY166     -0.1225
    137  CA        67.0130   32.5720   74.8600 C.3   166  GLY166      0.1811
    138  C         66.5120   33.6780   75.7690 C.2   166  GLY166      0.2280
    139  O         67.1750   34.6990   75.9440 O.2   166  GLY166     -0.2866
    140  N         62.6740   29.9610   73.8650 N.3   208  GLN208     -0.1245
    141  CA        63.6890   29.1390   74.5100 C.3   208  GLN208      0.1566
    142  C         63.9500   29.6250   75.9300 C.2   208  GLN208      0.2260
    143  O         64.5020   30.7060   76.1330 O.2   208  GLN208     -0.2867
    144  CB        64.9910   29.1540   73.7080 C.3   208  GLN208      0.0367
    145  CG        66.0340   28.1750   74.2250 C.3   208  GLN208      0.0905
    146  CD        67.4020   28.3950   73.6130 C.2   208  GLN208      0.2608
    147  OE1       67.8460   29.5320   73.4480 O.2   208  GLN208     -0.2717
    148  NE2       68.0790   27.3060   73.2700 N.am  208  GLN208     -0.0878
    149  N         65.8260   30.1790   79.0860 N.3   210  TRP210     -0.1241
    150  CA        67.2710   30.2860   79.2370 C.3   210  TRP210      0.1605
    151  C         67.6990   30.5380   80.6800 C.2   210  TRP210      0.2264
    152  O         67.1770   31.4310   81.3470 O.2   210  TRP210     -0.2867
    153  CB        67.7980   31.4150   78.3490 C.3   210  TRP210      0.0550
    154  CG        69.2330   31.2690   77.9580 C.ar  210  TRP210      0.0003
    155  CD1       70.0030   30.1480   78.0590 C.ar  210  TRP210      0.0946
    156  CD2       70.0740   32.2840   77.3980 C.ar  210  TRP210      0.0152
    157  NE1       71.2710   30.4010   77.5950 N.ar  210  TRP210     -0.2442
    158  CE2       71.3400   31.7080   77.1830 C.ar  210  TRP210      0.0810
    159  CE3       69.8790   33.6260   77.0570 C.ar  210  TRP210      0.0012
    160  CZ2       72.4060   32.4240   76.6430 C.ar  210  TRP210      0.0191
    161  CZ3       70.9370   34.3370   76.5240 C.ar  210  TRP210      0.0001
    162  CH2       72.1840   33.7350   76.3220 C.ar  210  TRP210      0.0015
    163  N         66.3080   24.9900   77.2320 N.3   285  HIS285     -0.1241
    164  CA        67.7050   25.0850   76.8260 C.3   285  HIS285      0.1621
    165  C         68.6220   24.3520   77.7970 C.2   285  HIS285      0.2264
    166  O         69.0200   24.9010   78.8240 O.2   285  HIS285     -0.2867
    167  CB        68.1330   26.5490   76.7000 C.3   285  HIS285      0.0745
    168  CG        69.4410   26.7370   75.9960 C.ar  285  HIS285      0.0817
    169  ND1       70.0330   27.9720   75.8430 N.ar  285  HIS285     -0.2268
    170  CD2       70.2770   25.8450   75.4130 C.ar  285  HIS285      0.1154
    171  CE1       71.1730   27.8340   75.1900 C.ar  285  HIS285      0.1986
    172  NE2       71.3440   26.5540   74.9170 N.ar  285  HIS285     -0.2212
    173  N         74.8420   24.0150   75.3250 N.3   288  ASN288     -0.1240
    174  CA        75.7920   25.1240   75.2150 C.3   288  ASN288      0.1653
    175  C         76.4020   25.6030   76.5350 C.2   288  ASN288      0.2266
    176  O         76.6980   26.7860   76.6950 O.2   288  ASN288     -0.2867
    177  CB        75.1690   26.2990   74.4550 C.3   288  ASN288      0.1155
    178  CG        74.7360   25.9200   73.0530 C.2   288  ASN288      0.2627
    179  OD1       75.2710   24.9850   72.4570 O.2   288  ASN288     -0.2716
    180  ND2       73.7620   26.6470   72.5170 N.am  288  ASN288     -0.0877
    181  N         75.2620   25.7990   79.7040 N.3   290  TYR290     -0.1241
    182  CA        74.4820   26.5590   80.6740 C.3   290  TYR290      0.1605
    183  C         74.0120   25.6540   81.8120 C.2   290  TYR290      0.2264
    184  O         74.3060   24.4600   81.8060 O.2   290  TYR290     -0.2867
    185  CB        73.3230   27.2820   79.9860 C.3   290  TYR290      0.0534
    186  CG        73.7970   28.2680   78.9400 C.ar  290  TYR290     -0.0201
    187  CD1       74.3450   29.4900   79.3080 C.ar  290  TYR290     -0.0009
    188  CD2       73.7130   27.9710   77.5870 C.ar  290  TYR290     -0.0009
    189  CE1       74.7880   30.3910   78.3590 C.ar  290  TYR290      0.0417
    190  CE2       74.1530   28.8660   76.6300 C.ar  290  TYR290      0.0417
    191  CZ        74.6910   30.0730   77.0210 C.ar  290  TYR290      0.1957
    192  OH        75.1290   30.9680   76.0710 O.3   290  TYR290     -0.2866
    193  N         66.5470   21.2270   74.1120 N.3   337  ARG337     -0.1245
    194  CA        67.7930   21.5410   73.4240 C.3   337  ARG337      0.1563
    195  C         68.9560   20.7740   74.0450 C.2   337  ARG337      0.2260
    196  O         69.1540   20.8110   75.2600 O.2   337  ARG337     -0.2867
    197  CB        68.0700   23.0440   73.4840 C.3   337  ARG337      0.0307
    198  CG        68.3130   23.6890   72.1300 C.3   337  ARG337      0.0489
    199  CD        69.4860   23.0460   71.4100 C.3   337  ARG337      0.2205
    200  NE        69.6630   23.5900   70.0660 N.pl3 337  ARG337     -0.0865
    201  CZ        70.4950   24.5810   69.7640 C.cat 337  ARG337      0.5346
    202  NH1       71.2380   25.1360   70.7110 N.pl3 337  ARG337      0.1354
    203  NH2       70.5890   25.0120   68.5140 N.pl3 337  ARG337      0.1354
    204  N         72.4970   19.7790   68.7650 N.3   382  VAL382     -0.1245
    205  CA        73.5760   20.5590   68.1760 C.3   382  VAL382      0.1561
    206  C         74.6430   19.6240   67.6220 C.2   382  VAL382      0.2260
    207  O         75.1760   18.7800   68.3420 O.2   382  VAL382     -0.2867
    208  CB        74.2230   21.5000   69.2080 C.3   382  VAL382      0.0252
    209  CG1       75.3070   22.3420   68.5530 C.3   382  VAL382      0.0019
    210  CG2       73.1690   22.3860   69.8510 C.3   382  VAL382      0.0019
    211  N         80.8590   20.7180   65.6790 N.3   385  ARG385     -0.1245
    212  CA        81.4430   21.6900   64.7630 C.3   385  ARG385      0.1563
    213  C         82.6710   22.3570   65.3750 C.2   385  ARG385      0.2260
    214  O         83.0500   22.0590   66.5070 O.2   385  ARG385     -0.2867
    215  CB        80.4100   22.7340   64.3690 C.3   385  ARG385      0.0307
    216  CG        80.8890   23.8690   63.4190 C.3   385  ARG385      0.0489
    217  CD        79.9250   25.0430   63.4000 C.3   385  ARG385      0.2205
    218  NE        79.7690   25.4580   64.7180 N.pl3 385  ARG385     -0.0865
    219  CZ        78.8240   26.1900   65.2020 C.cat 385  ARG385      0.5346
    220  NH1       77.8570   26.7010   64.4220 N.pl3 385  ARG385      0.1354
    221  NH2       78.7550   26.4390   66.4980 N.pl3 385  ARG385      0.1354
@<TRIPOS>BOND
     1    32    31    2
     2    31    30    1
     3    74    72   ar
     4    74    75   ar
     5    72    70   ar
     6    75    73   ar
     7    49    48    1
     8    21    20    2
     9    30    33    1
    10    30    29    1
    11    70    69    1
    12    70    71   ar
    13    73    71   ar
    14    48    47   ar
    15    48    46   ar
    16    47    45   ar
    17    20    29   am
    18    20    19    1
    19    69    66    1
    20    68    67    2
    21    46    44   ar
    22    45    43   ar
    23    19    22    1
    24    19    18    1
    25    66    67    1
    26    66    65    1
    27    44    43   ar
    28    43    42    1
    29    22    23    1
    30    13    12    2
    31    16    15    2
    32    18    12   am
    33    24    23   ar
    34    24    26   ar
    35    12    11    1
    36    42    39    1
    37    65    56   am
    38    23    25   ar
    39    17    15   am
    40    79    78    2
    41    15    14    1
    42    78    77    1
    43    26    28   ar
    44    57    56    2
    45    56    55    1
    46    11    14    1
    47    11    10    1
    48    76    77    1
    49    25    27   ar
    50    39    38    1
    51    39    40    1
    52    77    80    1
    53    28    27   ar
    54    63    62    1
    55    58    55    1
    56    58    59    1
    57    38    36   am
    58    37    36    2
    59    10     8   am
    60    55    54    1
    61    36    35    1
    62    40    41    2
    63    40    50   am
    64     9     8    2
    65    34    35    1
    66    80    82    1
    67    80    81    1
    68    54    52   am
    69     8     7    1
    70    50    51    1
    71    60    59    1
    72    60    61    1
    73    53    52    2
    74    52    51    1
    75    62    61    2
    76    62    64    1
    77    94    92   ar
    78    94    93   ar
    79    81    83    1
    80    92    90   ar
    81     7     6    1
    82     6     3   am
    83   217   216    1
    84   217   218    1
    85   216   215    1
    86   113   112    1
    87   113   107    1
    88    93    91   ar
    89     2     3    1
    90     2     1    1
    91     2     5    1
    92     3     4    2
    93    90    89   ar
    94   127   126    1
    95   112   111    1
    96   215   212    1
    97   220   219    1
    98   107   108    1
    99   218   219    2
   100   212   213    1
   101   212   211    1
   102    91    89   ar
   103    89    88    1
   104   219   221    1
   105   213   214    2
   106    84    85    1
   107   111   108    1
   108   126   128    1
   109   126   125    1
   110   108   109    1
   111    85    88    1
   112    85    86    1
   113   110   109    2
   114   125   122    1
   115   109   114   am
   116    86    87    2
   117    86    95   am
   118   206   205    1
   119   206   207    2
   120   114   120    1
   121   114   115    1
   122   122   121    1
   123   122   123    1
   124   205   204    1
   125   205   208    1
   126    95    96    1
   127   117   116    2
   128   121   116   am
   129   203   201    1
   130   209   208    1
   131   116   115    1
   132   124   123    2
   133   120   119    1
   134   115   118    1
   135   123   129   am
   136   208   210    1
   137   104   102   ar
   138   104   105   ar
   139   106   105    1
   140   132   131    2
   141    96    97    1
   142    96    99    1
   143   201   200    2
   144   201   202    1
   145   102   100   ar
   146   105   103   ar
   147    97    98    2
   148   129   130    1
   149   131   130    1
   150   200   199    1
   151   119   118    1
   152   100    99    1
   153   100   101   ar
   154   103   101   ar
   155   130   133    1
   156   199   198    1
   157   134   133    1
   158   133   135    1
   159   198   197    1
   160   179   178    2
   161   180   178   am
   162   178   177    1
   163   148   146   am
   164   194   197    1
   165   194   195    1
   166   194   193    1
   167   147   146    2
   168   136   137    1
   169   146   145    1
   170   144   145    1
   171   144   141    1
   172   140   141    1
   173   195   196    2
   174   177   174    1
   175   141   142    1
   176   137   138    1
   177   172   171   ar
   178   172   170   ar
   179   171   169   ar
   180   174   173    1
   181   174   175    1
   182   170   168   ar
   183   138   139    2
   184   169   168   ar
   185   142   143    2
   186   168   167    1
   187   192   191    1
   188   162   161   ar
   189   162   160   ar
   190   161   159   ar
   191   175   176    2
   192   190   191   ar
   193   190   188   ar
   194   160   158   ar
   195   167   164    1
   196   164   163    1
   197   164   165    1
   198   191   189   ar
   199   159   156   ar
   200   158   156   ar
   201   158   157   ar
   202   156   154   ar
   203   188   186   ar
   204   157   155   ar
   205   165   166    2
   206   154   155   ar
   207   154   153    1
   208   153   150    1
   209   189   187   ar
   210   186   187   ar
   211   186   185    1
   212   149   150    1
   213   150   151    1
   214   181   182    1
   215   185   182    1
   216   182   183    1
   217   151   152    2
   218   184   183    2
