@<TRIPOS>MOLECULE
tmp/4rnvB01.pdb
 114 110 0 0 0
SMALL
GASTEIGER

@<TRIPOS>ATOM
      1  N         -4.6510  -27.1390 -119.6400 N.3    70  TYR70      -0.1241
      2  CA        -5.0730  -26.7560 -118.2970 C.3    70  TYR70       0.1605
      3  C         -4.9830  -25.2480 -118.0830 C.2    70  TYR70       0.2264
      4  O         -4.7150  -24.7850 -116.9740 O.2    70  TYR70      -0.2867
      5  CB        -4.2270  -27.4800 -117.2480 C.3    70  TYR70       0.0534
      6  CG        -3.9910  -28.9430 -117.5560 C.ar   70  TYR70      -0.0201
      7  CD1       -4.9900  -29.8870 -117.3540 C.ar   70  TYR70      -0.0009
      8  CD2       -2.7670  -29.3800 -118.0470 C.ar   70  TYR70      -0.0009
      9  CE1       -4.7770  -31.2250 -117.6330 C.ar   70  TYR70       0.0417
     10  CE2       -2.5450  -30.7150 -118.3300 C.ar   70  TYR70       0.0417
     11  CZ        -3.5540  -31.6330 -118.1210 C.ar   70  TYR70       0.1957
     12  OH        -3.3360  -32.9620 -118.4000 O.3    70  TYR70      -0.2866
     13  N        -10.0290  -33.5100 -117.7200 N.3   129  THR129     -0.1218
     14  CA        -9.8310  -32.3460 -116.8660 C.3   129  THR129      0.1862
     15  C         -9.2700  -31.1770 -117.6690 C.2   129  THR129      0.2287
     16  O         -8.2130  -31.2910 -118.2880 O.2   129  THR129     -0.2866
     17  CB        -8.8790  -32.6640 -115.6970 C.3   129  THR129      0.1770
     18  OG1       -9.4970  -33.6140 -114.8200 O.3   129  THR129     -0.2211
     19  CG2       -8.5470  -31.4020 -114.9180 C.3   129  THR129      0.0375
     20  N         -9.3510  -27.8820 -116.2470 N.3   131  MET131     -0.1245
     21  CA        -8.9220  -26.9060 -115.2430 C.3   131  MET131      0.1570
     22  C         -9.4400  -25.4920 -115.5060 C.2   131  MET131      0.2261
     23  O         -8.6830  -24.5230 -115.4400 O.2   131  MET131     -0.2867
     24  CB        -7.3940  -26.8840 -115.1400 C.3   131  MET131      0.0387
     25  CG        -6.8030  -28.1220 -114.4900 C.3   131  MET131      0.0595
     26  SD        -7.4720  -28.4230 -112.8410 S.3   131  MET131     -0.1393
     27  CE        -6.4510  -29.7940 -112.3100 C.3   131  MET131      0.0692
     28  N         -7.4560  -29.3070 -106.0250 N.3   174  TYR174     -0.1241
     29  CA        -7.2320  -28.4490 -107.1830 C.3   174  TYR174      0.1605
     30  C         -8.2850  -27.3440 -107.2000 C.2   174  TYR174      0.2264
     31  O         -9.4840  -27.6210 -107.1820 O.2   174  TYR174     -0.2867
     32  CB        -7.2810  -29.2580 -108.4840 C.3   174  TYR174      0.0534
     33  CG        -6.3440  -30.4510 -108.5290 C.ar  174  TYR174     -0.0201
     34  CD1       -5.1490  -30.4560 -107.8190 C.ar  174  TYR174     -0.0009
     35  CD2       -6.6580  -31.5730 -109.2860 C.ar  174  TYR174     -0.0009
     36  CE1       -4.2950  -31.5480 -107.8610 C.ar  174  TYR174      0.0417
     37  CE2       -5.8100  -32.6660 -109.3370 C.ar  174  TYR174      0.0417
     38  CZ        -4.6320  -32.6500 -108.6220 C.ar  174  TYR174      0.1957
     39  OH        -3.7900  -33.7390 -108.6700 O.3   174  TYR174     -0.2866
     40  N        -18.0440  -38.1780 -113.7070 N.3   206  GLN206     -0.1245
     41  CA       -16.9900  -38.9320 -113.0430 C.3   206  GLN206      0.1566
     42  C        -16.7590  -38.3930 -111.6370 C.2   206  GLN206      0.2260
     43  O        -16.4340  -37.2190 -111.4550 O.2   206  GLN206     -0.2867
     44  CB       -15.6870  -38.8870 -113.8410 C.3   206  GLN206      0.0367
     45  CG       -14.6190  -39.8170 -113.2840 C.3   206  GLN206      0.0905
     46  CD       -13.2720  -39.6420 -113.9520 C.2   206  GLN206      0.2608
     47  OE1      -12.7880  -38.5220 -114.1150 O.2   206  GLN206     -0.2717
     48  NE2      -12.6560  -40.7530 -114.3390 N.am  206  GLN206     -0.0878
     49  N        -14.6300  -37.8980 -108.5120 N.3   208  TRP208     -0.1241
     50  CA       -13.1800  -37.8060 -108.3930 C.3   208  TRP208      0.1605
     51  C        -12.7240  -37.5710 -106.9550 C.2   208  TRP208      0.2264
     52  O        -13.2200  -36.6690 -106.2800 O.2   208  TRP208     -0.2867
     53  CB       -12.6670  -36.6780 -109.2920 C.3   208  TRP208      0.0550
     54  CG       -11.2170  -36.7700 -109.6530 C.ar  208  TRP208      0.0003
     55  CD1      -10.3900  -37.8360 -109.4730 C.ar  208  TRP208      0.0946
     56  CD2      -10.4250  -35.7440 -110.2670 C.ar  208  TRP208      0.0152
     57  NE1       -9.1290  -37.5390 -109.9370 N.ar  208  TRP208     -0.2442
     58  CE2       -9.1260  -36.2620 -110.4300 C.ar  208  TRP208      0.0810
     59  CE3      -10.6900  -34.4390 -110.6930 C.ar  208  TRP208      0.0012
     60  CZ2       -8.0930  -35.5200 -110.9990 C.ar  208  TRP208      0.0191
     61  CZ3       -9.6650  -33.7040 -111.2590 C.ar  208  TRP208      0.0001
     62  CH2       -8.3820  -34.2470 -111.4070 C.ar  208  TRP208      0.0015
     63  N        -14.3370  -42.9970 -110.4470 N.3   283  HIS283     -0.1241
     64  CA       -12.9300  -42.9160 -110.8120 C.3   283  HIS283      0.1621
     65  C        -12.0830  -43.7040 -109.8200 C.2   283  HIS283      0.2264
     66  O        -11.8570  -43.2650 -108.6930 O.2   283  HIS283     -0.2867
     67  CB       -12.4650  -41.4600 -110.8740 C.3   283  HIS283      0.0745
     68  CG       -11.1440  -41.2740 -111.5560 C.ar  283  HIS283      0.0817
     69  ND1      -10.3630  -42.3300 -111.9730 N.ar  283  HIS283     -0.2268
     70  CD2      -10.4710  -40.1510 -111.8980 C.ar  283  HIS283      0.1154
     71  CE1       -9.2610  -41.8660 -112.5350 C.ar  283  HIS283      0.1986
     72  NE2       -9.3030  -40.5460 -112.5050 N.ar  283  HIS283     -0.2212
     73  N         -5.7150  -44.2520 -112.3800 N.3   286  ASN286     -0.1240
     74  CA        -4.7280  -43.1910 -112.5670 C.3   286  ASN286      0.1653
     75  C         -4.1240  -42.6420 -111.2760 C.2   286  ASN286      0.2266
     76  O         -3.7520  -41.4720 -111.2050 O.2   286  ASN286     -0.2867
     77  CB        -5.3460  -42.0510 -113.3770 C.3   286  ASN286      0.1155
     78  CG        -5.8540  -42.5130 -114.7320 C.2   286  ASN286      0.2627
     79  OD1       -6.8890  -42.0510 -115.2130 O.2   286  ASN286     -0.2716
     80  ND2       -5.1320  -43.4450 -115.3480 N.am  286  ASN286     -0.0877
     81  N         -5.2380  -42.2060 -108.0630 N.3   288  TYR288     -0.1241
     82  CA        -5.9520  -41.4090 -107.0770 C.3   288  TYR288      0.1605
     83  C         -6.4210  -42.2970 -105.9260 C.2   288  TYR288      0.2264
     84  O         -6.1460  -43.4950 -105.9300 O.2   288  TYR288     -0.2867
     85  CB        -7.1080  -40.6660 -107.7450 C.3   288  TYR288      0.0534
     86  CG        -6.6190  -39.7090 -108.8080 C.ar  288  TYR288     -0.0201
     87  CD1       -6.0920  -38.4690 -108.4640 C.ar  288  TYR288     -0.0009
     88  CD2       -6.6580  -40.0550 -110.1540 C.ar  288  TYR288     -0.0009
     89  CE1       -5.6310  -37.5960 -109.4340 C.ar  288  TYR288      0.0417
     90  CE2       -6.1980  -39.1880 -111.1270 C.ar  288  TYR288      0.0417
     91  CZ        -5.6870  -37.9610 -110.7620 C.ar  288  TYR288      0.1957
     92  OH        -5.2310  -37.0950 -111.7300 O.3   288  TYR288     -0.2866
     93  N        -14.0910  -46.9820 -113.5570 N.3   335  ARG335     -0.1245
     94  CA       -12.8960  -46.8400 -114.3830 C.3   335  ARG335      0.1563
     95  C        -11.6720  -47.4230 -113.6850 C.2   335  ARG335      0.2260
     96  O        -11.4260  -47.1560 -112.5070 O.2   335  ARG335     -0.2867
     97  CB       -12.6490  -45.3720 -114.7390 C.3   335  ARG335      0.0307
     98  CG       -11.6180  -45.1710 -115.8490 C.3   335  ARG335      0.0489
     99  CD       -11.6730  -43.7570 -116.4180 C.3   335  ARG335      0.2205
    100  NE       -11.2730  -43.7130 -117.8240 N.pl3 335  ARG335     -0.0865
    101  CZ       -10.1990  -43.0790 -118.2840 C.cat 335  ARG335      0.5346
    102  NH1       -9.4040  -42.4200 -117.4530 N.pl3 335  ARG335      0.1354
    103  NH2       -9.9240  -43.0990 -119.5810 N.pl3 335  ARG335      0.1354
    104  N          0.9410  -43.8670 -113.6160 N.3   342  PHE342     -0.1241
    105  CA         0.6960  -42.4540 -113.3500 C.3   342  PHE342      0.1605
    106  C          0.3870  -42.2320 -111.8710 C.2   342  PHE342      0.2264
    107  O         -0.2680  -43.0600 -111.2340 O.2   342  PHE342     -0.2867
    108  CB        -0.4490  -41.9420 -114.2260 C.3   342  PHE342      0.0534
    109  CG        -0.6490  -40.4550 -114.1660 C.ar  342  PHE342     -0.0203
    110  CD1        0.2750  -39.5930 -114.7350 C.ar  342  PHE342     -0.0042
    111  CD2       -1.7720  -39.9190 -113.5590 C.ar  342  PHE342     -0.0042
    112  CE1        0.0900  -38.2220 -114.6850 C.ar  342  PHE342     -0.0003
    113  CE2       -1.9620  -38.5510 -113.5040 C.ar  342  PHE342     -0.0003
    114  CZ        -1.0300  -37.7020 -114.0680 C.ar  342  PHE342     -0.0000
@<TRIPOS>BOND
     1     1     2    1
     2   103   101    1
     3    12    11    1
     4    10    11   ar
     5    10     8   ar
     6     2     3    1
     7     2     5    1
     8    16    15    2
     9   101   100    2
    10   101   102    1
    11    11     9   ar
    12     3     4    2
    13     8     6   ar
    14   100    99    1
    15    13    14    1
    16    15    14    1
    17     9     7   ar
    18     6     7   ar
    19     6     5    1
    20    14    17    1
    21    99    98    1
    22    20    21    1
    23    98    97    1
    24    17    19    1
    25    17    18    1
    26    22    23    2
    27    22    21    1
    28    80    78   am
    29    21    24    1
    30    79    78    2
    31    24    25    1
    32    97    94    1
    33   110   112   ar
    34   110   109   ar
    35    78    77    1
    36   112   114   ar
    37    25    26    1
    38    94    95    1
    39    94    93    1
    40    48    46   am
    41   108   109    1
    42   108   105    1
    43   109   111   ar
    44    47    46    2
    45   114   113   ar
    46    46    45    1
    47    44    45    1
    48    44    41    1
    49    40    41    1
    50    95    96    2
    51   104   105    1
    52   111   113   ar
    53    77    74    1
    54   105   106    1
    55    41    42    1
    56    26    27    1
    57    74    73    1
    58    74    75    1
    59    71    72   ar
    60    71    69   ar
    61    72    70   ar
    62    69    68   ar
    63    70    68   ar
    64   106   107    2
    65    92    91    1
    66    42    43    2
    67    68    67    1
    68    62    61   ar
    69    62    60   ar
    70    75    76    2
    71    61    59   ar
    72    90    91   ar
    73    90    88   ar
    74    60    58   ar
    75    67    64    1
    76    64    63    1
    77    64    65    1
    78    91    89   ar
    79    59    56   ar
    80    58    56   ar
    81    58    57   ar
    82    56    54   ar
    83    88    86   ar
    84    57    55   ar
    85    65    66    2
    86    54    55   ar
    87    54    53    1
    88    89    87   ar
    89    37    35   ar
    90    37    38   ar
    91    53    50    1
    92    35    33   ar
    93    86    87   ar
    94    86    85    1
    95    39    38    1
    96    38    36   ar
    97    33    32    1
    98    33    34   ar
    99    49    50    1
   100    32    29    1
   101    50    51    1
   102    81    82    1
   103    36    34   ar
   104    85    82    1
   105    30    29    1
   106    30    31    2
   107    29    28    1
   108    82    83    1
   109    51    52    2
   110    84    83    2
