@<TRIPOS>MOLECULE
tmp/4rnwA01.pdb
 114 111 0 0 0
SMALL
GASTEIGER

@<TRIPOS>ATOM
      1  N         -4.3150    0.8320   -9.3050 N.3    70  TYR70      -0.1241
      2  CA        -3.3250    1.2260  -10.3270 C.3    70  TYR70       0.1605
      3  C         -3.8610    1.5130  -11.7210 C.2    70  TYR70       0.2264
      4  O         -3.0860    1.6750  -12.6640 O.2    70  TYR70      -0.2867
      5  CB        -2.1920    0.2100  -10.4280 C.3    70  TYR70       0.0534
      6  CG        -1.7090   -0.2780   -9.0790 C.ar   70  TYR70      -0.0201
      7  CD1       -1.1870    0.6080   -8.1300 C.ar   70  TYR70      -0.0009
      8  CD2       -1.7930   -1.6050   -8.7460 C.ar   70  TYR70      -0.0009
      9  CE1       -0.7870    0.1690   -6.9000 C.ar   70  TYR70       0.0417
     10  CE2       -1.3790   -2.0540   -7.5090 C.ar   70  TYR70       0.0417
     11  CZ        -0.8640   -1.1660   -6.5990 C.ar   70  TYR70       0.1957
     12  OH        -0.4570   -1.6130   -5.3580 O.3    70  TYR70      -0.2866
     13  N          1.7340    4.4800   -4.2720 N.3   129  THR129     -0.1218
     14  CA         1.8550    4.4470   -5.7250 C.3   129  THR129      0.1862
     15  C          0.4710    4.1970   -6.3390 C.2   129  THR129      0.2287
     16  O         -0.1860    3.2270   -6.0070 O.2   129  THR129     -0.2866
     17  CB         2.8570    3.3510   -6.1220 C.3   129  THR129      0.1770
     18  OG1        4.1880    3.8030   -5.8330 O.3   129  THR129     -0.2211
     19  CG2        2.7600    3.0220   -7.6160 C.3   129  THR129      0.0375
     20  N         -0.0230    4.8870   -9.9270 N.3   131  MET131     -0.1245
     21  CA         0.2120    4.6390  -11.3510 C.3   131  MET131      0.1570
     22  C         -0.5820    5.4860  -12.3180 C.2   131  MET131      0.2261
     23  O         -0.9010    5.0320  -13.4150 O.2   131  MET131     -0.2867
     24  CB         0.0790    3.1420  -11.7170 C.3   131  MET131      0.0387
     25  CG         0.9920    2.2620  -10.8470 C.3   131  MET131      0.0595
     26  SD         2.7450    2.6340  -11.0920 S.3   131  MET131     -0.1393
     27  CE         2.9970    2.0610  -12.7560 C.3   131  MET131      0.0692
     28  N          9.0500    2.1470  -14.4710 N.3   174  TYR174     -0.1241
     29  CA         7.5980    2.0100  -14.6450 C.3   174  TYR174      0.1605
     30  C          7.1300    3.2630  -15.3740 C.2   174  TYR174      0.2264
     31  O          7.3870    4.3830  -14.9200 O.2   174  TYR174     -0.2867
     32  CB         6.8700    1.9460  -13.3000 C.3   174  TYR174      0.0534
     33  CG         7.3400    0.8530  -12.3550 C.ar  174  TYR174     -0.0201
     34  CD1        7.7620   -0.3730  -12.8360 C.ar  174  TYR174     -0.0009
     35  CD2        7.3330    1.0630  -10.9790 C.ar  174  TYR174     -0.0009
     36  CE1        8.1910   -1.3840  -11.9510 C.ar  174  TYR174      0.0417
     37  CE2        7.7450    0.0690  -10.0980 C.ar  174  TYR174      0.0417
     38  CZ         8.1820   -1.1340  -10.5930 C.ar  174  TYR174      0.1957
     39  OH         8.5960   -2.1420   -9.7230 O.3   174  TYR174     -0.2866
     40  N          8.4580   11.0600   -1.3870 N.3   206  GLN206     -0.1245
     41  CA         9.2060    9.8150   -1.2840 C.3   206  GLN206      0.1566
     42  C         10.1110    9.6540   -2.5100 C.2   206  GLN206      0.2260
     43  O          9.6460    9.6480   -3.6540 O.2   206  GLN206     -0.2867
     44  CB         8.2950    8.6010   -1.1550 C.3   206  GLN206      0.0367
     45  CG         9.1770    7.3720   -0.8280 C.3   206  GLN206      0.0905
     46  CD         8.4460    6.0430   -0.7590 C.2   206  GLN206      0.2608
     47  OE1        7.8300    5.5910   -1.7270 O.2   206  GLN206     -0.2717
     48  NE2        8.6030    5.3720    0.3680 N.am  206  GLN206     -0.0878
     49  N         12.4530    7.5500   -4.8800 N.3   208  TRP208     -0.1241
     50  CA        12.3740    6.1430   -5.2760 C.3   208  TRP208      0.1605
     51  C         13.4200    5.7510   -6.3350 C.2   208  TRP208      0.2264
     52  O         13.5720    6.4320   -7.3580 O.2   208  TRP208     -0.2867
     53  CB        10.9680    5.8910   -5.8360 C.3   208  TRP208      0.0550
     54  CG        10.4530    4.4630   -5.8120 C.ar  208  TRP208      0.0003
     55  CD1       10.9960    3.3990   -5.1480 C.ar  208  TRP208      0.0946
     56  CD2        9.2680    3.9860   -6.4400 C.ar  208  TRP208      0.0152
     57  NE1       10.2070    2.2950   -5.3130 N.ar  208  TRP208     -0.2442
     58  CE2        9.1480    2.6150   -6.1180 C.ar  208  TRP208      0.0810
     59  CE3        8.2980    4.5840   -7.2580 C.ar  208  TRP208      0.0012
     60  CZ2        8.1060    1.8250   -6.5860 C.ar  208  TRP208      0.0191
     61  CZ3        7.2660    3.8070   -7.7180 C.ar  208  TRP208      0.0001
     62  CH2        7.1710    2.4420   -7.3810 C.ar  208  TRP208      0.0015
     63  N         11.3640   -2.7360  -14.8920 N.3   215  PHE215     -0.1241
     64  CA        11.1240   -3.5780  -16.0560 C.3   215  PHE215      0.1605
     65  C         12.2760   -3.4070  -17.0520 C.2   215  PHE215      0.2264
     66  O         12.4930   -2.3030  -17.5500 O.2   215  PHE215     -0.2867
     67  CB         9.7940   -3.1840  -16.6920 C.3   215  PHE215      0.0534
     68  CG         8.6010   -3.5580  -15.8610 C.ar  215  PHE215     -0.0203
     69  CD1        8.5110   -4.8350  -15.3090 C.ar  215  PHE215     -0.0042
     70  CD2        7.5900   -2.6470  -15.6110 C.ar  215  PHE215     -0.0042
     71  CE1        7.4050   -5.2180  -14.5410 C.ar  215  PHE215     -0.0003
     72  CE2        6.4600   -3.0240  -14.8480 C.ar  215  PHE215     -0.0003
     73  CZ         6.3790   -4.3180  -14.3220 C.ar  215  PHE215     -0.0000
     74  N         13.2090    6.1010    0.2460 N.3   283  HIS283     -0.1241
     75  CA        12.6290    4.7640    0.1760 C.3   283  HIS283      0.1621
     76  C         13.7570    3.7450    0.2380 C.2   283  HIS283      0.2264
     77  O         14.4310    3.4810   -0.7810 O.2   283  HIS283     -0.2867
     78  CB        11.8600    4.6100   -1.1410 C.3   283  HIS283      0.0745
     79  CG        10.8910    3.4680   -1.1500 C.ar  283  HIS283      0.0817
     80  ND1       10.9240    2.4540   -0.2090 N.ar  283  HIS283     -0.2268
     81  CD2        9.8730    3.1720   -1.9960 C.ar  283  HIS283      0.1154
     82  CE1        9.9450    1.5990   -0.4600 C.ar  283  HIS283      0.1986
     83  NE2        9.2940    2.0090   -1.5330 N.ar  283  HIS283     -0.2212
     84  N         10.8700   -2.2830    0.9290 N.3   286  ASN286     -0.1240
     85  CA        10.0520   -2.9990   -0.0540 C.3   286  ASN286      0.1653
     86  C         10.8160   -3.5710   -1.2370 C.2   286  ASN286      0.2266
     87  O         10.2520   -3.7630   -2.3230 O.2   286  ASN286     -0.2867
     88  CB         8.8980   -2.1050   -0.5380 C.3   286  ASN286      0.1155
     89  CG         7.9670   -1.6640    0.5850 C.2   286  ASN286      0.2627
     90  OD1        7.9040   -2.2690    1.6760 O.2   286  ASN286     -0.2716
     91  ND2        7.2490   -0.5850    0.3380 N.am  286  ASN286     -0.0877
     92  N         13.4050   -2.4190   -3.1030 N.3   288  TYR288     -0.1241
     93  CA        13.9250   -1.5440   -4.1730 C.3   288  TYR288      0.1605
     94  C         15.4280   -1.3900   -3.9940 C.2   288  TYR288      0.2264
     95  O         15.9950   -2.1340   -3.2320 O.2   288  TYR288     -0.2867
     96  CB        13.0990   -0.2380   -4.2620 C.3   288  TYR288      0.0534
     97  CG        11.6740   -0.5950   -4.5770 C.ar  288  TYR288     -0.0201
     98  CD1       11.3340   -1.0930   -5.8380 C.ar  288  TYR288     -0.0009
     99  CD2       10.6750   -0.4870   -3.6160 C.ar  288  TYR288     -0.0009
    100  CE1       10.0390   -1.4720   -6.1480 C.ar  288  TYR288      0.0417
    101  CE2        9.3750   -0.8730   -3.9140 C.ar  288  TYR288      0.0417
    102  CZ         9.0690   -1.3670   -5.1740 C.ar  288  TYR288      0.1957
    103  OH         7.7990   -1.7750   -5.4840 O.3   288  TYR288     -0.2866
    104  N          8.5430   -8.8950    0.1150 N.3   342  PHE342     -0.1241
    105  CA         8.1410   -8.3650   -1.1920 C.3   342  PHE342      0.1605
    106  C          9.3830   -8.0680   -2.0360 C.2   342  PHE342      0.2264
    107  O         10.3990   -7.5700   -1.5210 O.2   342  PHE342     -0.2867
    108  CB         7.2960   -7.0940   -0.9950 C.3   342  PHE342      0.0534
    109  CG         6.5650   -6.6340   -2.2250 C.ar  342  PHE342     -0.0203
    110  CD1        5.5620   -7.4200   -2.7800 C.ar  342  PHE342     -0.0042
    111  CD2        6.8910   -5.4350   -2.8260 C.ar  342  PHE342     -0.0042
    112  CE1        4.8850   -7.0090   -3.9170 C.ar  342  PHE342     -0.0003
    113  CE2        6.2030   -5.0090   -3.9720 C.ar  342  PHE342     -0.0003
    114  CZ         5.2080   -5.7990   -4.5020 C.ar  342  PHE342     -0.0000
@<TRIPOS>BOND
     1    66    65    2
     2    65    64    1
     3    67    64    1
     4    67    68    1
     5    64    63    1
     6    68    70   ar
     7    68    69   ar
     8    70    72   ar
     9    30    31    2
    10    30    29    1
    11    69    71   ar
    12    72    73   ar
    13    29    28    1
    14    29    32    1
    15    71    73   ar
    16    23    22    2
    17    32    33    1
    18    34    33   ar
    19    34    36   ar
    20    27    26    1
    21     4     3    2
    22    33    35   ar
    23    22    21    1
    24    36    38   ar
    25     3     2    1
    26    24    21    1
    27    24    25    1
    28    21    20    1
    29    26    25    1
    30    35    37   ar
    31    38    37   ar
    32    38    39    1
    33     5     2    1
    34     5     6    1
    35     2     1    1
    36     6     8   ar
    37     6     7   ar
    38     8    10   ar
    39     7     9   ar
    40    61    62   ar
    41    61    59   ar
    42    19    17    1
    43    10    11   ar
    44    62    60   ar
    45    52    51    2
    46    59    56   ar
    47     9    11   ar
    48    11    12    1
    49    60    58   ar
    50    56    58   ar
    51    56    54   ar
    52    15    16    2
    53    15    14    1
    54    51    50    1
    55   100    98   ar
    56   100   102   ar
    57    17    18    1
    58    17    14    1
    59    58    57   ar
    60    98    97   ar
    61    53    54    1
    62    53    50    1
    63    54    55   ar
    64    14    13    1
    65   103   102    1
    66    57    55   ar
    67    50    49    1
    68   102   101   ar
    69    97    96    1
    70    97    99   ar
    71   114   113   ar
    72   114   112   ar
    73    96    93    1
    74    93    94    1
    75    93    92    1
    76    94    95    2
    77   113   111   ar
    78   112   110   ar
    79   101    99   ar
    80    43    42    2
    81   111   109   ar
    82   110   109   ar
    83    42    41    1
    84    87    86    2
    85   109   108    1
    86   106   107    2
    87   106   105    1
    88    81    83   ar
    89    81    79   ar
    90    47    46    2
    91    83    82   ar
    92    40    41    1
    93    41    44    1
    94    86    85    1
    95   105   108    1
    96   105   104    1
    97    44    45    1
    98    79    78    1
    99    79    80   ar
   100    78    75    1
   101    45    46    1
   102    77    76    2
   103    46    48   am
   104    88    85    1
   105    88    89    1
   106    82    80   ar
   107    85    84    1
   108    75    76    1
   109    75    74    1
   110    91    89   am
   111    89    90    2
