@<TRIPOS>MOLECULE
tmp/4rnxB00.pdb
 244 241 0 0 0
SMALL
GASTEIGER

@<TRIPOS>ATOM
      1  N         47.4900   60.0290  -28.3590 N.3    38  HIS38      -0.1241
      2  CA        48.6030   59.5690  -27.5320 C.3    38  HIS38       0.1621
      3  C         49.1430   60.7300  -26.6980 C.2    38  HIS38       0.2264
      4  O         49.8350   61.6030  -27.2170 O.2    38  HIS38      -0.2867
      5  CB        49.7160   59.0010  -28.4130 C.3    38  HIS38       0.0745
      6  CG        50.7140   58.1660  -27.6720 C.ar   38  HIS38       0.0817
      7  ND1       50.8210   58.1670  -26.2960 N.ar   38  HIS38      -0.2268
      8  CD2       51.6480   57.2960  -28.1240 C.ar   38  HIS38       0.1154
      9  CE1       51.7780   57.3290  -25.9370 C.ar   38  HIS38       0.1986
     10  NE2       52.2990   56.7930  -27.0260 N.ar   38  HIS38      -0.2212
     11  N         53.3790   57.9640  -22.1690 N.3    41  ASN41      -0.1240
     12  CA        54.6800   57.3380  -22.4140 C.3    41  ASN41       0.1653
     13  C         55.8240   58.2720  -22.7950 C.2    41  ASN41       0.2266
     14  O         56.7840   57.8550  -23.4450 O.2    41  ASN41      -0.2867
     15  CB        54.5490   56.2000  -23.4320 C.3    41  ASN41       0.1155
     16  CG        53.5340   55.1490  -23.0050 C.2    41  ASN41       0.2627
     17  OD1       53.3300   54.9150  -21.8130 O.2    41  ASN41      -0.2716
     18  ND2       52.8960   54.5080  -23.9800 N.am   41  ASN41      -0.0877
     19  N         55.9690   60.9400  -24.7990 N.3    43  TYR43      -0.1241
     20  CA        56.0160   61.5750  -26.1120 C.3    43  TYR43       0.1605
     21  C         55.5480   63.0340  -26.0160 C.2    43  TYR43       0.2264
     22  O         55.4370   63.5510  -24.9040 O.2    43  TYR43      -0.2867
     23  CB        55.3150   60.7100  -27.1650 C.3    43  TYR43       0.0534
     24  CG        56.0470   59.3870  -27.2870 C.ar   43  TYR43      -0.0201
     25  CD1       57.2220   59.2930  -28.0220 C.ar   43  TYR43      -0.0009
     26  CD2       55.6080   58.2530  -26.6090 C.ar   43  TYR43      -0.0009
     27  CE1       57.9170   58.0980  -28.1110 C.ar   43  TYR43       0.0417
     28  CE2       56.2990   57.0570  -26.6900 C.ar   43  TYR43       0.0417
     29  CZ        57.4520   56.9830  -27.4440 C.ar   43  TYR43       0.1957
     30  OH        58.1430   55.7930  -27.5270 O.3    43  TYR43      -0.2866
     31  N         44.8750   58.6800  -24.2820 N.3    90  ARG90      -0.1245
     32  CA        45.7560   57.8130  -23.4980 C.3    90  ARG90       0.1563
     33  C         46.7010   58.6150  -22.5990 C.2    90  ARG90       0.2260
     34  O         47.3350   59.5720  -23.0490 O.2    90  ARG90      -0.2867
     35  CB        46.5600   56.8520  -24.3850 C.3    90  ARG90       0.0307
     36  CG        47.1710   55.7210  -23.5680 C.3    90  ARG90       0.0489
     37  CD        47.8020   54.6170  -24.4000 C.3    90  ARG90       0.2205
     38  NE        47.7300   53.3440  -23.6830 N.pl3  90  ARG90      -0.0865
     39  CZ        48.6600   52.3920  -23.7100 C.cat  90  ARG90       0.5346
     40  NH1       49.7770   52.5590  -24.4040 N.pl3  90  ARG90       0.1354
     41  NH2       48.4710   51.2650  -23.0340 N.pl3  90  ARG90       0.1354
     42  N         47.7630   53.7880  -18.6990 N.3   135  VAL135     -0.1245
     43  CA        48.8240   52.8450  -18.3850 C.3   135  VAL135      0.1561
     44  C         48.9390   52.8030  -16.8630 C.2   135  VAL135      0.2260
     45  O         48.9380   53.8420  -16.2080 O.2   135  VAL135     -0.2867
     46  CB        50.1770   53.2470  -19.0020 C.3   135  VAL135      0.0252
     47  CG1       51.2130   52.1560  -18.7510 C.3   135  VAL135      0.0019
     48  CG2       50.0290   53.5090  -20.5000 C.3   135  VAL135      0.0019
     49  N         53.3890   49.0580  -14.7520 N.3   139  VAL139     -0.1245
     50  CA        54.4120   49.1250  -15.7880 C.3   139  VAL139      0.1561
     51  C         54.7720   50.5850  -16.0410 C.2   139  VAL139      0.2260
     52  O         54.0750   51.2900  -16.7720 O.2   139  VAL139     -0.2867
     53  CB        53.9320   48.4800  -17.1090 C.3   139  VAL139      0.0252
     54  CG1       55.0140   48.5700  -18.1710 C.3   139  VAL139      0.0019
     55  CG2       53.5430   47.0330  -16.8870 C.3   139  VAL139      0.0019
     56  N         57.6370   50.0860  -20.4360 N.3   142  PRO142     -0.2102
     57  CA        57.1780   48.8410  -21.0640 C.3   142  PRO142      0.1504
     58  C         58.3070   48.0200  -21.6770 C.2   142  PRO142      0.2575
     59  O         58.0540   46.9460  -22.2190 O.2   142  PRO142     -0.2718
     60  CB        56.2280   49.3370  -22.1560 C.3   142  PRO142      0.0282
     61  CG        56.7770   50.6680  -22.5400 C.3   142  PRO142      0.0208
     62  CD        57.3760   51.2630  -21.2840 C.3   142  PRO142      0.0893
     63  N         59.5380   48.5090  -21.5860 N.am  143  PHE143     -0.1977
     64  CA        60.6730   47.7560  -22.0980 C.3   143  PHE143      0.1639
     65  C         61.4670   47.0880  -20.9780 C.2   143  PHE143      0.2290
     66  O         62.5450   46.5480  -21.2010 O.2   143  PHE143     -0.2864
     67  CB        61.5200   48.6340  -23.0140 C.3   143  PHE143      0.0560
     68  CG        60.7640   49.1140  -24.2170 C.ar  143  PHE143     -0.0200
     69  CD1       60.6150   48.2960  -25.3260 C.ar  143  PHE143     -0.0042
     70  CD2       60.1590   50.3590  -24.2220 C.ar  143  PHE143     -0.0042
     71  CE1       59.9000   48.7220  -26.4300 C.ar  143  PHE143     -0.0003
     72  CE2       59.4410   50.7900  -25.3220 C.ar  143  PHE143     -0.0003
     73  CZ        59.3110   49.9700  -26.4270 C.ar  143  PHE143     -0.0000
     74  N         58.0930   42.1350  -17.1650 N.3   146  GLU146     -0.1245
     75  CA        56.9610   42.1660  -16.2440 C.3   146  GLU146      0.1567
     76  C         57.4160   41.9950  -14.8000 C.2   146  GLU146      0.2260
     77  O         58.1750   41.0770  -14.4840 O.2   146  GLU146     -0.2867
     78  CB        55.9460   41.0760  -16.6050 C.3   146  GLU146      0.0388
     79  CG        55.1350   41.3460  -17.8680 C.3   146  GLU146      0.1160
     80  CD        55.8390   40.9490  -19.1570 C.2   146  GLU146      0.3649
     81  OE1       57.0000   40.4800  -19.1130 O.co2 146  GLU146     -0.2457
     82  OE2       55.2120   41.1100  -20.2270 O.co2 146  GLU146     -0.2457
     83  N         45.9270   49.2650  -18.7900 N.3   170  ALA170     -0.1231
     84  CA        46.9410   48.3850  -19.3670 C.3   170  ALA170      0.1694
     85  C         48.1880   48.3140  -18.4950 C.2   170  ALA170      0.2593
     86  O         48.6050   49.3070  -17.9070 O.2   170  ALA170     -0.2718
     87  CB        47.3160   48.8520  -20.7670 C.3   170  ALA170      0.0304
     88  N         48.7890   47.1320  -18.4280 N.am  171  GLY171     -0.1942
     89  CA        50.0730   46.9790  -17.7730 C.3   171  GLY171      0.2014
     90  C         50.1850   45.7050  -16.9600 C.2   171  GLY171      0.2639
     91  O         49.6660   45.6290  -15.8430 O.2   171  GLY171     -0.2714
     92  N         50.8640   44.7060  -17.5220 N.am  172  ASN172     -0.1958
     93  CA        51.1470   43.4500  -16.8280 C.3   172  ASN172      0.1819
     94  C         49.8940   42.7360  -16.3150 C.2   172  ASN172      0.2621
     95  O         49.8700   42.2220  -15.1940 O.2   172  ASN172     -0.2715
     96  CB        52.1600   43.6820  -15.6940 C.3   172  ASN172      0.1195
     97  CG        52.7670   42.3880  -15.1660 C.2   172  ASN172      0.2630
     98  OD1       52.6910   41.3360  -15.8050 O.2   172  ASN172     -0.2716
     99  ND2       53.3700   42.4640  -13.9860 N.am  172  ASN172     -0.0877
    100  N         48.8590   42.6810  -17.1470 N.am  173  PHE173     -0.1960
    101  CA        47.6260   42.0090  -16.7470 C.3   173  PHE173      0.1771
    102  C         47.5100   40.5650  -17.2380 C.2   173  PHE173      0.2619
    103  O         46.7600   39.7840  -16.6610 O.2   173  PHE173     -0.2715
    104  CB        46.3940   42.7970  -17.1900 C.3   173  PHE173      0.0574
    105  CG        46.1370   44.0310  -16.3750 C.ar  173  PHE173     -0.0200
    106  CD1       45.9210   43.9450  -15.0070 C.ar  173  PHE173     -0.0042
    107  CD2       46.0870   45.2760  -16.9810 C.ar  173  PHE173     -0.0042
    108  CE1       45.6690   45.0810  -14.2610 C.ar  173  PHE173     -0.0003
    109  CE2       45.8390   46.4130  -16.2400 C.ar  173  PHE173     -0.0003
    110  CZ        45.6280   46.3170  -14.8780 C.ar  173  PHE173     -0.0000
    111  N         48.2310   40.2080  -18.3000 N.am  174  ALA174     -0.1977
    112  CA        48.1110   38.8600  -18.8620 C.3   174  ALA174      0.1597
    113  C         48.5610   37.7860  -17.8730 C.2   174  ALA174      0.2287
    114  O         47.9490   36.7190  -17.7700 O.2   174  ALA174     -0.2864
    115  CB        48.8980   38.7430  -20.1620 C.3   174  ALA174      0.0319
    116  N         43.5950   46.3560  -21.2570 N.3   192  GLY192     -0.1210
    117  CA        44.4810   46.2660  -22.4000 C.3   192  GLY192      0.1956
    118  C         45.5940   45.2710  -22.1470 C.2   192  GLY192      0.2612
    119  O         46.2260   45.2810  -21.0860 O.2   192  GLY192     -0.2717
    120  N         45.8180   44.3990  -23.1230 N.am  193  TYR193     -0.1962
    121  CA        46.8780   43.4040  -23.0500 C.3   193  TYR193      0.1771
    122  C         47.8550   43.6240  -24.1990 C.2   193  TYR193      0.2620
    123  O         47.5090   43.4020  -25.3580 O.2   193  TYR193     -0.2715
    124  CB        46.2920   42.0020  -23.1670 C.3   193  TYR193      0.0574
    125  CG        45.3720   41.5630  -22.0470 C.ar  193  TYR193     -0.0198
    126  CD1       45.8740   40.9130  -20.9280 C.ar  193  TYR193     -0.0009
    127  CD2       43.9960   41.7490  -22.1330 C.ar  193  TYR193     -0.0009
    128  CE1       45.0390   40.4800  -19.9130 C.ar  193  TYR193      0.0417
    129  CE2       43.1510   41.3260  -21.1180 C.ar  193  TYR193      0.0417
    130  CZ        43.6790   40.6840  -20.0160 C.ar  193  TYR193      0.1957
    131  OH        42.8400   40.2480  -19.0160 O.3   193  TYR193     -0.2866
    132  N         49.0710   44.0530  -23.8790 N.am  194  GLY194     -0.1940
    133  CA        50.0330   44.4360  -24.8980 C.3   194  GLY194      0.2014
    134  C         50.9620   43.3270  -25.3470 C.2   194  GLY194      0.2639
    135  O         50.7210   42.6690  -26.3570 O.2   194  GLY194     -0.2714
    136  N         52.0340   43.1210  -24.5930 N.am  195  ARG195     -0.1963
    137  CA        53.0750   42.1800  -24.9900 C.3   195  ARG195      0.1729
    138  C         52.5660   40.7740  -25.2800 C.2   195  ARG195      0.2616
    139  O         53.0320   40.1220  -26.2140 O.2   195  ARG195     -0.2715
    140  CB        54.2050   42.1650  -23.9600 C.3   195  ARG195      0.0348
    141  CG        55.1150   43.3700  -24.0960 C.3   195  ARG195      0.0492
    142  CD        56.0040   43.5620  -22.8840 C.3   195  ARG195      0.2205
    143  NE        55.2670   44.1220  -21.7550 N.pl3 195  ARG195     -0.0865
    144  CZ        55.8190   44.4070  -20.5820 C.cat 195  ARG195      0.5346
    145  NH1       57.1100   44.1750  -20.3880 N.pl3 195  ARG195      0.1354
    146  NH2       55.0850   44.9160  -19.6020 N.pl3 195  ARG195      0.1354
    147  N         51.5890   40.3100  -24.5120 N.am  196  PHE196     -0.1974
    148  CA        51.0810   38.9710  -24.7600 C.3   196  PHE196      0.1639
    149  C         50.0910   38.8820  -25.9190 C.2   196  PHE196      0.2290
    150  O         49.8230   37.7870  -26.4120 O.2   196  PHE196     -0.2864
    151  CB        50.6130   38.2930  -23.4700 C.3   196  PHE196      0.0560
    152  CG        51.7580   37.8100  -22.6320 C.ar  196  PHE196     -0.0200
    153  CD1       52.4370   36.6550  -22.9800 C.ar  196  PHE196     -0.0042
    154  CD2       52.2020   38.5430  -21.5430 C.ar  196  PHE196     -0.0042
    155  CE1       53.5210   36.2180  -22.2410 C.ar  196  PHE196     -0.0003
    156  CE2       53.2840   38.1100  -20.7970 C.ar  196  PHE196     -0.0003
    157  CZ        53.9430   36.9440  -21.1450 C.ar  196  PHE196     -0.0000
    158  N         51.0590   40.4630  -28.6580 N.3   198  ILE198     -0.1245
    159  CA        52.0800   40.2750  -29.6820 C.3   198  ILE198      0.1561
    160  C         52.2820   38.7780  -29.9360 C.2   198  ILE198      0.2260
    161  O         52.2950   38.3310  -31.0830 O.2   198  ILE198     -0.2867
    162  CB        53.4150   40.9400  -29.2870 C.3   198  ILE198      0.0252
    163  CG1       53.2690   42.4660  -29.3410 C.3   198  ILE198      0.0019
    164  CG2       54.5590   40.4590  -30.1900 C.3   198  ILE198      0.0019
    165  CD1       54.5090   43.2230  -28.9120 C.3   198  ILE198      0.0001
    166  N         60.2470   42.3100  -31.4600 N.3   221  PHE221     -0.1227
    167  CA        59.2440   43.3540  -31.2470 C.3   221  PHE221      0.1736
    168  C         59.3860   44.4340  -32.3140 C.2   221  PHE221      0.2595
    169  O         58.4030   44.8410  -32.9340 O.2   221  PHE221     -0.2718
    170  CB        59.4010   44.0010  -29.8710 C.3   221  PHE221      0.0547
    171  CG        58.8070   43.2090  -28.7380 C.ar  221  PHE221     -0.0202
    172  CD1       58.2250   41.9670  -28.9440 C.ar  221  PHE221     -0.0042
    173  CD2       58.8200   43.7310  -27.4520 C.ar  221  PHE221     -0.0042
    174  CE1       57.6820   41.2600  -27.8800 C.ar  221  PHE221     -0.0003
    175  CE2       58.2760   43.0360  -26.3950 C.ar  221  PHE221     -0.0003
    176  CZ        57.7060   41.7990  -26.6080 C.ar  221  PHE221     -0.0000
    177  N         60.6180   44.9070  -32.4940 N.am  222  TYR222     -0.1976
    178  CA        60.9630   45.8620  -33.5410 C.3   222  TYR222      0.1639
    179  C         61.9370   45.1740  -34.4790 C.2   222  TYR222      0.2290
    180  O         63.1030   44.9820  -34.1250 O.2   222  TYR222     -0.2864
    181  CB        61.7070   47.0710  -32.9720 C.3   222  TYR222      0.0560
    182  CG        60.9360   48.0300  -32.0950 C.ar  222  TYR222     -0.0198
    183  CD1       59.5850   47.8580  -31.8300 C.ar  222  TYR222     -0.0009
    184  CD2       61.5760   49.1340  -31.5480 C.ar  222  TYR222     -0.0009
    185  CE1       58.9000   48.7580  -31.0250 C.ar  222  TYR222      0.0417
    186  CE2       60.9050   50.0340  -30.7520 C.ar  222  TYR222      0.0417
    187  CZ        59.5670   49.8450  -30.4930 C.ar  222  TYR222      0.1957
    188  OH        58.9030   50.7490  -29.6950 O.3   222  TYR222     -0.2866
    189  N         46.0470   47.1730  -26.9260 N.3   280  PRO280     -0.2103
    190  CA        46.5640   48.5340  -26.8150 C.3   280  PRO280      0.1489
    191  C         47.5090   48.7950  -27.9760 C.2   280  PRO280      0.2418
    192  O         47.9210   47.8520  -28.6590 O.2   280  PRO280     -0.2734
    193  CB        47.3370   48.4940  -25.4930 C.3   280  PRO280      0.0282
    194  CG        47.8560   47.1150  -25.4380 C.3   280  PRO280      0.0208
    195  CD        46.7940   46.2390  -26.0700 C.3   280  PRO280      0.0893
    196  N         47.8450   50.0650  -28.2090 N.am  281  PRO281     -0.2718
    197  CA        48.7700   50.4000  -29.2970 C.3   281  PRO281      0.1535
    198  C         50.1360   49.7500  -29.0930 C.2   281  PRO281      0.2598
    199  O         50.6880   49.8170  -27.9940 O.2   281  PRO281     -0.2715
    200  CB        48.8740   51.9250  -29.1990 C.3   281  PRO281      0.0310
    201  CG        48.4580   52.2500  -27.7910 C.3   281  PRO281      0.0237
    202  CD        47.4040   51.2580  -27.4640 C.3   281  PRO281      0.0939
    203  N         50.6630   49.1300  -30.1460 N.am  282  LEU282     -0.1964
    204  CA        51.9540   48.4490  -30.0860 C.3   282  LEU282      0.1728
    205  C         52.7490   48.7220  -31.3530 C.2   282  LEU282      0.2616
    206  O         52.4800   48.1440  -32.4080 O.2   282  LEU282     -0.2715
    207  CB        51.7690   46.9370  -29.9200 C.3   282  LEU282      0.0311
    208  CG        51.0730   46.4870  -28.6350 C.3   282  LEU282      0.0022
    209  CD1       50.4080   45.1390  -28.8510 C.3   282  LEU282      0.0001
    210  CD2       52.0550   46.4280  -27.4690 C.3   282  LEU282      0.0001
    211  N         53.7160   49.6230  -31.2420 N.am  283  THR283     -0.1951
    212  CA        54.6700   49.8920  -32.3060 C.3   283  THR283      0.1897
    213  C         55.4530   48.6250  -32.6500 C.2   283  THR283      0.2313
    214  O         55.9670   47.9510  -31.7610 O.2   283  THR283     -0.2863
    215  CB        55.6300   51.0110  -31.8640 C.3   283  THR283      0.1794
    216  OG1       54.9160   52.2510  -31.8000 O.3   283  THR283     -0.2208
    217  CG2       56.7910   51.1580  -32.8260 C.3   283  THR283      0.0378
    218  N         51.1360   53.2750  -32.8010 N.3   318  GLY318     -0.1225
    219  CA        51.2150   54.7110  -32.9850 C.3   318  GLY318      0.1811
    220  C         51.4400   55.0760  -34.4430 C.2   318  GLY318      0.2280
    221  O         52.2660   54.4740  -35.1210 O.2   318  GLY318     -0.2866
    222  N         45.8030   55.1680  -33.2060 N.3   360  GLN360     -0.1245
    223  CA        46.5130   56.0250  -32.2610 C.3   360  GLN360      0.1566
    224  C         47.3080   57.0920  -33.0040 C.2   360  GLN360      0.2260
    225  O         48.1360   56.7750  -33.8600 O.2   360  GLN360     -0.2867
    226  CB        47.4430   55.2480  -31.3310 C.3   360  GLN360      0.0367
    227  CG        48.0030   56.1710  -30.2590 C.3   360  GLN360      0.0905
    228  CD        49.0480   55.5380  -29.3760 C.2   360  GLN360      0.2608
    229  OE1       50.1090   55.1290  -29.8460 O.2   360  GLN360     -0.2717
    230  NE2       48.7660   55.4780  -28.0760 N.am  360  GLN360     -0.0878
    231  N         50.1000   59.8410  -33.0950 N.3   362  TRP362     -0.1241
    232  CA        51.3800   59.8870  -32.3920 C.3   362  TRP362      0.1605
    233  C         52.2300   61.0750  -32.8240 C.2   362  TRP362      0.2264
    234  O         52.3660   61.3490  -34.0200 O.2   362  TRP362     -0.2867
    235  CB        52.1440   58.6030  -32.7140 C.3   362  TRP362      0.0550
    236  CG        53.2190   58.1790  -31.7460 C.ar  362  TRP362      0.0003
    237  CD1       53.4540   58.6620  -30.4880 C.ar  362  TRP362      0.0946
    238  CD2       54.1860   57.1470  -31.9660 C.ar  362  TRP362      0.0152
    239  NE1       54.5150   57.9890  -29.9160 N.ar  362  TRP362     -0.2442
    240  CE2       54.9790   57.0560  -30.8060 C.ar  362  TRP362      0.0810
    241  CE3       54.4630   56.2960  -33.0430 C.ar  362  TRP362      0.0012
    242  CZ2       56.0290   56.1450  -30.6920 C.ar  362  TRP362      0.0191
    243  CZ3       55.5030   55.3930  -32.9260 C.ar  362  TRP362      0.0001
    244  CH2       56.2720   55.3240  -31.7610 C.ar  362  TRP362      0.0015
@<TRIPOS>BOND
     1   221   220    2
     2   179   180    2
     3   179   178    1
     4   220   219    1
     5   234   233    2
     6   225   224    2
     7   178   181    1
     8   178   177    1
     9   222   223    1
    10   231   232    1
    11   241   243   ar
    12   241   238   ar
    13   224   223    1
    14   219   218    1
    15   181   182    1
    16   169   168    2
    17   243   244   ar
    18   217   215    1
    19   233   232    1
    20   235   232    1
    21   235   236    1
    22   213   212    1
    23   213   214    2
    24   177   168   am
    25   206   205    2
    26   168   167    1
    27   212   215    1
    28   212   211    1
    29   223   226    1
    30   182   183   ar
    31   182   184   ar
    32   238   236   ar
    33   238   240   ar
    34   215   216    1
    35   183   185   ar
    36   244   242   ar
    37   236   237   ar
    38   184   186   ar
    39   166   167    1
    40   205   211   am
    41   205   204    1
    42   226   227    1
    43   167   170    1
    44   161   160    2
    45   185   187   ar
    46   240   242   ar
    47   240   239   ar
    48   186   187   ar
    49   187   188    1
    50   237   239   ar
    51   227   228    1
    52   164   162    1
    53   203   204    1
    54   203   198   am
    55   204   207    1
    56   160   159    1
    57   207   208    1
    58   170   171    1
    59   229   228    2
    60   159   162    1
    61   159   158    1
    62   228   230   am
    63   163   162    1
    64   163   165    1
    65   197   200    1
    66   197   198    1
    67   197   196    1
    68   200   201    1
    69   198   199    2
    70   172   171   ar
    71   172   174   ar
    72   209   208    1
    73   171   173   ar
    74   192   191    2
    75   208   210    1
    76     5     6    1
    77     5     2    1
    78     1     2    1
    79   196   191   am
    80   196   202    1
    81     8     6   ar
    82     8    10   ar
    83    27    25   ar
    84    27    29   ar
    85    25    24   ar
    86   191   190    1
    87   174   176   ar
    88   201   202    1
    89     6     7   ar
    90     2     3    1
    91    30    29    1
    92   173   175   ar
    93    29    28   ar
    94    24    23    1
    95    24    26   ar
    96     4     3    2
    97    23    20    1
    98    10     9   ar
    99   189   190    1
   100   189   195    1
   101   190   193    1
   102    28    26   ar
   103   176   175   ar
   104    71    73   ar
   105    71    69   ar
   106    73    72   ar
   107   150   149    2
   108   135   134    2
   109     7     9   ar
   110   139   138    2
   111    20    21    1
   112    20    19    1
   113   195   194    1
   114    21    22    2
   115   149   148    1
   116   193   194    1
   117   123   122    2
   118   134   133    1
   119   134   136   am
   120    69    68   ar
   121    72    70   ar
   122   138   137    1
   123   138   147   am
   124   137   136    1
   125   137   140    1
   126   133   132    1
   127   148   147    1
   128   148   151    1
   129    40    39    1
   130    37    38    1
   131    37    36    1
   132    35    36    1
   133    35    32    1
   134    31    32    1
   135    70    68   ar
   136    68    67    1
   137   122   132   am
   138   122   121    1
   139   141   140    1
   140   141   142    1
   141    18    16   am
   142    39    38    2
   143    39    41    1
   144    32    33    1
   145   151   152    1
   146    14    13    2
   147    15    16    1
   148    15    12    1
   149   124   121    1
   150   124   125    1
   151   120   121    1
   152   120   118   am
   153    34    33    2
   154    67    64    1
   155    16    17    2
   156   153   152   ar
   157   153   155   ar
   158   142   143    1
   159    13    12    1
   160   152   154   ar
   161    61    60    1
   162    61    62    1
   163    12    11    1
   164   117   118    1
   165   117   116    1
   166   155   157   ar
   167    59    58    2
   168    60    57    1
   169   118   119    2
   170   127   125   ar
   171   127   129   ar
   172    64    63    1
   173    64    65    1
   174   125   126   ar
   175   143   144    2
   176    58    63   am
   177    58    57    1
   178   154   156   ar
   179    62    56    1
   180    66    65    2
   181   157   156   ar
   182   129   130   ar
   183    57    56    1
   184   126   128   ar
   185    87    84    1
   186   144   145    1
   187   144   146    1
   188    48    46    1
   189    82    80   ar
   190   115   112    1
   191   130   128   ar
   192   130   131    1
   193    84    83    1
   194    84    85    1
   195    80    81   ar
   196    80    79    1
   197    46    47    1
   198    46    43    1
   199   112   111    1
   200   112   113    1
   201    42    43    1
   202    85    88   am
   203    85    86    2
   204    88    89    1
   205    43    44    1
   206   111   102   am
   207    54    53    1
   208   113   114    2
   209    79    78    1
   210    89    90    1
   211    92    90   am
   212    92    93    1
   213   102   101    1
   214   102   103    2
   215   104   101    1
   216   104   105    1
   217    74    75    1
   218   100   101    1
   219   100    94   am
   220    53    55    1
   221    53    50    1
   222   107   105   ar
   223   107   109   ar
   224    90    91    2
   225    44    45    2
   226    93    94    1
   227    93    96    1
   228    52    51    2
   229    78    75    1
   230   105   106   ar
   231    94    95    2
   232    75    76    1
   233   109   110   ar
   234    51    50    1
   235    98    97    2
   236    50    49    1
   237    96    97    1
   238    97    99   am
   239   106   108   ar
   240   110   108   ar
   241    76    77    2
