@<TRIPOS>MOLECULE
tmp/4rojA00.pdb
 141 136 0 0 0
SMALL
GASTEIGER

@<TRIPOS>ATOM
      1  N         93.9890   21.5350    7.4820 N.3    14  ARG14      -0.1245
      2  CA        92.9910   22.5530    7.7560 C.3    14  ARG14       0.1563
      3  C         92.8870   23.5330    6.6300 C.2    14  ARG14       0.2260
      4  O         91.7950   23.8650    6.2470 O.2    14  ARG14      -0.2867
      5  CB        93.2020   23.3370    9.0990 C.3    14  ARG14       0.0307
      6  CG        92.0700   24.3650    9.2940 C.3    14  ARG14       0.0489
      7  CD        92.1050   25.2610   10.5370 C.3    14  ARG14       0.2205
      8  NE        91.8220   24.4320   11.6640 N.pl3  14  ARG14      -0.0865
      9  CZ        91.0640   24.7570   12.6940 C.cat  14  ARG14       0.5346
     10  NH1       90.9690   23.8820   13.6250 N.pl3  14  ARG14       0.1354
     11  NH2       90.5160   25.9790   12.8360 N.pl3  14  ARG14       0.1354
     12  N         88.1470   14.2710    8.1720 N.3    32  ARG32      -0.1245
     13  CA        89.5250   14.1990    7.7320 C.3    32  ARG32       0.1563
     14  C         90.3940   13.5640    8.8390 C.2    32  ARG32       0.2260
     15  O         90.0550   13.6420   10.0270 O.2    32  ARG32      -0.2867
     16  CB        90.0530   15.6020    7.3350 C.3    32  ARG32       0.0307
     17  CG        90.0180   16.6100    8.4900 C.3    32  ARG32       0.0489
     18  CD        90.3070   18.0180    7.9870 C.3    32  ARG32       0.2205
     19  NE        90.0280   19.0400    8.9820 N.pl3  32  ARG32      -0.0865
     20  CZ        90.9000   19.5300    9.8440 C.cat  32  ARG32       0.5346
     21  NH1       92.1390   19.0520    9.9120 N.pl3  32  ARG32       0.1354
     22  NH2       90.4910   20.4660   10.7030 N.pl3  32  ARG32       0.1354
     23  N         93.9610   13.0660   10.9190 N.3    34  ARG34      -0.1245
     24  CA        95.0270   13.8320   11.5630 C.3    34  ARG34       0.1563
     25  C         96.0720   12.8010   12.0800 C.2    34  ARG34       0.2260
     26  O         96.1030   12.4650   13.2730 O.2    34  ARG34      -0.2867
     27  CB        94.4170   14.6460   12.7100 C.3    34  ARG34       0.0307
     28  CG        93.3810   15.6950   12.2440 C.3    34  ARG34       0.0489
     29  CD        92.7220   16.3730   13.4110 C.3    34  ARG34       0.2205
     30  NE        93.5620   17.3220   14.1390 N.pl3  34  ARG34      -0.0865
     31  CZ        93.7980   17.3180   15.4530 C.cat  34  ARG34       0.5346
     32  NH1       93.2900   16.3830   16.2450 N.pl3  34  ARG34       0.1354
     33  NH2       94.5620   18.2660   15.9900 N.pl3  34  ARG34       0.1354
     34  N         89.0360   14.7270   12.4630 N.3    42  ALA42      -0.1245
     35  CA        88.2550   15.9180   12.6820 C.3    42  ALA42       0.1562
     36  C         87.0600   15.9140   11.7540 C.2    42  ALA42       0.2260
     37  O         87.1280   15.3980   10.6550 O.2    42  ALA42      -0.2867
     38  CB        89.0990   17.1600   12.4610 C.3    42  ALA42       0.0290
     39  N         83.6390   25.3820   10.5260 N.3    52  LYS52      -0.1231
     40  CA        83.9040   24.9790   11.9070 C.3    52  LYS52       0.1693
     41  C         84.5800   23.6140   11.9180 C.2    52  LYS52       0.2592
     42  O         84.3810   22.8220   11.0360 O.2    52  LYS52      -0.2718
     43  CB        82.5960   24.8680   12.7260 C.3    52  LYS52       0.0285
     44  CG        81.6590   26.0770   12.6310 C.3    52  LYS52       0.0035
     45  CD        82.3470   27.3980   12.8480 C.3    52  LYS52       0.0206
     46  CE        83.0080   27.5050   14.1940 C.3    52  LYS52       0.1093
     47  NZ        83.2780   28.9320   14.4980 N.3    52  LYS52      -0.1314
     48  N         85.3630   23.3600   12.9510 N.am   53  HIS53      -0.1962
     49  CA        86.1180   22.1480   13.0620 C.3    53  HIS53       0.1787
     50  C         85.9500   21.5450   14.4570 C.2    53  HIS53       0.2620
     51  O         86.1470   22.2190   15.4820 O.2    53  HIS53      -0.2715
     52  CB        87.5950   22.4330   12.8440 C.3    53  HIS53       0.0785
     53  CG        87.8800   23.1280   11.5450 C.ar   53  HIS53       0.0821
     54  ND1       88.1220   22.4480   10.3770 N.ar   53  HIS53      -0.2267
     55  CD2       87.9820   24.4460   11.2420 C.ar   53  HIS53       0.1154
     56  CE1       88.3200   23.3180    9.3950 C.ar   53  HIS53       0.1986
     57  NE2       88.2610   24.5350    9.9000 N.ar   53  HIS53      -0.2212
     58  N         85.7480   20.2440   14.4820 N.am   54  ILE54      -0.1963
     59  CA        85.4880   19.5020   15.6980 C.3    54  ILE54       0.1727
     60  C         86.4150   18.2730   15.7790 C.2    54  ILE54       0.2616
     61  O         86.4640   17.4590   14.8790 O.2    54  ILE54      -0.2715
     62  CB        84.0390   18.9590   15.6540 C.3    54  ILE54       0.0290
     63  CG1       83.0420   20.1150   15.4550 C.3    54  ILE54       0.0022
     64  CG2       83.7260   18.1580   16.9310 C.3    54  ILE54       0.0023
     65  CD1       81.6530   19.6350   15.0790 C.3    54  ILE54       0.0001
     66  N         87.0910   18.1350   16.8960 N.am   55  LYS55      -0.1977
     67  CA        87.9730   17.0000   17.1550 C.3    55  LYS55       0.1596
     68  C         87.1830   15.7620   17.4210 C.2    55  LYS55       0.2287
     69  O         86.1550   15.8110   18.1790 O.2    55  LYS55      -0.2864
     70  CB        88.8380   17.2670   18.3820 C.3    55  LYS55       0.0298
     71  CG        90.0140   18.1490   18.1380 C.3    55  LYS55       0.0038
     72  CD        90.7780   18.4090   19.4320 C.3    55  LYS55       0.0206
     73  CE        91.7920   19.4980   19.2060 C.3    55  LYS55       0.1093
     74  NZ        92.6470   19.7240   20.3840 N.3    55  LYS55      -0.1314
     75  N         82.7300   12.9240   19.7590 N.3    65  ILE65      -0.1231
     76  CA        83.0640   14.3710   19.7380 C.3    65  ILE65       0.1692
     77  C         82.7320   15.0110   21.0640 C.2    65  ILE65       0.2593
     78  O         83.2900   16.0360   21.3880 O.2    65  ILE65      -0.2718
     79  CB        82.4120   15.1360   18.5490 C.3    65  ILE65       0.0266
     80  CG1       80.8920   15.0130   18.5430 C.3    65  ILE65       0.0019
     81  CG2       82.9320   14.5960   17.2460 C.3    65  ILE65       0.0020
     82  CD1       80.1990   15.8650   17.4910 C.3    65  ILE65       0.0001
     83  N         81.8620   14.3690   21.8690 N.am   66  THR66      -0.1939
     84  CA        81.7250   14.7120   23.2590 C.3    66  THR66       0.2028
     85  C         81.6240   13.4400   24.0800 C.2    66  THR66       0.2642
     86  O         80.9800   12.4800   23.6440 O.2    66  THR66      -0.2714
     87  CB        80.4840   15.6080   23.5800 C.3    66  THR66       0.1808
     88  OG1       80.2570   15.5480   24.9970 O.3    66  THR66      -0.2208
     89  CG2       79.2440   15.1580   22.8960 C.3    66  THR66       0.0379
     90  N         82.2430   13.4360   25.2590 N.am   67  GLU67      -0.1976
     91  CA        82.1840   12.2490   26.1540 C.3    67  GLU67       0.1602
     92  C         80.7800   11.8940   26.6040 C.2    67  GLU67       0.2287
     93  O         80.5760   10.7940   27.0700 O.2    67  GLU67      -0.2864
     94  CB        83.0720   12.4050   27.3850 C.3    67  GLU67       0.0415
     95  CG        84.5310   12.4530   26.9950 C.3    67  GLU67       0.1163
     96  CD        85.4890   12.3110   28.1560 C.2    67  GLU67       0.3649
     97  OE1       85.0710   11.8900   29.2550 O.co2  67  GLU67      -0.2457
     98  OE2       86.6820   12.6310   27.9370 O.co2  67  GLU67      -0.2457
     99  N         75.3100   18.9770   21.3310 N.3    89  SER89      -0.1202
    100  CA        76.5740   19.1860   22.0020 C.3    89  SER89       0.2020
    101  C         77.3120   20.5050   21.7780 C.2    89  SER89       0.2619
    102  O         78.1770   20.8500   22.5690 O.2    89  SER89      -0.2717
    103  CB        77.4290   17.9730   21.7640 C.3    89  SER89       0.2103
    104  OG        76.7420   16.8870   22.4110 O.3    89  SER89      -0.2182
    105  N         76.9280   21.2660   20.7390 N.am   90  PHE90      -0.1961
    106  CA        77.4880   22.6040   20.4920 C.3    90  PHE90       0.1771
    107  C         76.3380   23.4900   20.1510 C.2    90  PHE90       0.2619
    108  O         75.8600   23.4410   19.0510 O.2    90  PHE90      -0.2715
    109  CB        78.5120   22.5820   19.3140 C.3    90  PHE90       0.0574
    110  CG        79.5550   21.5120   19.4370 C.ar   90  PHE90      -0.0200
    111  CD1       80.7310   21.7570   20.0860 C.ar   90  PHE90      -0.0042
    112  CD2       79.3150   20.2150   18.9740 C.ar   90  PHE90      -0.0042
    113  CE1       81.6780   20.7470   20.2670 C.ar   90  PHE90      -0.0003
    114  CE2       80.2590   19.2060   19.1660 C.ar   90  PHE90      -0.0003
    115  CZ        81.4570   19.4970   19.8020 C.ar   90  PHE90      -0.0000
    116  N         75.8510   24.2770   21.0860 N.am   91  LYS91      -0.1963
    117  CA        74.9850   25.3650   20.7200 C.3    91  LYS91       0.1728
    118  C         75.9070   26.3120   19.8990 C.2    91  LYS91       0.2616
    119  O         77.1610   26.3210   20.0560 O.2    91  LYS91      -0.2715
    120  CB        74.3400   26.0420   21.9550 C.3    91  LYS91       0.0311
    121  CG        75.3240   26.7290   22.9060 C.3    91  LYS91       0.0038
    122  CD        76.3680   25.7840   23.5020 C.3    91  LYS91       0.0206
    123  CE        77.6210   26.5340   23.9560 C.3    91  LYS91       0.1093
    124  NZ        78.3230   27.2330   22.8340 N.3    91  LYS91      -0.1314
    125  N         75.2970   27.0590   18.9950 N.am   92  GLN92      -0.1963
    126  CA        76.0580   27.7820   18.0000 C.3    92  GLN92       0.1733
    127  C         76.4030   26.8700   16.7910 C.2    92  GLN92       0.2616
    128  O         77.0280   27.3400   15.8200 O.2    92  GLN92      -0.2715
    129  CB        77.3360   28.3640   18.6230 C.3    92  GLN92       0.0408
    130  CG        78.2410   29.1830   17.7220 C.3    92  GLN92       0.0908
    131  CD        79.3530   28.2120   17.2620 C.2    92  GLN92       0.2608
    132  OE1       79.8650   27.3940   18.0070 O.2    92  GLN92      -0.2717
    133  NE2       79.5980   28.3080   15.9660 N.am   92  GLN92      -0.0878
    134  N         76.0170   25.5820   16.8230 N.am   93  LEU93      -0.1977
    135  CA        76.1610   24.7680   15.6230 C.3    93  LEU93       0.1596
    136  C         74.9140   23.8920   15.3640 C.2    93  LEU93       0.2287
    137  O         74.9410   22.6590   15.4190 O.2    93  LEU93      -0.2864
    138  CB        77.4360   23.9600   15.7590 C.3    93  LEU93       0.0297
    139  CG        77.9720   23.2260   14.5680 C.3    93  LEU93       0.0022
    140  CD1       78.0860   24.1660   13.3500 C.3    93  LEU93       0.0001
    141  CD2       79.3260   22.6790   14.9750 C.3    93  LEU93       0.0001
@<TRIPOS>BOND
     1     4     3    2
     2     3     2    1
     3    16    13    1
     4    16    17    1
     5     1     2    1
     6    13    12    1
     7    13    14    1
     8     2     5    1
     9    18    17    1
    10    18    19    1
    11    14    15    2
    12    19    20    2
    13     5     6    1
    14     6     7    1
    15    56    57   ar
    16    56    54   ar
    17    20    21    1
    18    20    22    1
    19    57    55   ar
    20    54    53   ar
    21    39    40    1
    22     7     8    1
    23    37    36    2
    24    23    24    1
    25    42    41    2
    26    55    53   ar
    27    53    52    1
    28    24    25    1
    29    24    27    1
    30     8     9    2
    31    36    35    1
    32    40    41    1
    33    40    43    1
    34    41    48   am
    35    25    26    2
    36    28    27    1
    37    28    29    1
    38    38    35    1
    39    34    35    1
    40    44    43    1
    41    44    45    1
    42     9    11    1
    43     9    10    1
    44    52    49    1
    45    45    46    1
    46    48    49    1
    47    49    50    1
    48   140   139    1
    49    29    30    1
    50    30    31    2
    51    46    47    1
    52    50    58   am
    53    50    51    2
    54    58    59    1
    55   139   141    1
    56   139   138    1
    57    61    60    2
    58    65    63    1
    59   136   137    2
    60   136   135    1
    61    31    33    1
    62    31    32    1
    63    63    62    1
    64   135   138    1
    65   135   134    1
    66    62    59    1
    67    62    64    1
    68    59    60    1
    69    60    66   am
    70   128   127    2
    71   133   131   am
    72   127   134   am
    73   127   126    1
    74    66    67    1
    75    67    68    1
    76    67    70    1
    77    81    79    1
    78   131   130    1
    79   131   132    2
    80    68    69    2
    81    82    80    1
    82   130   129    1
    83   126   129    1
    84   126   125    1
    85    71    70    1
    86    71    72    1
    87    80    79    1
    88    79    76    1
    89   112   114   ar
    90   112   110   ar
    91   125   118   am
    92   108   107    2
    93   114   115   ar
    94    73    72    1
    95    73    74    1
    96   109   110    1
    97   109   106    1
    98   110   111   ar
    99    76    75    1
   100    76    77    1
   101   115   113   ar
   102   118   119    2
   103   118   117    1
   104   111   113   ar
   105   107   106    1
   106   107   116   am
   107   106   105    1
   108   117   116    1
   109   117   120    1
   110   105   101   am
   111    77    78    2
   112    77    83   am
   113    99   100    1
   114   103   100    1
   115   103   104    1
   116   101   100    1
   117   101   102    2
   118    83    84    1
   119   120   121    1
   120   124   123    1
   121    89    87    1
   122   121   122    1
   123    84    87    1
   124    84    85    1
   125   122   123    1
   126    87    88    1
   127    86    85    2
   128    85    90   am
   129    90    91    1
   130    91    92    1
   131    91    94    1
   132    92    93    2
   133    95    94    1
   134    95    96    1
   135    98    96   ar
   136    96    97   ar
