@<TRIPOS>MOLECULE
tmp/4rosA00.pdb
 127 116 0 0 0
SMALL
GASTEIGER

@<TRIPOS>ATOM
      1  N         19.8860  -25.4400  -11.9750 N.3    13  ILE13      -0.1245
      2  CA        20.9540  -26.3450  -11.5730 C.3    13  ILE13       0.1561
      3  C         20.3800  -27.4510  -10.6710 C.2    13  ILE13       0.2260
      4  O         20.7290  -28.6350  -10.8090 O.2    13  ILE13      -0.2867
      5  CB        22.0990  -25.6090  -10.9120 C.3    13  ILE13       0.0252
      6  CG1       22.7350  -24.5970  -11.8730 C.3    13  ILE13       0.0019
      7  CG2       23.1100  -26.6110  -10.3460 C.3    13  ILE13       0.0019
      8  CD1       23.8500  -23.7970  -11.2590 C.3    13  ILE13       0.0001
      9  N         20.4480  -16.1860   -9.9410 N.3    81  PRO81      -0.2102
     10  CA        21.5020  -16.0910  -10.9690 C.3    81  PRO81       0.1504
     11  C         21.5790  -14.7330  -11.6160 C.2    81  PRO81       0.2575
     12  O         20.6930  -13.9290  -11.4180 O.2    81  PRO81      -0.2718
     13  CB        21.0150  -17.0570  -12.0500 C.3    81  PRO81       0.0282
     14  CG        19.5130  -16.9410  -11.9490 C.3    81  PRO81       0.0208
     15  CD        19.2310  -16.8300  -10.4780 C.3    81  PRO81       0.0893
     16  N         22.6160  -14.5560  -12.4230 N.am   82  ARG82      -0.1980
     17  CA        22.8540  -13.4000  -13.2510 C.3    82  ARG82       0.1597
     18  C         21.9600  -13.2760  -14.4870 C.2    82  ARG82       0.2287
     19  O         21.5740  -14.2590  -15.0670 O.2    82  ARG82      -0.2864
     20  CB        24.2180  -13.5540  -13.8860 C.3    82  ARG82       0.0334
     21  CG        25.4240  -13.3470  -13.0390 C.3    82  ARG82       0.0492
     22  CD        26.5630  -13.0520  -14.0110 C.3    82  ARG82       0.2205
     23  NE        27.4810  -14.1490  -14.2960 N.pl3  82  ARG82      -0.0865
     24  CZ        28.6030  -14.0050  -15.0140 C.cat  82  ARG82       0.5346
     25  NH1       29.4160  -15.0210  -15.1960 N.pl3  82  ARG82       0.1354
     26  NH2       28.9630  -12.8320  -15.5140 N.pl3  82  ARG82       0.1354
     27  N         29.0500  -11.6130  -11.3480 N.3    88  ARG88      -0.1245
     28  CA        28.6260  -12.4660  -10.2200 C.3    88  ARG88       0.1563
     29  C         28.5970  -11.6680   -8.8970 C.2    88  ARG88       0.2260
     30  O         27.7400  -11.8950   -8.0000 O.2    88  ARG88      -0.2867
     31  CB        29.5780  -13.6710  -10.0670 C.3    88  ARG88       0.0307
     32  CG        29.5580  -14.5860  -11.2980 C.3    88  ARG88       0.0489
     33  CD        30.4480  -15.7960  -11.1080 C.3    88  ARG88       0.2205
     34  NE        30.6240  -16.6490  -12.2780 N.pl3  88  ARG88      -0.0865
     35  CZ        31.5510  -16.4700  -13.2160 C.cat  88  ARG88       0.5346
     36  NH1       31.6510  -17.3400  -14.2400 N.pl3  88  ARG88       0.1354
     37  NH2       32.3410  -15.3890  -13.1730 N.pl3  88  ARG88       0.1354
     38  N         25.4730  -10.1740   -7.2680 N.3    91  LEU91      -0.1245
     39  CA        24.4850  -11.0490   -6.6400 C.3    91  LEU91       0.1561
     40  C         24.5850  -11.1100   -5.1110 C.2    91  LEU91       0.2260
     41  O         23.7790  -11.7960   -4.4820 O.2    91  LEU91      -0.2867
     42  CB        24.6200  -12.4940   -7.2050 C.3    91  LEU91       0.0270
     43  CG        23.9830  -12.9460   -8.5220 C.3    91  LEU91       0.0019
     44  CD1       23.7540  -11.8180   -9.4900 C.3    91  LEU91       0.0001
     45  CD2       24.7890  -14.0620   -9.1770 C.3    91  LEU91       0.0001
     46  N         27.2580  -23.9020   -4.5650 N.3   118  ILE118     -0.1245
     47  CA        27.3290  -23.4400   -5.9610 C.3   118  ILE118      0.1561
     48  C         26.9210  -21.9610   -6.1050 C.2   118  ILE118      0.2260
     49  O         27.3690  -21.2610   -7.0280 O.2   118  ILE118     -0.2867
     50  CB        26.3790  -24.2910   -6.8370 C.3   118  ILE118      0.0252
     51  CG1       26.8080  -25.7600   -6.7110 C.3   118  ILE118      0.0019
     52  CG2       26.3560  -23.7310   -8.2720 C.3   118  ILE118      0.0019
     53  CD1       26.0020  -26.8000   -7.4830 C.3   118  ILE118      0.0001
     54  N         26.3650  -18.1620   -6.3510 N.3   120  ASN120     -0.1240
     55  CA        27.3820  -17.1260   -6.6500 C.3   120  ASN120      0.1653
     56  C         27.1390  -15.8340   -5.8280 C.2   120  ASN120      0.2266
     57  O         26.0240  -15.6140   -5.3620 O.2   120  ASN120     -0.2867
     58  CB        27.2970  -16.7570   -8.1140 C.3   120  ASN120      0.1155
     59  CG        28.0990  -17.6820   -9.0120 C.2   120  ASN120      0.2627
     60  OD1       27.6080  -18.2130  -10.0180 O.2   120  ASN120     -0.2716
     61  ND2       29.3120  -17.8480   -8.6760 N.am  120  ASN120     -0.0877
     62  N         31.8510  -25.5040   -5.3300 N.3   143  MET143     -0.1245
     63  CA        32.0460  -25.8970   -6.7440 C.3   143  MET143      0.1570
     64  C         32.3610  -24.6850   -7.6280 C.2   143  MET143      0.2261
     65  O         31.5040  -23.7920   -7.8490 O.2   143  MET143     -0.2867
     66  CB        30.7930  -26.5880   -7.3050 C.3   143  MET143      0.0387
     67  CG        30.9900  -27.2370   -8.6990 C.3   143  MET143      0.0595
     68  SD        31.1670  -26.1350  -10.1060 S.3   143  MET143     -0.1393
     69  CE        29.5370  -25.3200  -10.0850 C.3   143  MET143      0.0692
     70  N         34.0930  -26.7170  -12.9860 N.3   147  LEU147     -0.1245
     71  CA        33.4230  -26.1060  -14.1060 C.3   147  LEU147      0.1561
     72  C         34.3810  -25.3490  -15.0400 C.2   147  LEU147      0.2260
     73  O         34.3450  -25.5570  -16.2750 O.2   147  LEU147     -0.2867
     74  CB        32.3220  -25.1560  -13.6060 C.3   147  LEU147      0.0270
     75  CG        31.5730  -24.3020  -14.6040 C.3   147  LEU147      0.0019
     76  CD1       30.8100  -25.1980  -15.5480 C.3   147  LEU147      0.0001
     77  CD2       30.6090  -23.4140  -13.7900 C.3   147  LEU147      0.0001
     78  N         35.3120  -26.3290  -18.9570 N.3   151  ARG151     -0.1245
     79  CA        35.1860  -25.4570  -20.1260 C.3   151  ARG151      0.1563
     80  C         36.5020  -25.4430  -20.9150 C.2   151  ARG151      0.2260
     81  O         36.5350  -25.6790  -22.1290 O.2   151  ARG151     -0.2867
     82  CB        34.7770  -24.0190  -19.7140 C.3   151  ARG151      0.0307
     83  CG        33.4060  -23.9010  -19.1160 C.3   151  ARG151      0.0489
     84  CD        32.9590  -22.4180  -19.0130 C.3   151  ARG151      0.2205
     85  NE        31.5390  -22.3650  -18.7240 N.pl3 151  ARG151     -0.0865
     86  CZ        30.9420  -21.8070  -17.6540 C.cat 151  ARG151      0.5346
     87  NH1       31.6120  -21.2330  -16.6730 N.pl3 151  ARG151      0.1354
     88  NH2       29.6240  -21.9200  -17.5340 N.pl3 151  ARG151      0.1354
     89  N         36.4520  -18.0610   -8.6550 N.3   175  HIS175     -0.1241
     90  CA        35.4980  -18.2690   -9.7630 C.3   175  HIS175      0.1621
     91  C         35.0750  -16.9170  -10.3540 C.2   175  HIS175      0.2264
     92  O         33.9180  -16.4490  -10.1490 O.2   175  HIS175     -0.2867
     93  CB        34.2590  -19.0270   -9.2800 C.3   175  HIS175      0.0745
     94  CG        33.3800  -19.4910  -10.3960 C.ar  175  HIS175      0.0817
     95  ND1       33.8680  -20.1600  -11.4980 N.ar  175  HIS175     -0.2268
     96  CD2       32.0570  -19.3420  -10.5980 C.ar  175  HIS175      0.1154
     97  CE1       32.8680  -20.4480  -12.2990 C.ar  175  HIS175      0.1986
     98  NE2       31.7670  -19.9490  -11.7900 N.ar  175  HIS175     -0.2212
     99  N         31.2410  -18.1860  -18.3010 N.3   218  GLY218     -0.1225
    100  CA        29.9380  -18.0410  -17.6780 C.3   218  GLY218      0.1811
    101  C         29.1440  -16.9810  -18.3480 C.2   218  GLY218      0.2280
    102  O         27.9750  -17.1670  -18.6490 O.2   218  GLY218     -0.2866
    103  N         25.5170  -16.9080  -20.3600 N.3   222  VAL222     -0.1245
    104  CA        24.4380  -15.9300  -19.9810 C.3   222  VAL222      0.1561
    105  C         23.9370  -15.1510  -21.2240 C.2   222  VAL222      0.2260
    106  O         22.7380  -15.0460  -21.4910 O.2   222  VAL222     -0.2867
    107  CB        24.9260  -14.9960  -18.8520 C.3   222  VAL222      0.0252
    108  CG1       24.0480  -13.7420  -18.6980 C.3   222  VAL222      0.0019
    109  CG2       25.0810  -15.7030  -17.5090 C.3   222  VAL222      0.0019
    110  N         21.5910  -18.5090  -16.5650 N.3   229  SER229     -0.1202
    111  CA        22.9680  -18.8580  -16.7060 C.3   229  SER229      0.2020
    112  C         23.0930  -20.3850  -16.8760 C.2   229  SER229      0.2618
    113  O         22.0810  -21.1300  -16.9980 O.2   229  SER229     -0.2717
    114  CB        23.7610  -18.3600  -15.4890 C.3   229  SER229      0.2103
    115  OG        23.1370  -18.6630  -14.2490 O.3   229  SER229     -0.2182
    116  N         24.3450  -20.8220  -17.0240 N.am  230  ALA230     -0.1979
    117  CA        24.6640  -22.2130  -17.3100 C.3   230  ALA230      0.1597
    118  C         24.1360  -23.1240  -16.2290 C.2   230  ALA230      0.2287
    119  O         24.1230  -22.7700  -15.0280 O.2   230  ALA230     -0.2864
    120  CB        26.2140  -22.3570  -17.4190 C.3   230  ALA230      0.0319
    121  N         27.6710  -26.7870  -14.7000 N.3   234  PRO234     -0.2116
    122  CA        27.7320  -26.6470  -13.2420 C.3   234  PRO234      0.1372
    123  C         27.2020  -27.8500  -12.4680 C.2   234  PRO234      0.2244
    124  O         27.7980  -28.3060  -11.4440 O.2   234  PRO234     -0.2868
    125  CB        26.8420  -25.4300  -12.9820 C.3   234  PRO234      0.0268
    126  CG        26.9400  -24.6280  -14.2250 C.3   234  PRO234      0.0207
    127  CD        26.8710  -25.7150  -15.2920 C.3   234  PRO234      0.0892
@<TRIPOS>BOND
     1    81    80    2
     2   106   105    2
     3   105   104    1
     4    80    79    1
     5   103   104    1
     6    79    82    1
     7    79    78    1
     8   104   107    1
     9    82    83    1
    10    83    84    1
    11    84    85    1
    12   107   108    1
    13   107   109    1
    14    85    86    2
    15   102   101    2
    16   101   100    1
    17    99   100    1
    18    86    88    1
    19    86    87    1
    20   120   117    1
    21   117   116    1
    22   117   118    1
    23   116   112   am
    24   113   112    2
    25   112   111    1
    26   111   110    1
    27   111   114    1
    28    73    72    2
    29   118   119    2
    30    76    75    1
    31    26    24    1
    32   114   115    1
    33   127   121    1
    34   127   126    1
    35    25    24    1
    36    19    18    2
    37    72    71    1
    38    24    23    2
    39   121   122    1
    40    75    77    1
    41    75    74    1
    42    18    17    1
    43    23    22    1
    44    36    35    1
    45   126   125    1
    46    71    74    1
    47    71    70    1
    48    22    21    1
    49    20    17    1
    50    20    21    1
    51    17    16    1
    52   122   125    1
    53   122   123    1
    54    35    37    1
    55    35    34    2
    56   123   124    2
    57    16    11   am
    58    97    98   ar
    59    97    95   ar
    60    34    33    1
    61    13    14    1
    62    13    10    1
    63     1     2    1
    64    14    15    1
    65     6     8    1
    66     6     5    1
    67    98    96   ar
    68    11    12    2
    69    11    10    1
    70     2     5    1
    71     2     3    1
    72    95    94   ar
    73    27    28    1
    74    32    33    1
    75    32    31    1
    76    10     9    1
    77     5     7    1
    78     4     3    2
    79    96    94   ar
    80    15     9    1
    81    94    93    1
    82    91    92    2
    83    91    90    1
    84    28    31    1
    85    28    29    1
    86    68    69    1
    87    68    67    1
    88    60    59    2
    89    90    93    1
    90    90    89    1
    91    44    43    1
    92    45    43    1
    93    59    61   am
    94    59    58    1
    95    29    30    2
    96    67    66    1
    97    43    42    1
    98    52    50    1
    99    58    55    1
   100    65    64    2
   101    64    63    1
   102    53    51    1
   103    66    63    1
   104    38    39    1
   105    42    39    1
   106    49    48    2
   107    50    51    1
   108    50    47    1
   109    63    62    1
   110    55    54    1
   111    55    56    1
   112    39    40    1
   113    48    47    1
   114    47    46    1
   115    56    57    2
   116    40    41    2
