@<TRIPOS>MOLECULE
tmp/4rpfA00.pdb
 98 92 0 0 0
SMALL
GASTEIGER

@<TRIPOS>ATOM
      1  N         19.4330    4.9490   65.7230 N.3    94  GLY94      -0.1210
      2  CA        20.7100    5.5400   65.3520 C.3    94  GLY94       0.1956
      3  C         20.6480    6.2110   63.9970 C.2    94  GLY94       0.2613
      4  O         21.5940    6.1280   63.2250 O.2    94  GLY94      -0.2717
      5  N         19.5280    6.8690   63.7090 N.am   95  SER95      -0.1938
      6  CA        19.2870    7.4680   62.4020 C.3    95  SER95       0.2055
      7  C         19.4510    8.9850   62.3730 C.2    95  SER95       0.2644
      8  O         19.6440    9.5630   61.3080 O.2    95  SER95      -0.2714
      9  CB        17.8650    7.1460   61.9580 C.3    95  SER95       0.2130
     10  OG        16.9400    7.6050   62.9210 O.3    95  SER95      -0.2179
     11  N         19.3230    9.6240   63.5320 N.am   96  GLY96      -0.1939
     12  CA        19.4530   11.0810   63.6560 C.3    96  GLY96       0.2014
     13  C         18.1450   11.8060   63.8810 C.2    96  GLY96       0.2639
     14  O         18.1110   13.0420   63.8710 O.2    96  GLY96      -0.2714
     15  N         17.0660   11.0500   64.1040 N.am   97  LEU97      -0.1963
     16  CA        15.7110   11.6150   64.2090 C.3    97  LEU97       0.1728
     17  C         15.2050   11.7280   65.6540 C.2    97  LEU97       0.2617
     18  O         14.0280   12.0130   65.8840 O.2    97  LEU97      -0.2715
     19  CB        14.7400   10.7650   63.3860 C.3    97  LEU97       0.0311
     20  CG        14.9000   10.9050   61.8690 C.3    97  LEU97       0.0022
     21  CD1       14.3880    9.6680   61.1490 C.3    97  LEU97       0.0001
     22  CD2       14.2010   12.1620   61.3650 C.3    97  LEU97       0.0001
     23  N         16.0940   11.5110   66.6200 N.am   98  GLY98      -0.1940
     24  CA        15.7530   11.6060   68.0280 C.3    98  GLY98       0.2014
     25  C         15.1110   10.3250   68.4800 C.2    98  GLY98       0.2640
     26  O         14.1400   10.3460   69.2350 O.2    98  GLY98      -0.2714
     27  N         15.6600    9.2110   68.0030 N.am   99  SER99      -0.1935
     28  CA        15.0890    7.8860   68.2240 C.3    99  SER99       0.2055
     29  C         15.1260    7.4340   69.6670 C.2    99  SER99       0.2644
     30  O         14.1560    6.8610   70.1630 O.2    99  SER99      -0.2714
     31  CB        15.8130    6.8420   67.3810 C.3    99  SER99       0.2130
     32  OG        15.4210    5.5430   67.7790 O.3    99  SER99      -0.2179
     33  N         16.2520    7.6540   70.3350 N.am  100  SER100     -0.1935
     34  CA        16.3630    7.2420   71.7200 C.3   100  SER100      0.2055
     35  C         15.5510    8.2020   72.5820 C.2   100  SER100      0.2642
     36  O         14.9720    7.7980   73.5910 O.2   100  SER100     -0.2714
     37  CB        17.8320    7.1520   72.1770 C.3   100  SER100      0.2130
     38  OG        18.4780    8.4080   72.1510 O.3   100  SER100     -0.2179
     39  N         15.5020    9.4690   72.1740 N.am  101  ALA101     -0.1977
     40  CA        14.7440   10.4800   72.9030 C.3   101  ALA101      0.1597
     41  C         13.2380   10.2200   72.8210 C.2   101  ALA101      0.2287
     42  O         12.5440   10.3490   73.8230 O.2   101  ALA101     -0.2864
     43  CB        15.0790   11.8640   72.3850 C.3   101  ALA101      0.0319
     44  N         19.1930    9.4160   78.5860 N.3   132  GLU132     -0.1245
     45  CA        19.9870    9.6390   77.3850 C.3   132  GLU132      0.1567
     46  C         21.4680    9.3390   77.6330 C.2   132  GLU132      0.2260
     47  O         22.1410    8.7650   76.7780 O.2   132  GLU132     -0.2867
     48  CB        19.8080   11.0790   76.9080 C.3   132  GLU132      0.0388
     49  CG        18.4210   11.3670   76.3360 C.3   132  GLU132      0.1160
     50  CD        18.2870   11.0120   74.8620 C.2   132  GLU132      0.3649
     51  OE1       18.2180   11.9480   74.0360 O.co2 132  GLU132     -0.2457
     52  OE2       18.2500    9.8090   74.5210 O.co2 132  GLU132     -0.2457
     53  N         22.5930   14.6310   77.7140 N.3   140  HIS140     -0.1241
     54  CA        22.2990   15.8320   76.9350 C.3   140  HIS140      0.1621
     55  C         20.7900   15.9870   76.7990 C.2   140  HIS140      0.2264
     56  O         20.0590   15.0010   76.7380 O.2   140  HIS140     -0.2867
     57  CB        22.9580   15.7840   75.5560 C.3   140  HIS140      0.0745
     58  CG        22.4810   14.6590   74.6900 C.ar  140  HIS140      0.0817
     59  ND1       21.8740   14.8640   73.4720 N.ar  140  HIS140     -0.2268
     60  CD2       22.5170   13.3180   74.8720 C.ar  140  HIS140      0.1154
     61  CE1       21.5720   13.6960   72.9330 C.ar  140  HIS140      0.1986
     62  NE2       21.9390   12.7430   73.7680 N.ar  140  HIS140     -0.2212
     63  N         17.6580   16.6450   72.5680 N.3   143  ASN143     -0.1240
     64  CA        16.6020   15.8660   71.9220 C.3   143  ASN143      0.1653
     65  C         15.3660   15.6860   72.8170 C.2   143  ASN143      0.2266
     66  O         14.2470   15.9320   72.3750 O.2   143  ASN143     -0.2867
     67  CB        17.1030   14.5010   71.4500 C.3   143  ASN143      0.1155
     68  CG        18.0130   14.5960   70.2380 C.2   143  ASN143      0.2627
     69  OD1       17.5910   14.9850   69.1500 O.2   143  ASN143     -0.2716
     70  ND2       19.2660   14.2190   70.4200 N.am  143  ASN143     -0.0877
     71  N         24.0450    5.5010   62.3210 N.3   183  VAL183     -0.1245
     72  CA        25.2730    5.7850   63.0410 C.3   183  VAL183      0.1561
     73  C         24.9060    5.7470   64.5190 C.2   183  VAL183      0.2260
     74  O         23.8050    6.1410   64.9050 O.2   183  VAL183     -0.2867
     75  CB        25.9060    7.1470   62.6370 C.3   183  VAL183      0.0252
     76  CG1       24.9960    8.3180   62.9700 C.3   183  VAL183      0.0019
     77  CG2       27.2560    7.3330   63.3130 C.3   183  VAL183      0.0019
     78  N         24.9760    7.0120   68.3070 N.3   185  THR185     -0.1218
     79  CA        25.1680    8.3060   68.9540 C.3   185  THR185      0.1862
     80  C         26.5240    8.3180   69.6610 C.2   185  THR185      0.2287
     81  O         27.2400    9.3250   69.6440 O.2   185  THR185     -0.2866
     82  CB        24.0500    8.6100   69.9710 C.3   185  THR185      0.1770
     83  OG1       22.7710    8.3630   69.3740 O.3   185  THR185     -0.2211
     84  CG2       24.1220   10.0630   70.4350 C.3   185  THR185      0.0375
     85  N         20.8490   15.8910   64.5960 N.3   262  GLY262     -0.1210
     86  CA        21.5280   15.2340   65.6990 C.3   262  GLY262      0.1956
     87  C         22.9040   14.7730   65.2630 C.2   262  GLY262      0.2613
     88  O         23.6360   15.5170   64.6000 O.2   262  GLY262     -0.2717
     89  N         23.2440   13.5310   65.6060 N.am  263  SER263     -0.1938
     90  CA        24.4570   12.8910   65.0970 C.3   263  SER263      0.2055
     91  C         24.3480   12.3080   63.6730 C.2   263  SER263      0.2643
     92  O         25.3110   11.7050   63.1830 O.2   263  SER263     -0.2714
     93  CB        24.9110   11.7980   66.0710 C.3   263  SER263      0.2130
     94  OG        23.9520   10.7630   66.1620 O.3   263  SER263     -0.2179
     95  N         23.2090   12.4840   62.9960 N.am  264  GLY264     -0.1954
     96  CA        23.0380   11.9530   61.6290 C.3   264  GLY264      0.1869
     97  C         22.6450   10.4860   61.6730 C.2   264  GLY264      0.2309
     98  O         22.3450    9.9760   62.7610 O.2   264  GLY264     -0.2863
@<TRIPOS>BOND
     1    21    20    1
     2     8     7    2
     3    22    20    1
     4    96    97    1
     5    96    95    1
     6    97    98    2
     7    20    19    1
     8     9     6    1
     9     9    10    1
    10    71    72    1
    11     7     6    1
    12     7    11   am
    13     6     5    1
    14    75    76    1
    15    75    72    1
    16    75    77    1
    17    95    91   am
    18    72    73    1
    19    92    91    2
    20     4     3    2
    21    19    16    1
    22    11    12    1
    23    12    13    1
    24    91    90    1
    25     5     3   am
    26    14    13    2
    27    13    15   am
    28     3     2    1
    29    15    16    1
    30    16    17    1
    31    73    74    2
    32    85    86    1
    33    88    87    2
    34    90    89    1
    35    90    93    1
    36    87    89   am
    37    87    86    1
    38     2     1    1
    39    17    18    2
    40    17    23   am
    41    93    94    1
    42    23    24    1
    43    31    32    1
    44    31    28    1
    45    27    28    1
    46    27    25   am
    47    24    25    1
    48    28    29    1
    49    78    79    1
    50    25    26    2
    51    79    80    1
    52    79    82    1
    53    69    68    2
    54    83    82    1
    55    81    80    2
    56    29    30    2
    57    29    33   am
    58    82    84    1
    59    68    70   am
    60    68    67    1
    61    33    34    1
    62    67    64    1
    63    34    37    1
    64    34    35    1
    65    64    63    1
    66    64    65    1
    67    38    37    1
    68    39    35   am
    69    39    40    1
    70    66    65    2
    71    43    40    1
    72    35    36    2
    73    41    40    1
    74    41    42    2
    75    61    59   ar
    76    61    62   ar
    77    59    58   ar
    78    62    60   ar
    79    51    50   ar
    80    52    50   ar
    81    58    60   ar
    82    58    57    1
    83    50    49    1
    84    57    54    1
    85    49    48    1
    86    56    55    2
    87    47    46    2
    88    55    54    1
    89    48    45    1
    90    54    53    1
    91    45    46    1
    92    45    44    1
