@<TRIPOS>MOLECULE
tmp/4rphB01.pdb
 264 254 0 0 0
SMALL
GASTEIGER

@<TRIPOS>ATOM
      1  N         37.8710   -7.2100   16.3930 N.3    60  ALA60      -0.1245
      2  CA        38.1720   -6.3890   15.2240 C.3    60  ALA60       0.1562
      3  C         38.3510   -4.9180   15.5850 C.2    60  ALA60       0.2260
      4  O         37.4500   -4.2900   16.1400 O.2    60  ALA60      -0.2867
      5  CB        37.0750   -6.5420   14.1800 C.3    60  ALA60       0.0290
      6  N         38.9730   -1.1840   14.0900 N.3    62  LEU62      -0.1245
      7  CA        38.8900   -0.3320   12.9090 C.3    62  LEU62       0.1561
      8  C         39.1290    1.1190   13.3100 C.2    62  LEU62       0.2260
      9  O         38.3400    1.6950   14.0580 O.2    62  LEU62      -0.2867
     10  CB        37.5240   -0.4700   12.2260 C.3    62  LEU62       0.0270
     11  CG        37.0680   -1.8210   11.6600 C.3    62  LEU62       0.0019
     12  CD1       38.1600   -2.4570   10.8170 C.3    62  LEU62       0.0001
     13  CD2       36.5870   -2.7780   12.7480 C.3    62  LEU62       0.0001
     14  N         39.2860    5.1350   13.1300 N.3    64  HIS64      -0.1241
     15  CA        38.4820    6.1940   12.5330 C.3    64  HIS64       0.1621
     16  C         38.4390    7.4080   13.4530 C.2    64  HIS64       0.2264
     17  O         38.3250    7.2670   14.6700 O.2    64  HIS64      -0.2867
     18  CB        37.0640    5.6970   12.2490 C.3    64  HIS64       0.0745
     19  CG        36.3240    5.2560   13.4730 C.ar   64  HIS64       0.0817
     20  ND1       35.4440    6.0760   14.1460 N.ar   64  HIS64      -0.2268
     21  CD2       36.3400    4.0850   14.1520 C.ar   64  HIS64       0.1154
     22  CE1       34.9460    5.4270   15.1830 C.ar   64  HIS64       0.1986
     23  NE2       35.4750    4.2170   15.2100 N.ar   64  HIS64      -0.2212
     24  N         35.1500    0.9040    6.6320 N.3    85  HIS85      -0.1241
     25  CA        34.4700   -0.2000    7.3020 C.3    85  HIS85       0.1621
     26  C         32.9730   -0.2330    7.0160 C.2    85  HIS85       0.2264
     27  O         32.2900    0.7890    7.0870 O.2    85  HIS85      -0.2867
     28  CB        34.7000   -0.1350    8.8120 C.3    85  HIS85       0.0745
     29  CG        34.1780   -1.3270    9.5500 C.ar   85  HIS85       0.0817
     30  ND1       34.4960   -2.6200    9.1930 N.ar   85  HIS85      -0.2268
     31  CD2       33.3570   -1.4250   10.6230 C.ar   85  HIS85       0.1154
     32  CE1       33.8960   -3.4620   10.0150 C.ar   85  HIS85       0.1986
     33  NE2       33.1990   -2.7620   10.8920 N.ar   85  HIS85      -0.2212
     34  N         29.3670   -2.8770    7.6710 N.3    87  VAL87      -0.1245
     35  CA        28.8090   -4.0140    8.3920 C.3    87  VAL87       0.1561
     36  C         27.4820   -4.4380    7.7730 C.2    87  VAL87       0.2260
     37  O         26.6780   -3.5960    7.3800 O.2    87  VAL87      -0.2867
     38  CB        28.6050   -3.6820    9.8880 C.3    87  VAL87       0.0252
     39  CG1       27.9420   -4.8410   10.6190 C.3    87  VAL87       0.0019
     40  CG2       29.9330   -3.3290   10.5390 C.3    87  VAL87       0.0019
     41  N         23.4900   -2.1660    6.4460 N.3    98  PHE98      -0.1241
     42  CA        23.5830   -1.6630    7.8110 C.3    98  PHE98       0.1605
     43  C         24.5880   -0.5120    7.8690 C.2    98  PHE98       0.2264
     44  O         25.5640   -0.5100    7.1190 O.2    98  PHE98      -0.2867
     45  CB        23.9890   -2.8030    8.7540 C.3    98  PHE98       0.0534
     46  CG        23.4300   -2.6830   10.1410 C.ar   98  PHE98      -0.0203
     47  CD1       22.0750   -2.8560   10.3750 C.ar   98  PHE98      -0.0042
     48  CD2       24.2620   -2.4150   11.2150 C.ar   98  PHE98      -0.0042
     49  CE1       21.5600   -2.7510   11.6520 C.ar   98  PHE98      -0.0003
     50  CE2       23.7520   -2.3080   12.4940 C.ar   98  PHE98      -0.0003
     51  CZ        22.3990   -2.4770   12.7130 C.ar   98  PHE98      -0.0000
     52  N         19.2680    3.1690   26.4580 N.3   137  LEU137     -0.1245
     53  CA        19.5830    2.6410   25.1350 C.3   137  LEU137      0.1561
     54  C         18.3200    2.4050   24.3150 C.2   137  LEU137      0.2260
     55  O         18.2400    2.8150   23.1580 O.2   137  LEU137     -0.2867
     56  CB        20.3870    1.3400   25.2580 C.3   137  LEU137      0.0270
     57  CG        20.9920    0.7100   23.9990 C.3   137  LEU137      0.0019
     58  CD1       22.2920    0.0040   24.3450 C.3   137  LEU137      0.0001
     59  CD2       20.0290   -0.2690   23.3380 C.3   137  LEU137      0.0001
     60  N         16.8220   -5.4850   14.7390 N.3   153  PHE153     -0.1227
     61  CA        18.2600   -5.2940   14.5670 C.3   153  PHE153      0.1736
     62  C         18.9920   -4.7870   15.8080 C.2   153  PHE153      0.2595
     63  O         20.2200   -4.7130   15.8110 O.2   153  PHE153     -0.2718
     64  CB        18.5160   -4.3330   13.4030 C.3   153  PHE153      0.0547
     65  CG        17.9690   -4.8160   12.0900 C.ar  153  PHE153     -0.0202
     66  CD1       18.6980   -5.6890   11.3010 C.ar  153  PHE153     -0.0042
     67  CD2       16.7260   -4.3970   11.6460 C.ar  153  PHE153     -0.0042
     68  CE1       18.1980   -6.1360   10.0930 C.ar  153  PHE153     -0.0003
     69  CE2       16.2210   -4.8410   10.4390 C.ar  153  PHE153     -0.0003
     70  CZ        16.9580   -5.7120    9.6620 C.ar  153  PHE153     -0.0000
     71  N         18.2560   -4.4420   16.8580 N.am  154  VAL154     -0.1980
     72  CA        18.8900   -3.8990   18.0560 C.3   154  VAL154      0.1595
     73  C         18.6350   -4.7460   19.2990 C.2   154  VAL154      0.2287
     74  O         19.5730   -5.1080   20.0090 O.2   154  VAL154     -0.2864
     75  CB        18.4180   -2.4590   18.3380 C.3   154  VAL154      0.0276
     76  CG1       19.0600   -1.9300   19.6130 C.3   154  VAL154      0.0022
     77  CG2       18.7460   -1.5570   17.1620 C.3   154  VAL154      0.0022
     78  N         20.5010   -8.2050   19.3920 N.3   157  TYR157     -0.1227
     79  CA        21.9420   -7.9820   19.4590 C.3   157  TYR157      0.1736
     80  C         22.3510   -7.4370   20.8250 C.2   157  TYR157      0.2596
     81  O         23.3390   -7.8790   21.4120 O.2   157  TYR157     -0.2718
     82  CB        22.3790   -7.0190   18.3510 C.3   157  TYR157      0.0548
     83  CG        23.8780   -6.8800   18.1820 C.ar  157  TYR157     -0.0200
     84  CD1       24.6200   -6.0470   19.0120 C.ar  157  TYR157     -0.0009
     85  CD2       24.5490   -7.5670   17.1790 C.ar  157  TYR157     -0.0009
     86  CE1       25.9850   -5.9140   18.8570 C.ar  157  TYR157      0.0417
     87  CE2       25.9150   -7.4390   17.0150 C.ar  157  TYR157      0.0417
     88  CZ        26.6280   -6.6110   17.8570 C.ar  157  TYR157      0.1957
     89  OH        27.9890   -6.4790   17.6990 O.3   157  TYR157     -0.2866
     90  N         21.5840   -6.4710   21.3200 N.am  158  THR158     -0.1953
     91  CA        21.8640   -5.8420   22.6060 C.3   158  THR158      0.1897
     92  C         21.7550   -6.8540   23.7440 C.2   158  THR158      0.2313
     93  O         22.4820   -6.7730   24.7360 O.2   158  THR158     -0.2863
     94  CB        20.9040   -4.6630   22.8720 C.3   158  THR158      0.1794
     95  OG1       20.9000   -3.7820   21.7420 O.3   158  THR158     -0.2208
     96  CG2       21.3260   -3.8880   24.1090 C.3   158  THR158      0.0378
     97  N         24.9580   -9.0530   23.7230 N.3   161  GLN161     -0.1231
     98  CA        26.1690   -8.2810   23.9790 C.3   161  GLN161      0.1698
     99  C         26.2720   -7.8260   25.4340 C.2   161  GLN161      0.2592
    100  O         27.3580   -7.8270   26.0160 O.2   161  GLN161     -0.2718
    101  CB        26.2300   -7.0670   23.0450 C.3   161  GLN161      0.0381
    102  CG        27.2490   -6.0020   23.4420 C.3   161  GLN161      0.0905
    103  CD        28.6840   -6.4960   23.3940 C.2   161  GLN161      0.2608
    104  OE1       28.9840   -7.5250   22.7870 O.2   161  GLN161     -0.2717
    105  NE2       29.5820   -5.7580   24.0350 N.am  161  GLN161     -0.0878
    106  N         25.1420   -7.4490   26.0220 N.am  162  TRP162     -0.1976
    107  CA        25.1470   -6.8820   27.3660 C.3   162  TRP162      0.1640
    108  C         24.4980   -7.7900   28.4050 C.2   162  TRP162      0.2290
    109  O         24.9390   -7.8300   29.5550 O.2   162  TRP162     -0.2864
    110  CB        24.4420   -5.5250   27.3660 C.3   162  TRP162      0.0576
    111  CG        25.0730   -4.5310   26.4470 C.ar  162  TRP162      0.0006
    112  CD1       24.6150   -4.1390   25.2230 C.ar  162  TRP162      0.0946
    113  CD2       26.2870   -3.8090   26.6700 C.ar  162  TRP162      0.0152
    114  NE1       25.4660   -3.2120   24.6730 N.ar  162  TRP162     -0.2442
    115  CE2       26.5060   -2.9910   25.5450 C.ar  162  TRP162      0.0810
    116  CE3       27.2160   -3.7690   27.7170 C.ar  162  TRP162      0.0012
    117  CZ2       27.6050   -2.1470   25.4300 C.ar  162  TRP162      0.0191
    118  CZ3       28.3090   -2.9300   27.6050 C.ar  162  TRP162      0.0001
    119  CH2       28.4950   -2.1310   26.4710 C.ar  162  TRP162      0.0015
    120  N         25.4910    4.3020   23.9310 N.3   173  ASN173     -0.1225
    121  CA        25.8900    3.0540   23.2920 C.3   173  ASN173      0.1785
    122  C         25.3230    2.9010   21.8840 C.2   173  ASN173      0.2597
    123  O         26.0250    2.4710   20.9690 O.2   173  ASN173     -0.2718
    124  CB        25.4670    1.8610   24.1500 C.3   173  ASN173      0.1169
    125  CG        26.2450    1.7700   25.4480 C.2   173  ASN173      0.2627
    126  OD1       26.9390    2.7100   25.8360 O.2   173  ASN173     -0.2716
    127  ND2       26.1310    0.6350   26.1270 N.am  173  ASN173     -0.0877
    128  N         24.0540    3.2570   21.7120 N.am  174  ILE174     -0.1980
    129  CA        23.3840    3.0860   20.4270 C.3   174  ILE174      0.1595
    130  C         23.6910    4.2430   19.4760 C.2   174  ILE174      0.2287
    131  O         23.5450    4.1140   18.2600 O.2   174  ILE174     -0.2864
    132  CB        21.8520    2.9540   20.6050 C.3   174  ILE174      0.0276
    133  CG1       21.2100    2.3510   19.3530 C.3   174  ILE174      0.0022
    134  CG2       21.2270    4.2980   20.9580 C.3   174  ILE174      0.0022
    135  CD1       21.6930    0.9540   19.0310 C.3   174  ILE174      0.0001
    136  N         26.5450    5.3820   18.9080 N.3   176  ARG176     -0.1231
    137  CA        27.8220    5.1110   18.2620 C.3   176  ARG176      0.1694
    138  C         27.5900    4.7960   16.7900 C.2   176  ARG176      0.2591
    139  O         28.4280    5.0920   15.9380 O.2   176  ARG176     -0.2718
    140  CB        28.5470    3.9540   18.9510 C.3   176  ARG176      0.0321
    141  CG        29.1310    4.3060   20.3080 C.3   176  ARG176      0.0489
    142  CD        29.5720    3.0590   21.0560 C.3   176  ARG176      0.2205
    143  NE        30.4380    2.2070   20.2450 N.pl3 176  ARG176     -0.0865
    144  CZ        31.7640    2.3020   20.2140 C.cat 176  ARG176      0.5346
    145  NH1       32.3820    3.2160   20.9500 N.pl3 176  ARG176      0.1354
    146  NH2       32.4720    1.4840   19.4470 N.pl3 176  ARG176      0.1354
    147  N         26.4410    4.1930   16.5030 N.am  177  LEU177     -0.1980
    148  CA        26.0400    3.9040   15.1330 C.3   177  LEU177      0.1596
    149  C         25.4220    5.1380   14.4870 C.2   177  LEU177      0.2287
    150  O         24.6310    5.8410   15.1160 O.2   177  LEU177     -0.2864
    151  CB        25.0490    2.7370   15.0870 C.3   177  LEU177      0.0297
    152  CG        25.5930    1.3060   15.1070 C.3   177  LEU177      0.0022
    153  CD1       26.2390    0.9640   16.4420 C.3   177  LEU177      0.0001
    154  CD2       24.4830    0.3220   14.7790 C.3   177  LEU177      0.0001
    155  N         29.9060    2.2890    8.2140 N.3   187  TYR187     -0.1227
    156  CA        29.6030    2.0290    9.6170 C.3   187  TYR187      0.1736
    157  C         30.0800    3.1530   10.5320 C.2   187  TYR187      0.2595
    158  O         29.6270    3.2670   11.6710 O.2   187  TYR187     -0.2718
    159  CB        30.2210    0.7010   10.0580 C.3   187  TYR187      0.0548
    160  CG        29.6060    0.1410   11.3190 C.ar  187  TYR187     -0.0200
    161  CD1       28.2880   -0.2990   11.3310 C.ar  187  TYR187     -0.0009
    162  CD2       30.3390    0.0480   12.4950 C.ar  187  TYR187     -0.0009
    163  CE1       27.7170   -0.8140   12.4780 C.ar  187  TYR187      0.0417
    164  CE2       29.7750   -0.4660   13.6490 C.ar  187  TYR187      0.0417
    165  CZ        28.4630   -0.8960   13.6340 C.ar  187  TYR187      0.1957
    166  OH        27.8940   -1.4090   14.7770 O.3   187  TYR187     -0.2866
    167  N         30.9950    3.9780   10.0360 N.am  188  PHE188     -0.1976
    168  CA        31.4760    5.1190   10.8060 C.3   188  PHE188      0.1639
    169  C         31.2020    6.4220   10.0680 C.2   188  PHE188      0.2290
    170  O         31.0610    6.4370    8.8450 O.2   188  PHE188     -0.2864
    171  CB        32.9710    4.9850   11.1020 C.3   188  PHE188      0.0560
    172  CG        33.3300    3.7320   11.8460 C.ar  188  PHE188     -0.0200
    173  CD1       32.8910    3.5310   13.1430 C.ar  188  PHE188     -0.0042
    174  CD2       34.1140    2.7590   11.2500 C.ar  188  PHE188     -0.0042
    175  CE1       33.2200    2.3800   13.8290 C.ar  188  PHE188     -0.0003
    176  CE2       34.4480    1.6070   11.9320 C.ar  188  PHE188     -0.0003
    177  CZ        34.0000    1.4170   13.2240 C.ar  188  PHE188     -0.0000
    178  N         32.7300   -7.8870    8.4410 N.3   276  VAL276     -0.1245
    179  CA        31.9980   -8.2090    9.6620 C.3   276  VAL276      0.1561
    180  C         30.5100   -8.4200    9.3960 C.2   276  VAL276      0.2260
    181  O         29.8430   -7.5580    8.8240 O.2   276  VAL276     -0.2867
    182  CB        32.1620   -7.1020   10.7240 C.3   276  VAL276      0.0252
    183  CG1       31.2250   -7.3450   11.8990 C.3   276  VAL276      0.0019
    184  CG2       33.6070   -7.0250   11.1940 C.3   276  VAL276      0.0019
    185  N         27.0060   -8.9670   11.2880 N.3   278  ASN278     -0.1240
    186  CA        26.2580   -8.9260   12.5390 C.3   278  ASN278      0.1653
    187  C         25.1340   -9.9550   12.5690 C.2   278  ASN278      0.2266
    188  O         24.3620  -10.0710   11.6180 O.2   278  ASN278     -0.2867
    189  CB        25.6830   -7.5280   12.7760 C.3   278  ASN278      0.1155
    190  CG        26.6730   -6.5930   13.4440 C.2   278  ASN278      0.2627
    191  OD1       27.8680   -6.8810   13.5140 O.2   278  ASN278     -0.2716
    192  ND2       26.1780   -5.4650   13.9400 N.am  278  ASN278     -0.0877
    193  N         21.8400  -10.6940   14.4940 N.3   280  ASN280     -0.1240
    194  CA        20.8950  -10.0270   15.3830 C.3   280  ASN280      0.1653
    195  C         19.8470  -10.9650   15.9760 C.2   280  ASN280      0.2266
    196  O         19.1290  -10.5930   16.9040 O.2   280  ASN280     -0.2867
    197  CB        20.2000   -8.8880   14.6350 C.3   280  ASN280      0.1155
    198  CG        21.1840   -7.9580   13.9500 C.2   280  ASN280      0.2627
    199  OD1       21.6340   -8.2260   12.8350 O.2   280  ASN280     -0.2716
    200  ND2       21.5230   -6.8600   14.6150 N.am  280  ASN280     -0.0877
    201  N         28.6200  -11.6370   16.3260 N.3   288  ARG288     -0.1245
    202  CA        29.0730  -11.3610   14.9660 C.3   288  ARG288      0.1563
    203  C         30.2400  -12.2540   14.5550 C.2   288  ARG288      0.2260
    204  O         30.8740  -12.8930   15.3950 O.2   288  ARG288     -0.2867
    205  CB        29.4750   -9.8910   14.8310 C.3   288  ARG288      0.0307
    206  CG        30.4990   -9.4390   15.8580 C.3   288  ARG288      0.0489
    207  CD        30.6230   -7.9260   15.8910 C.3   288  ARG288      0.2205
    208  NE        31.4320   -7.4760   17.0190 N.pl3 288  ARG288     -0.0865
    209  CZ        31.5990   -6.2020   17.3590 C.cat 288  ARG288      0.5346
    210  NH1       31.0090   -5.2440   16.6570 N.pl3 288  ARG288      0.1354
    211  NH2       32.3530   -5.8870   18.4030 N.pl3 288  ARG288      0.1354
    212  N         33.8300  -12.1580   12.2010 N.3   290  HIS290     -0.1241
    213  CA        34.8020  -11.3770   11.4470 C.3   290  HIS290      0.1621
    214  C         35.5430  -12.2570   10.4480 C.2   290  HIS290      0.2264
    215  O         35.9820  -13.3520   10.7910 O.2   290  HIS290     -0.2867
    216  CB        35.8090  -10.7070   12.3870 C.3   290  HIS290      0.0745
    217  CG        35.2110  -10.2120   13.6660 C.ar  290  HIS290      0.0817
    218  ND1       34.7060   -8.9380   13.8090 N.ar  290  HIS290     -0.2268
    219  CD2       35.0440  -10.8190   14.8650 C.ar  290  HIS290      0.1154
    220  CE1       34.2500   -8.7820   15.0400 C.ar  290  HIS290      0.1986
    221  NE2       34.4430   -9.9090   15.7010 N.ar  290  HIS290     -0.2212
    222  N         34.2280   -4.2050   28.0680 N.3   324  TYR324     -0.1241
    223  CA        33.2240   -3.1460   28.0210 C.3   324  TYR324      0.1605
    224  C         32.7530   -2.7300   29.4100 C.2   324  TYR324      0.2264
    225  O         32.4140   -3.5780   30.2340 O.2   324  TYR324     -0.2867
    226  CB        32.0090   -3.5900   27.2020 C.3   324  TYR324      0.0534
    227  CG        32.2860   -3.8760   25.7460 C.ar  324  TYR324     -0.0201
    228  CD1       32.8090   -5.0970   25.3460 C.ar  324  TYR324     -0.0009
    229  CD2       32.0020   -2.9330   24.7660 C.ar  324  TYR324     -0.0009
    230  CE1       33.0560   -5.3660   24.0170 C.ar  324  TYR324      0.0417
    231  CE2       32.2450   -3.1950   23.4320 C.ar  324  TYR324      0.0417
    232  CZ        32.7720   -4.4140   23.0630 C.ar  324  TYR324      0.1957
    233  OH        33.0170   -4.6820   21.7360 O.3   324  TYR324     -0.2866
    234  N         40.6320    3.2540   28.7600 N.3   356  ARG356     -0.1245
    235  CA        39.3410    2.5770   28.7440 C.3   356  ARG356      0.1563
    236  C         39.0370    1.9150   30.0870 C.2   356  ARG356      0.2260
    237  O         37.9390    2.0530   30.6250 O.2   356  ARG356     -0.2867
    238  CB        39.3130    1.5370   27.6200 C.3   356  ARG356      0.0307
    239  CG        37.9540    0.9140   27.3470 C.3   356  ARG356      0.0489
    240  CD        38.0550   -0.1030   26.2170 C.3   356  ARG356      0.2205
    241  NE        36.7800   -0.7550   25.9320 N.pl3 356  ARG356     -0.0865
    242  CZ        35.9930   -0.4460   24.9070 C.cat 356  ARG356      0.5346
    243  NH1       36.3470    0.5100   24.0600 N.pl3 356  ARG356      0.1354
    244  NH2       34.8510   -1.0960   24.7260 N.pl3 356  ARG356      0.1354
    245  N         33.6030    3.9630   27.6970 N.3   362  TYR362     -0.1241
    246  CA        33.4530    3.3020   26.4080 C.3   362  TYR362      0.1605
    247  C         34.3040    4.0260   25.3690 C.2   362  TYR362      0.2264
    248  O         33.7980    4.8450   24.6010 O.2   362  TYR362     -0.2867
    249  CB        31.9810    3.2860   25.9890 C.3   362  TYR362      0.0534
    250  CG        31.6020    2.2130   24.9890 C.ar  362  TYR362     -0.0201
    251  CD1       32.5650    1.5630   24.2260 C.ar  362  TYR362     -0.0009
    252  CD2       30.2740    1.8520   24.8100 C.ar  362  TYR362     -0.0009
    253  CE1       32.2130    0.5860   23.3130 C.ar  362  TYR362      0.0417
    254  CE2       29.9130    0.8770   23.9020 C.ar  362  TYR362      0.0417
    255  CZ        30.8840    0.2480   23.1570 C.ar  362  TYR362      0.1957
    256  OH        30.5220   -0.7230   22.2530 O.3   362  TYR362     -0.2866
    257  N         36.8810    4.3790   22.1170 N.3   364  ASP364     -0.1239
    258  CA        37.4840    3.8980   20.8820 C.3   364  ASP364      0.1674
    259  C         38.9700    4.2420   20.9000 C.2   364  ASP364      0.2266
    260  O         39.4360    4.9360   21.8040 O.2   364  ASP364     -0.2867
    261  CB        36.7970    4.5120   19.6590 C.3   364  ASP364      0.1410
    262  CG        35.4990    3.8110   19.3010 C.2   364  ASP364      0.3668
    263  OD1       34.9970    3.0210   20.1280 O.co2 364  ASP364     -0.2456
    264  OD2       34.9790    4.0530   18.1920 O.co2 364  ASP364     -0.2456
@<TRIPOS>BOND
     1    41    42    1
     2    24    25    1
     3    26    27    2
     4    26    25    1
     5    44    43    2
     6    25    28    1
     7    37    36    2
     8    34    35    1
     9    36    35    1
    10    42    43    1
    11    42    45    1
    12   155   156    1
    13    35    38    1
    14   178   179    1
    15    45    46    1
    16    28    29    1
    17   181   180    2
    18   170   169    2
    19    30    29   ar
    20    30    32   ar
    21   180   179    1
    22    29    31   ar
    23   156   159    1
    24   156   157    1
    25   179   182    1
    26    70    68   ar
    27    70    69   ar
    28    38    40    1
    29    38    39    1
    30    32    33   ar
    31   167   157   am
    32   167   168    1
    33   159   160    1
    34   169   168    1
    35    68    66   ar
    36    46    47   ar
    37    46    48   ar
    38    47    49   ar
    39    69    67   ar
    40   214   215    2
    41   214   213    1
    42   157   158    2
    43    31    33   ar
    44   182   184    1
    45   182   183    1
    46   168   171    1
    47    12    11    1
    48   171   172    1
    49    48    50   ar
    50   174   172   ar
    51   174   176   ar
    52   185   186    1
    53    66    65   ar
    54   160   161   ar
    55   160   162   ar
    56   161   163   ar
    57   213   212    1
    58   213   216    1
    59   188   187    2
    60    67    65   ar
    61    49    51   ar
    62    11    10    1
    63    11    13    1
    64   172   173   ar
    65   176   177   ar
    66    65    64    1
    67    10     7    1
    68    18    15    1
    69    18    19    1
    70   216   217    1
    71   163   165   ar
    72    50    51   ar
    73   162   164   ar
    74    15    14    1
    75    15    16    1
    76   186   187    1
    77   186   189    1
    78   189   190    1
    79   199   198    2
    80     7     8    1
    81     7     6    1
    82   173   175   ar
    83   177   175   ar
    84     8     9    2
    85    64    61    1
    86   190   191    2
    87   190   192   am
    88    16    17    2
    89    19    20   ar
    90    19    21   ar
    91   165   164   ar
    92   165   166    1
    93   217   218   ar
    94   217   219   ar
    95   218   220   ar
    96   198   200   am
    97   198   197    1
    98    20    22   ar
    99    21    23   ar
   100     5     2    1
   101   149   150    2
   102   149   148    1
   103   193   194    1
   104   203   202    1
   105   203   204    2
   106    61    60    1
   107    61    62    1
   108   197   194    1
   109   154   152    1
   110   205   202    1
   111   205   206    1
   112   219   221   ar
   113   202   201    1
   114   220   221   ar
   115   151   152    1
   116   151   148    1
   117   152   153    1
   118   148   147    1
   119    22    23   ar
   120     2     3    1
   121     2     1    1
   122   194   195    1
   123     3     4    2
   124    62    63    2
   125    62    71   am
   126   206   207    1
   127   207   208    1
   128   139   138    2
   129   195   196    2
   130   147   138   am
   131   210   209    1
   132   138   137    1
   133    71    72    1
   134    87    85   ar
   135    87    88   ar
   136   208   209    2
   137    77    75    1
   138    85    83   ar
   139   209   211    1
   140    89    88    1
   141    88    86   ar
   142    72    75    1
   143    72    73    1
   144    83    82    1
   145    83    84   ar
   146   264   262   ar
   147   131   130    2
   148   137   136    1
   149   137   140    1
   150    75    76    1
   151    82    79    1
   152    86    84   ar
   153   140   141    1
   154   135   133    1
   155    73    74    2
   156   262   261    1
   157   262   263   ar
   158   133   132    1
   159    78    79    1
   160   146   144    1
   161    79    80    1
   162   130   129    1
   163   261   258    1
   164   144   143    2
   165   144   145    1
   166   143   142    1
   167   141   142    1
   168   129   132    1
   169   129   128    1
   170   132   134    1
   171    80    90   am
   172    80    81    2
   173   258   259    1
   174   258   257    1
   175   259   260    2
   176   123   122    2
   177    90    91    1
   178   128   122   am
   179   233   232    1
   180    95    94    1
   181   122   121    1
   182   256   255    1
   183    91    94    1
   184    91    92    1
   185   104   103    2
   186    94    96    1
   187   101   102    1
   188   101    98    1
   189   232   231   ar
   190   232   230   ar
   191   255   253   ar
   192   255   254   ar
   193    55    54    2
   194   121   120    1
   195   121   124    1
   196   253   251   ar
   197    59    57    1
   198   103   102    1
   199   103   105   am
   200   231   229   ar
   201    97    98    1
   202    92    93    2
   203   254   252   ar
   204    98    99    1
   205    57    58    1
   206    57    56    1
   207   230   228   ar
   208   243   242    1
   209   124   125    1
   210   251   250   ar
   211    54    53    1
   212   248   247    2
   213   114   112   ar
   214   114   115   ar
   215   244   242    1
   216   229   227   ar
   217   252   250   ar
   218   242   241    2
   219   250   249    1
   220    53    56    1
   221    53    52    1
   222   112   111   ar
   223   228   227   ar
   224   247   246    1
   225   117   115   ar
   226   117   119   ar
   227    99   100    2
   228    99   106   am
   229   125   126    2
   230   125   127   am
   231   115   113   ar
   232   227   226    1
   233   241   240    1
   234   249   246    1
   235   106   107    1
   236   240   239    1
   237   246   245    1
   238   111   113   ar
   239   111   110    1
   240   119   118   ar
   241   113   116   ar
   242   226   223    1
   243   239   238    1
   244   110   107    1
   245   107   108    1
   246   118   116   ar
   247   238   235    1
   248   223   222    1
   249   223   224    1
   250   108   109    2
   251   235   234    1
   252   235   236    1
   253   224   225    2
   254   236   237    2
