@<TRIPOS>MOLECULE
tmp/4rpkB01.pdb
 253 246 0 0 0
SMALL
GASTEIGER

@<TRIPOS>ATOM
      1  N         38.4020   -7.3240   16.1130 N.3    60  ALA60      -0.1231
      2  CA        38.7150   -6.4640   14.9760 C.3    60  ALA60       0.1694
      3  C         38.9120   -5.0190   15.4070 C.2    60  ALA60       0.2592
      4  O         38.1170   -4.4750   16.1720 O.2    60  ALA60      -0.2718
      5  CB        37.6190   -6.5520   13.9260 C.3    60  ALA60       0.0304
      6  N         39.9790   -4.4040   14.9120 N.am   61  HIS61      -0.1962
      7  CA        40.2610   -3.0090   15.2170 C.3    61  HIS61       0.1787
      8  C         40.3340   -2.1650   13.9440 C.2    61  HIS61       0.2620
      9  O         41.0940   -2.4660   13.0210 O.2    61  HIS61      -0.2715
     10  CB        41.5590   -2.8930   16.0190 C.3    61  HIS61       0.0785
     11  CG        41.4170   -3.2950   17.4540 C.ar   61  HIS61       0.0821
     12  ND1       40.8940   -4.5110   17.8390 N.ar   61  HIS61      -0.2267
     13  CD2       41.7200   -2.6380   18.5980 C.ar   61  HIS61       0.1154
     14  CE1       40.8840   -4.5860   19.1580 C.ar   61  HIS61       0.1986
     15  NE2       41.3810   -3.4630   19.6430 N.ar   61  HIS61      -0.2212
     16  N         39.5260   -1.1100   13.9080 N.am   62  LEU62      -0.1977
     17  CA        39.4550   -0.2050   12.7680 C.3    62  LEU62       0.1596
     18  C         39.7100    1.2250   13.2240 C.2    62  LEU62       0.2287
     19  O         38.9560    1.7580   14.0370 O.2    62  LEU62      -0.2864
     20  CB        38.0860   -0.2940   12.0840 C.3    62  LEU62       0.0297
     21  CG        37.6470   -1.6010   11.4160 C.3    62  LEU62       0.0022
     22  CD1       38.7470   -2.1370   10.5120 C.3    62  LEU62       0.0001
     23  CD2       37.1980   -2.6550   12.4270 C.3    62  LEU62       0.0001
     24  N         35.5850    0.9800    6.5780 N.3    85  HIS85      -0.1241
     25  CA        34.9150   -0.1420    7.2180 C.3    85  HIS85       0.1621
     26  C         33.4140   -0.1680    6.9460 C.2    85  HIS85       0.2264
     27  O         32.7150    0.8340    7.1060 O.2    85  HIS85      -0.2867
     28  CB        35.1670   -0.1230    8.7250 C.3    85  HIS85       0.0745
     29  CG        34.6910   -1.3570    9.4250 C.ar   85  HIS85       0.0817
     30  ND1       34.9360   -2.6250    8.9440 N.ar   85  HIS85      -0.2268
     31  CD2       33.9810   -1.5180   10.5660 C.ar   85  HIS85       0.1154
     32  CE1       34.3980   -3.5130    9.7590 C.ar   85  HIS85       0.1986
     33  NE2       33.8140   -2.8680   10.7520 N.ar   85  HIS85      -0.2212
     34  N         29.8800   -2.8680    7.5350 N.3    87  VAL87      -0.1245
     35  CA        29.3790   -4.0260    8.2560 C.3    87  VAL87       0.1561
     36  C         28.0430   -4.4650    7.6740 C.2    87  VAL87       0.2260
     37  O         27.1950   -3.6320    7.3530 O.2    87  VAL87      -0.2867
     38  CB        29.2190   -3.7230    9.7630 C.3    87  VAL87       0.0252
     39  CG1       28.6460   -4.9220   10.4970 C.3    87  VAL87       0.0019
     40  CG2       30.5540   -3.3130   10.3670 C.3    87  VAL87       0.0019
     41  N         23.8700   -2.1860    6.3030 N.3    98  PHE98      -0.1241
     42  CA        23.9560   -1.7590    7.6900 C.3    98  PHE98       0.1605
     43  C         24.9960   -0.6450    7.7810 C.2    98  PHE98       0.2264
     44  O         25.9420   -0.6250    6.9940 O.2    98  PHE98      -0.2867
     45  CB        24.3270   -2.9590    8.5760 C.3    98  PHE98       0.0534
     46  CG        23.8590   -2.8480   10.0000 C.ar   98  PHE98      -0.0203
     47  CD1       22.5200   -3.0120   10.3200 C.ar   98  PHE98      -0.0042
     48  CD2       24.7630   -2.6020   11.0230 C.ar   98  PHE98      -0.0042
     49  CE1       22.0880   -2.9160   11.6310 C.ar   98  PHE98      -0.0003
     50  CE2       24.3390   -2.5050   12.3350 C.ar   98  PHE98      -0.0003
     51  CZ        23.0000   -2.6630   12.6400 C.ar   98  PHE98      -0.0000
     52  N         19.6040    2.9520   26.2410 N.3   137  LEU137     -0.1245
     53  CA        19.8610    2.4090   24.9130 C.3   137  LEU137      0.1561
     54  C         18.5730    2.1030   24.1470 C.2   137  LEU137      0.2260
     55  O         18.4590    2.4290   22.9650 O.2   137  LEU137     -0.2867
     56  CB        20.7230    1.1460   25.0270 C.3   137  LEU137      0.0270
     57  CG        21.3320    0.5430   23.7570 C.3   137  LEU137      0.0019
     58  CD1       22.6380   -0.1550   24.0930 C.3   137  LEU137      0.0001
     59  CD2       20.3750   -0.4330   23.0850 C.3   137  LEU137      0.0001
     60  N         17.3160   -5.6460   14.6930 N.3   153  PHE153     -0.1227
     61  CA        18.7640   -5.5010   14.5460 C.3   153  PHE153      0.1736
     62  C         19.4840   -4.9730   15.7820 C.2   153  PHE153      0.2595
     63  O         20.7080   -4.8630   15.7830 O.2   153  PHE153     -0.2718
     64  CB        19.0810   -4.5850   13.3610 C.3   153  PHE153      0.0547
     65  CG        18.5990   -5.1130   12.0410 C.ar  153  PHE153     -0.0202
     66  CD1       19.3560   -6.0250   11.3280 C.ar  153  PHE153     -0.0042
     67  CD2       17.3890   -4.6970   11.5130 C.ar  153  PHE153     -0.0042
     68  CE1       18.9150   -6.5150   10.1130 C.ar  153  PHE153     -0.0003
     69  CE2       16.9430   -5.1840   10.3000 C.ar  153  PHE153     -0.0003
     70  CZ        17.7070   -6.0930    9.5990 C.ar  153  PHE153     -0.0000
     71  N         18.7420   -4.6450   16.8330 N.am  154  VAL154     -0.1980
     72  CA        19.3700   -4.0920   18.0290 C.3   154  VAL154      0.1595
     73  C         19.1180   -4.9360   19.2740 C.2   154  VAL154      0.2287
     74  O         20.0490   -5.2500   20.0120 O.2   154  VAL154     -0.2864
     75  CB        18.8860   -2.6530   18.3000 C.3   154  VAL154      0.0276
     76  CG1       19.4880   -2.1190   19.5940 C.3   154  VAL154      0.0022
     77  CG2       19.2400   -1.7510   17.1320 C.3   154  VAL154      0.0022
     78  N         21.0600   -8.4660   19.3720 N.3   157  TYR157     -0.1227
     79  CA        22.4990   -8.2280   19.4030 C.3   157  TYR157      0.1736
     80  C         22.9180   -7.6570   20.7550 C.2   157  TYR157      0.2596
     81  O         23.9160   -8.0820   21.3370 O.2   157  TYR157     -0.2718
     82  CB        22.9080   -7.2790   18.2710 C.3   157  TYR157      0.0548
     83  CG        24.4060   -7.1200   18.0940 C.ar  157  TYR157     -0.0200
     84  CD1       25.1440   -6.2820   18.9260 C.ar  157  TYR157     -0.0009
     85  CD2       25.0810   -7.7980   17.0870 C.ar  157  TYR157     -0.0009
     86  CE1       26.5100   -6.1340   18.7670 C.ar  157  TYR157      0.0417
     87  CE2       26.4480   -7.6530   16.9170 C.ar  157  TYR157      0.0417
     88  CZ        27.1570   -6.8190   17.7610 C.ar  157  TYR157      0.1957
     89  OH        28.5180   -6.6680   17.6020 O.3   157  TYR157     -0.2866
     90  N         22.1490   -6.6900   21.2440 N.am  158  THR158     -0.1953
     91  CA        22.4180   -6.0730   22.5370 C.3   158  THR158      0.1897
     92  C         22.3170   -7.1070   23.6580 C.2   158  THR158      0.2313
     93  O         23.0980   -7.0830   24.6120 O.2   158  THR158     -0.2863
     94  CB        21.4480   -4.9060   22.8100 C.3   158  THR158      0.1794
     95  OG1       21.6430   -3.8850   21.8230 O.3   158  THR158     -0.2208
     96  CG2       21.6830   -4.3130   24.1870 C.3   158  THR158      0.0378
     97  N         25.5040   -9.2970   23.4490 N.3   161  GLN161     -0.1231
     98  CA        26.7090   -8.5190   23.7110 C.3   161  GLN161      0.1698
     99  C         26.7960   -8.0110   25.1530 C.2   161  GLN161      0.2592
    100  O         27.8860   -7.9280   25.7230 O.2   161  GLN161     -0.2718
    101  CB        26.7860   -7.3440   22.7260 C.3   161  GLN161      0.0381
    102  CG        27.7580   -6.2390   23.1070 C.3   161  GLN161      0.0905
    103  CD        29.2020   -6.7030   23.1720 C.2   161  GLN161      0.2608
    104  OE1       29.5550   -7.7650   22.6580 O.2   161  GLN161     -0.2717
    105  NE2       30.0470   -5.9010   23.8080 N.am  161  GLN161     -0.0878
    106  N         25.6510   -7.6890   25.7480 N.am  162  TRP162     -0.1976
    107  CA        25.6420   -7.0940   27.0830 C.3   162  TRP162      0.1640
    108  C         25.0130   -7.9770   28.1570 C.2   162  TRP162      0.2290
    109  O         25.4400   -7.9450   29.3140 O.2   162  TRP162     -0.2864
    110  CB        24.9160   -5.7490   27.0450 C.3   162  TRP162      0.0576
    111  CG        25.5970   -4.7560   26.1770 C.ar  162  TRP162      0.0006
    112  CD1       25.2430   -4.3940   24.9110 C.ar  162  TRP162      0.0946
    113  CD2       26.7720   -4.0020   26.4970 C.ar  162  TRP162      0.0152
    114  NE1       26.1190   -3.4550   24.4260 N.ar  162  TRP162     -0.2442
    115  CE2       27.0680   -3.1970   25.3800 C.ar  162  TRP162      0.0810
    116  CE3       27.6000   -3.9270   27.6220 C.ar  162  TRP162      0.0012
    117  CZ2       28.1570   -2.3270   25.3550 C.ar  162  TRP162      0.0191
    118  CZ3       28.6800   -3.0630   27.5950 C.ar  162  TRP162      0.0001
    119  CH2       28.9490   -2.2750   26.4690 C.ar  162  TRP162      0.0015
    120  N         25.9180    4.0910   23.8690 N.3   173  ASN173     -0.1225
    121  CA        26.2980    2.8340   23.2370 C.3   173  ASN173      0.1785
    122  C         25.7290    2.6810   21.8340 C.2   173  ASN173      0.2597
    123  O         26.4230    2.2310   20.9250 O.2   173  ASN173     -0.2718
    124  CB        25.8570    1.6520   24.1000 C.3   173  ASN173      0.1169
    125  CG        26.6200    1.5700   25.4050 C.2   173  ASN173      0.2627
    126  OD1       27.3130    2.5110   25.7890 O.2   173  ASN173     -0.2716
    127  ND2       26.4950    0.4420   26.0940 N.am  173  ASN173     -0.0877
    128  N         24.4670    3.0590   21.6580 N.am  174  ILE174     -0.1980
    129  CA        23.8060    2.8890   20.3710 C.3   174  ILE174      0.1595
    130  C         24.1250    4.0480   19.4250 C.2   174  ILE174      0.2287
    131  O         24.0330    3.9080   18.2060 O.2   174  ILE174     -0.2864
    132  CB        22.2730    2.7530   20.5350 C.3   174  ILE174      0.0276
    133  CG1       21.6430    2.1550   19.2750 C.3   174  ILE174      0.0022
    134  CG2       21.6370    4.0890   20.8930 C.3   174  ILE174      0.0022
    135  CD1       21.9980    0.7030   19.0450 C.3   174  ILE174      0.0001
    136  N         26.9440    5.2070   18.9020 N.3   176  ARG176     -0.1231
    137  CA        28.2320    4.9500   18.2730 C.3   176  ARG176      0.1694
    138  C         28.0120    4.6690   16.7900 C.2   176  ARG176      0.2591
    139  O         28.8770    4.9380   15.9590 O.2   176  ARG176     -0.2718
    140  CB        28.9470    3.7750   18.9470 C.3   176  ARG176      0.0321
    141  CG        29.4330    4.0690   20.3610 C.3   176  ARG176      0.0489
    142  CD        29.9390    2.8130   21.0590 C.3   176  ARG176      0.2205
    143  NE        30.7800    1.9890   20.1950 N.pl3 176  ARG176     -0.0865
    144  CZ        32.0930    2.1420   20.0550 C.cat 176  ARG176      0.5346
    145  NH1       32.7300    3.0940   20.7240 N.pl3 176  ARG176      0.1354
    146  NH2       32.7700    1.3390   19.2470 N.pl3 176  ARG176      0.1354
    147  N         26.8390    4.1350   16.4680 N.am  177  LEU177     -0.1980
    148  CA        26.4920    3.8080   15.0910 C.3   177  LEU177      0.1596
    149  C         25.8140    4.9890   14.4080 C.2   177  LEU177      0.2287
    150  O         24.8860    5.5800   14.9580 O.2   177  LEU177     -0.2864
    151  CB        25.5810    2.5770   15.0380 C.3   177  LEU177      0.0297
    152  CG        26.2030    1.1790   15.1380 C.3   177  LEU177      0.0022
    153  CD1       26.9690    0.9740   16.4410 C.3   177  LEU177      0.0001
    154  CD2       25.1240    0.1160   14.9820 C.3   177  LEU177      0.0001
    155  N         30.4730    2.2650    8.1640 N.3   187  TYR187     -0.1227
    156  CA        30.1220    1.9940    9.5530 C.3   187  TYR187      0.1736
    157  C         30.5560    3.1180   10.4890 C.2   187  TYR187      0.2595
    158  O         30.0800    3.2100   11.6180 O.2   187  TYR187     -0.2718
    159  CB        30.7310    0.6670   10.0100 C.3   187  TYR187      0.0548
    160  CG        30.0200    0.0750   11.2020 C.ar  187  TYR187     -0.0200
    161  CD1       28.7280   -0.4200   11.0840 C.ar  187  TYR187     -0.0009
    162  CD2       30.6350    0.0170   12.4460 C.ar  187  TYR187     -0.0009
    163  CE1       28.0680   -0.9600   12.1710 C.ar  187  TYR187      0.0417
    164  CE2       29.9830   -0.5210   13.5380 C.ar  187  TYR187      0.0417
    165  CZ        28.7000   -1.0080   13.3950 C.ar  187  TYR187      0.1957
    166  OH        28.0450   -1.5450   14.4790 O.3   187  TYR187     -0.2866
    167  N         31.4620    3.9660   10.0160 N.am  188  PHE188     -0.1976
    168  CA        31.9060    5.1230   10.7840 C.3   188  PHE188      0.1639
    169  C         31.6340    6.4010   10.0090 C.2   188  PHE188      0.2290
    170  O         31.5340    6.3800    8.7830 O.2   188  PHE188     -0.2864
    171  CB        33.3970    5.0290   11.1170 C.3   188  PHE188      0.0560
    172  CG        33.7840    3.7600   11.8120 C.ar  188  PHE188     -0.0200
    173  CD1       33.3110    3.4800   13.0810 C.ar  188  PHE188     -0.0042
    174  CD2       34.6280    2.8520   11.2010 C.ar  188  PHE188     -0.0042
    175  CE1       33.6650    2.3140   13.7230 C.ar  188  PHE188     -0.0003
    176  CE2       34.9870    1.6850   11.8390 C.ar  188  PHE188     -0.0003
    177  CZ        34.5050    1.4150   13.1020 C.ar  188  PHE188     -0.0000
    178  N         33.4240   -7.9650    8.2590 N.3   276  VAL276     -0.1245
    179  CA        32.6790   -8.2630    9.4740 C.3   276  VAL276      0.1561
    180  C         31.2100   -8.5100    9.1650 C.2   276  VAL276      0.2260
    181  O         30.5670   -7.7200    8.4750 O.2   276  VAL276     -0.2867
    182  CB        32.7950   -7.1240   10.5100 C.3   276  VAL276      0.0252
    183  CG1       31.9030   -7.4030   11.7110 C.3   276  VAL276      0.0019
    184  CG2       34.2410   -6.9480   10.9480 C.3   276  VAL276      0.0019
    185  N         27.6990   -9.1100   11.1790 N.3   278  ASN278     -0.1240
    186  CA        26.9660   -9.1170   12.4390 C.3   278  ASN278      0.1653
    187  C         25.8580  -10.1650   12.4290 C.2   278  ASN278      0.2266
    188  O         25.1830  -10.3590   11.4170 O.2   278  ASN278     -0.2867
    189  CB        26.3740   -7.7360   12.7290 C.3   278  ASN278      0.1155
    190  CG        27.3710   -6.7930   13.3830 C.2   278  ASN278      0.2627
    191  OD1       26.9890   -5.7730   13.9540 O.2   278  ASN278     -0.2716
    192  ND2       28.6510   -7.1350   13.3110 N.am  278  ASN278     -0.0877
    193  N         22.4570  -10.9070   14.3240 N.3   280  ASN280     -0.1240
    194  CA        21.5200  -10.2210   15.2030 C.3   280  ASN280      0.1653
    195  C         20.4700  -11.1420   15.8110 C.2   280  ASN280      0.2266
    196  O         19.7660  -10.7590   16.7450 O.2   280  ASN280     -0.2867
    197  CB        20.8450   -9.0870   14.4340 C.3   280  ASN280      0.1155
    198  CG        21.8490   -8.1760   13.7560 C.2   280  ASN280      0.2627
    199  OD1       22.4270   -8.5300   12.7280 O.2   280  ASN280     -0.2716
    200  ND2       22.0710   -7.0000   14.3340 N.am  280  ASN280     -0.0877
    201  N         29.2180  -11.7860   16.2100 N.3   288  ARG288     -0.1245
    202  CA        29.6560  -11.5130   14.8480 C.3   288  ARG288      0.1563
    203  C         30.7980  -12.4170   14.4130 C.2   288  ARG288      0.2260
    204  O         31.4060  -13.1120   15.2270 O.2   288  ARG288     -0.2867
    205  CB        30.0880  -10.0550   14.7190 C.3   288  ARG288      0.0307
    206  CG        31.2130   -9.6720   15.6580 C.3   288  ARG288      0.0489
    207  CD        31.3030   -8.1720   15.7880 C.3   288  ARG288      0.2205
    208  NE        32.2500   -7.7690   16.8180 N.pl3 288  ARG288     -0.0865
    209  CZ        32.2000   -6.6040   17.4530 C.cat 288  ARG288      0.5346
    210  NH1       31.2390   -5.7370   17.1680 N.pl3 288  ARG288      0.1354
    211  NH2       33.1020   -6.3100   18.3780 N.pl3 288  ARG288      0.1354
    212  N         34.3900  -12.2710   11.9900 N.3   290  HIS290     -0.1241
    213  CA        35.3610  -11.5260   11.1980 C.3   290  HIS290      0.1621
    214  C         36.0390  -12.4430   10.1840 C.2   290  HIS290      0.2264
    215  O         36.3350  -13.5950   10.4890 O.2   290  HIS290     -0.2867
    216  CB        36.4260  -10.8830   12.0900 C.3   290  HIS290      0.0745
    217  CG        35.9010  -10.3520   13.3880 C.ar  290  HIS290      0.0817
    218  ND1       35.4860   -9.0480   13.5460 N.ar  290  HIS290     -0.2268
    219  CD2       35.7450  -10.9450   14.5960 C.ar  290  HIS290      0.1154
    220  CE1       35.0880   -8.8620   14.7920 C.ar  290  HIS290      0.1986
    221  NE2       35.2350   -9.9980   15.4500 N.ar  290  HIS290     -0.2212
    222  N         34.7030   -4.4350   27.9020 N.3   324  TYR324     -0.1241
    223  CA        33.7270   -3.3530   27.8500 C.3   324  TYR324      0.1605
    224  C         33.2470   -2.9550   29.2440 C.2   324  TYR324      0.2264
    225  O         32.8850   -3.8130   30.0470 O.2   324  TYR324     -0.2867
    226  CB        32.5150   -3.7550   27.0040 C.3   324  TYR324      0.0534
    227  CG        32.8030   -4.1000   25.5570 C.ar  324  TYR324     -0.0201
    228  CD1       33.2430   -5.3670   25.1970 C.ar  324  TYR324     -0.0009
    229  CD2       32.5940   -3.1690   24.5460 C.ar  324  TYR324     -0.0009
    230  CE1       33.4880   -5.6900   23.8770 C.ar  324  TYR324      0.0417
    231  CE2       32.8360   -3.4840   23.2210 C.ar  324  TYR324      0.0417
    232  CZ        33.2830   -4.7450   22.8930 C.ar  324  TYR324      0.1957
    233  OH        33.5260   -5.0620   21.5770 O.3   324  TYR324     -0.2866
    234  N         34.0460    3.6890   27.5840 N.3   362  TYR362     -0.1241
    235  CA        33.9230    3.0360   26.2870 C.3   362  TYR362      0.1605
    236  C         34.7440    3.7910   25.2400 C.2   362  TYR362      0.2264
    237  O         34.1920    4.5340   24.4280 O.2   362  TYR362     -0.2867
    238  CB        32.4470    2.9800   25.8870 C.3   362  TYR362      0.0534
    239  CG        32.0510    1.8870   24.9170 C.ar  362  TYR362     -0.0201
    240  CD1       32.9130    1.4540   23.9130 C.ar  362  TYR362     -0.0009
    241  CD2       30.8000    1.2960   25.0020 C.ar  362  TYR362     -0.0009
    242  CE1       32.5330    0.4610   23.0300 C.ar  362  TYR362      0.0417
    243  CE2       30.4130    0.3060   24.1240 C.ar  362  TYR362      0.0417
    244  CZ        31.2800   -0.1100   23.1390 C.ar  362  TYR362      0.1957
    245  OH        30.8830   -1.1010   22.2700 O.3   362  TYR362     -0.2866
    246  N         37.3290    4.3300   22.0290 N.3   364  ASP364     -0.1239
    247  CA        37.9410    3.8550   20.7970 C.3   364  ASP364      0.1674
    248  C         39.4070    4.2720   20.7670 C.2   364  ASP364      0.2266
    249  O         39.8460    5.0700   21.5980 O.2   364  ASP364     -0.2867
    250  CB        37.2020    4.3940   19.5730 C.3   364  ASP364      0.1410
    251  CG        35.8640    3.7180   19.3540 C.2   364  ASP364      0.3668
    252  OD1       35.7060    2.5520   19.7730 O.co2 364  ASP364     -0.2456
    253  OD2       34.9700    4.3520   18.7570 O.co2 364  ASP364     -0.2456
@<TRIPOS>BOND
     1    41    42    1
     2    24    25    1
     3    26    27    2
     4    26    25    1
     5    44    43    2
     6    25    28    1
     7    37    36    2
     8    34    35    1
     9    36    35    1
    10    42    43    1
    11    42    45    1
    12   155   156    1
    13    35    38    1
    14   178   179    1
    15   181   180    2
    16    45    46    1
    17    28    29    1
    18   170   169    2
    19    30    29   ar
    20    30    32   ar
    21   180   179    1
    22    29    31   ar
    23   179   182    1
    24   156   159    1
    25   156   157    1
    26    70    68   ar
    27    70    69   ar
    28    32    33   ar
    29    38    40    1
    30    38    39    1
    31    46    47   ar
    32    46    48   ar
    33   169   168    1
    34   159   160    1
    35   167   157   am
    36   167   168    1
    37    68    66   ar
    38   214   215    2
    39   214   213    1
    40    69    67   ar
    41    47    49   ar
    42   157   158    2
    43   182   184    1
    44   182   183    1
    45    22    21    1
    46    31    33   ar
    47   168   171    1
    48    48    50   ar
    49   161   160   ar
    50   161   163   ar
    51   171   172    1
    52   185   186    1
    53   213   212    1
    54   213   216    1
    55   174   172   ar
    56   174   176   ar
    57   160   162   ar
    58    66    65   ar
    59    21    20    1
    60    21    23    1
    61   188   187    2
    62    67    65   ar
    63    49    51   ar
    64   172   173   ar
    65   176   177   ar
    66    65    64    1
    67    20    17    1
    68   216   217    1
    69   163   165   ar
    70    50    51   ar
    71   187   186    1
    72   186   189    1
    73   162   164   ar
    74   199   198    2
    75   189   190    1
    76    17    18    1
    77    17    16    1
    78     9     8    2
    79   173   175   ar
    80   177   175   ar
    81    18    19    2
    82   192   190   am
    83    64    61    1
    84   190   191    2
    85   217   218   ar
    86   217   219   ar
    87   165   164   ar
    88   165   166    1
    89   218   220   ar
    90   198   200   am
    91   198   197    1
    92    16     8   am
    93     5     2    1
    94     8     7    1
    95   193   194    1
    96   149   150    2
    97   149   148    1
    98   203   202    1
    99   203   204    2
   100   197   194    1
   101    61    60    1
   102    61    62    1
   103   219   221   ar
   104   205   202    1
   105   205   206    1
   106   220   221   ar
   107   202   201    1
   108     6     7    1
   109     6     3   am
   110     2     3    1
   111     2     1    1
   112   154   152    1
   113   151   148    1
   114   151   152    1
   115   148   147    1
   116   152   153    1
   117   194   195    1
   118     7    10    1
   119     3     4    2
   120   206   207    1
   121    62    63    2
   122    62    71   am
   123   207   208    1
   124   195   196    2
   125   139   138    2
   126    10    11    1
   127   147   138   am
   128   138   137    1
   129   208   209    2
   130    71    72    1
   131    87    85   ar
   132    87    88   ar
   133    85    83   ar
   134    77    75    1
   135   210   209    1
   136   209   211    1
   137    11    12   ar
   138    11    13   ar
   139    89    88    1
   140    88    86   ar
   141    12    14   ar
   142    72    75    1
   143    72    73    1
   144    83    82    1
   145    83    84   ar
   146   131   130    2
   147    82    79    1
   148   137   136    1
   149   137   140    1
   150    75    76    1
   151    13    15   ar
   152   253   251   ar
   153    86    84   ar
   154   140   141    1
   155   135   133    1
   156    14    15   ar
   157   146   144    1
   158    73    74    2
   159   133   132    1
   160   251   250    1
   161   251   252   ar
   162    78    79    1
   163    79    80    1
   164   130   129    1
   165   250   247    1
   166   144   143    2
   167   144   145    1
   168   143   142    1
   169   141   142    1
   170   129   132    1
   171   129   128    1
   172   132   134    1
   173    80    90   am
   174    80    81    2
   175   248   247    1
   176   248   249    2
   177   247   246    1
   178   123   122    2
   179    90    91    1
   180   233   232    1
   181   128   122   am
   182    95    94    1
   183   122   121    1
   184   245   244    1
   185    91    94    1
   186    91    92    1
   187   104   103    2
   188   101   102    1
   189   101    98    1
   190    94    96    1
   191   232   231   ar
   192   232   230   ar
   193    55    54    2
   194   242   244   ar
   195   242   240   ar
   196    59    57    1
   197   102   103    1
   198   244   243   ar
   199   103   105   am
   200   231   229   ar
   201   121   120    1
   202   121   124    1
   203    97    98    1
   204    92    93    2
   205    98    99    1
   206    57    58    1
   207    57    56    1
   208   230   228   ar
   209   240   239   ar
   210   124   125    1
   211   243   241   ar
   212    54    53    1
   213   114   112   ar
   214   114   115   ar
   215   237   236    2
   216   229   227   ar
   217   112   111   ar
   218    53    56    1
   219    53    52    1
   220   239   241   ar
   221   239   238    1
   222    99   100    2
   223    99   106   am
   224   228   227   ar
   225   236   235    1
   226   117   115   ar
   227   117   119   ar
   228   115   113   ar
   229   125   126    2
   230   125   127   am
   231   227   226    1
   232   106   107    1
   233   238   235    1
   234   111   113   ar
   235   111   110    1
   236   235   234    1
   237   119   118   ar
   238   113   116   ar
   239   226   223    1
   240   110   107    1
   241   107   108    1
   242   118   116   ar
   243   223   222    1
   244   223   224    1
   245   108   109    2
   246   224   225    2
