@<TRIPOS>MOLECULE
tmp/4rplA01.pdb
 274 266 0 0 0
SMALL
GASTEIGER

@<TRIPOS>ATOM
      1  N         75.0690   -4.3470   16.8210 N.3    60  ALA60      -0.1231
      2  CA        75.6680   -5.0280   15.6800 C.3    60  ALA60       0.1694
      3  C         76.8500   -5.8980   16.0980 C.2    60  ALA60       0.2592
      4  O         77.7390   -5.4510   16.8230 O.2    60  ALA60      -0.2718
      5  CB        76.1030   -4.0170   14.6310 C.3    60  ALA60       0.0304
      6  N         76.8460   -7.1450   15.6380 N.am   61  HIS61      -0.1962
      7  CA        77.9300   -8.0760   15.9190 C.3    61  HIS61       0.1787
      8  C         78.6010   -8.5390   14.6310 C.2    61  HIS61       0.2620
      9  O         77.9920   -9.2330   13.8160 O.2    61  HIS61      -0.2715
     10  CB        77.4150   -9.2830   16.7050 C.3    61  HIS61       0.0785
     11  CG        77.2170   -9.0140   18.1640 C.ar   61  HIS61       0.0821
     12  ND1       76.5980   -7.8760   18.6350 N.ar   61  HIS61      -0.2267
     13  CD2       77.5590   -9.7360   19.2570 C.ar   61  HIS61       0.1154
     14  CE1       76.5670   -7.9090   19.9550 C.ar   61  HIS61       0.1986
     15  NE2       77.1420   -9.0270   20.3580 N.ar   61  HIS61      -0.2212
     16  N         79.8580   -8.1480   14.4520 N.am   62  LEU62      -0.1977
     17  CA        80.6240   -8.5420   13.2770 C.3    62  LEU62       0.1596
     18  C         81.7510   -9.4860   13.6790 C.2    62  LEU62       0.2287
     19  O         82.5820   -9.1490   14.5210 O.2    62  LEU62      -0.2864
     20  CB        81.1900   -7.3130   12.5570 C.3    62  LEU62       0.0297
     21  CG        80.2180   -6.3800   11.8240 C.3    62  LEU62       0.0022
     22  CD1       79.2240   -7.1780   10.9960 C.3    62  LEU62       0.0001
     23  CD2       79.4980   -5.4280   12.7730 C.3    62  LEU62       0.0001
     24  N         85.1780  -11.6640   13.2410 N.3    64  HIS64      -0.1241
     25  CA        86.4710  -11.5580   12.5780 C.3    64  HIS64       0.1621
     26  C         87.5710  -12.1250   13.4680 C.2    64  HIS64       0.2264
     27  O         87.5800  -11.8930   14.6770 O.2    64  HIS64      -0.2867
     28  CB        86.7750  -10.1020   12.2230 C.3    64  HIS64       0.0745
     29  CG        86.7650   -9.1790   13.4010 C.ar   64  HIS64       0.0817
     30  ND1       87.9010   -8.8790   14.1220 N.ar   64  HIS64      -0.2268
     31  CD2       85.7540   -8.4980   13.9920 C.ar   64  HIS64       0.1154
     32  CE1       87.5920   -8.0470   15.1000 C.ar   64  HIS64       0.1986
     33  NE2       86.2950   -7.8010   15.0440 N.ar   64  HIS64      -0.2212
     34  N         83.3000   -5.9190    6.5950 N.3    85  HIS85      -0.1241
     35  CA        82.7270   -4.7740    7.2910 C.3    85  HIS85       0.1621
     36  C         83.4530   -3.4690    6.9820 C.2    85  HIS85       0.2264
     37  O         84.6810   -3.3970    7.0310 O.2    85  HIS85      -0.2867
     38  CB        82.7230   -5.0130    8.8010 C.3    85  HIS85       0.0745
     39  CG        81.9510   -3.9870    9.5690 C.ar   85  HIS85       0.0817
     40  ND1       80.6830   -3.5840    9.2030 N.ar   85  HIS85      -0.2268
     41  CD2       82.2610   -3.2820   10.6820 C.ar   85  HIS85       0.1154
     42  CE1       80.2490   -2.6760   10.0570 C.ar   85  HIS85       0.1986
     43  NE2       81.1870   -2.4740   10.9650 N.ar   85  HIS85      -0.2212
     44  N         82.9820    0.9500    7.7020 N.3    87  VAL87      -0.1245
     45  CA        82.2820    1.9740    8.4650 C.3    87  VAL87       0.1561
     46  C         82.5340    3.3560    7.8740 C.2    87  VAL87       0.2260
     47  O         83.6540    3.6730    7.4770 O.2    87  VAL87      -0.2867
     48  CB        82.7150    1.9580    9.9500 C.3    87  VAL87       0.0252
     49  CG1       82.0190    3.0640   10.7330 C.3    87  VAL87       0.0019
     50  CG2       82.4280    0.6010   10.5710 C.3    87  VAL87       0.0019
     51  N         86.3780    5.8940    6.4140 N.3    98  PHE98      -0.1241
     52  CA        86.8060    5.5650    7.7680 C.3    98  PHE98       0.1605
     53  C         87.3500    4.1360    7.7920 C.2    98  PHE98       0.2264
     54  O         86.8770    3.2860    7.0380 O.2    98  PHE98      -0.2867
     55  CB        85.6280    5.7330    8.7370 C.3    98  PHE98       0.0534
     56  CG        86.0290    6.0540   10.1480 C.ar   98  PHE98      -0.0203
     57  CD1       86.5750    7.2870   10.4640 C.ar   98  PHE98      -0.0042
     58  CD2       85.8450    5.1280   11.1610 C.ar   98  PHE98      -0.0042
     59  CE1       86.9420    7.5860   11.7630 C.ar   98  PHE98      -0.0003
     60  CE2       86.2090    5.4210   12.4610 C.ar   98  PHE98      -0.0003
     61  CZ        86.7580    6.6520   12.7620 C.ar   98  PHE98      -0.0000
     62  N         93.9730    6.6940   26.3760 N.3   137  LEU137     -0.1245
     63  CA        93.3070    6.7110   25.0770 C.3   137  LEU137      0.1561
     64  C         93.6590    7.9650   24.2850 C.2   137  LEU137      0.2260
     65  O         93.9670    7.8910   23.0950 O.2   137  LEU137     -0.2867
     66  CB        91.7870    6.6090   25.2620 C.3   137  LEU137      0.0270
     67  CG        90.8820    6.2700   24.0710 C.3   137  LEU137      0.0019
     68  CD1       89.5810    5.6630   24.5720 C.3   137  LEU137      0.0001
     69  CD2       90.5850    7.4890   23.2060 C.3   137  LEU137      0.0001
     70  N         87.0530   13.4620   14.8630 N.3   153  PHE153     -0.1227
     71  CA        86.5720   12.0980   14.6580 C.3   153  PHE153      0.1736
     72  C         86.6920   11.2080   15.8930 C.2   153  PHE153      0.2595
     73  O         86.1810   10.0890   15.9040 O.2   153  PHE153     -0.2718
     74  CB        87.3190   11.4500   13.4890 C.3   153  PHE153      0.0547
     75  CG        87.0460   12.0990   12.1630 C.ar  153  PHE153     -0.0202
     76  CD1       85.9220   11.7560   11.4280 C.ar  153  PHE153     -0.0042
     77  CD2       87.9100   13.0510   11.6500 C.ar  153  PHE153     -0.0042
     78  CE1       85.6650   12.3530   10.2090 C.ar  153  PHE153     -0.0003
     79  CE2       87.6590   13.6510   10.4310 C.ar  153  PHE153     -0.0003
     80  CZ        86.5350   13.3020    9.7090 C.ar  153  PHE153     -0.0000
     81  N         87.3620   11.6970   16.9310 N.am  154  VAL154     -0.1980
     82  CA        87.5420   10.9020   18.1410 C.3   154  VAL154      0.1595
     83  C         86.9790   11.6010   19.3760 C.2   154  VAL154      0.2287
     84  O         86.3270   10.9690   20.2070 O.2   154  VAL154     -0.2864
     85  CB        89.0300   10.5740   18.3830 C.3   154  VAL154      0.0276
     86  CG1       89.1930    9.7240   19.6340 C.3   154  VAL154      0.0022
     87  CG2       89.6180    9.8620   17.1780 C.3   154  VAL154      0.0022
     88  N         83.0380   11.6110   19.5720 N.3   157  TYR157     -0.1227
     89  CA        82.5610   10.2330   19.5840 C.3   157  TYR157      0.1736
     90  C         82.8710    9.5500   20.9130 C.2   157  TYR157      0.2596
     91  O         82.0350    8.8310   21.4600 O.2   157  TYR157     -0.2718
     92  CB        83.1810    9.4450   18.4270 C.3   157  TYR157      0.0548
     93  CG        82.5990    8.0610   18.2360 C.ar  157  TYR157     -0.0200
     94  CD1       83.1020    6.9710   18.9330 C.ar  157  TYR157     -0.0009
     95  CD2       81.5500    7.8450   17.3520 C.ar  157  TYR157     -0.0009
     96  CE1       82.5750    5.7060   18.7610 C.ar  157  TYR157      0.0417
     97  CE2       81.0160    6.5820   17.1710 C.ar  157  TYR157      0.0417
     98  CZ        81.5330    5.5170   17.8780 C.ar  157  TYR157      0.1957
     99  OH        81.0060    4.2580   17.7040 O.3   157  TYR157     -0.2866
    100  N         84.0780    9.7750   21.4240 N.am  158  THR158     -0.1953
    101  CA        84.5010    9.1780   22.6870 C.3   158  THR158      0.1897
    102  C         83.6900    9.7390   23.8520 C.2   158  THR158      0.2313
    103  O         83.3690    9.0230   24.8000 O.2   158  THR158     -0.2863
    104  CB        86.0040    9.4160   22.9470 C.3   158  THR158      0.1794
    105  OG1       86.7630    8.9580   21.8220 O.3   158  THR158     -0.2208
    106  CG2       86.4620    8.6760   24.1960 C.3   158  THR158      0.0378
    107  N         80.2770    7.9910   23.9470 N.3   161  GLN161     -0.1231
    108  CA        80.3030    6.5580   24.2180 C.3   161  GLN161      0.1698
    109  C         80.6600    6.2390   25.6680 C.2   161  GLN161      0.2592
    110  O         80.0850    5.3310   26.2700 O.2   161  GLN161     -0.2718
    111  CB        81.2860    5.8600   23.2710 C.3   161  GLN161      0.0381
    112  CG        81.7100    4.4550   23.7010 C.3   161  GLN161      0.0905
    113  CD        80.5730    3.4450   23.6760 C.2   161  GLN161      0.2608
    114  OE1       79.4860    3.7210   23.1680 O.2   161  GLN161     -0.2717
    115  NE2       80.8260    2.2630   24.2240 N.am  161  GLN161     -0.0878
    116  N         81.6010    6.9910   26.2300 N.am  162  TRP162     -0.1976
    117  CA        82.1040    6.6930   27.5660 C.3   162  TRP162      0.1640
    118  C         81.6530    7.7020   28.6170 C.2   162  TRP162      0.2290
    119  O         81.4640    7.3430   29.7810 O.2   162  TRP162     -0.2864
    120  CB        83.6330    6.6250   27.5520 C.3   162  TRP162      0.0576
    121  CG        84.1770    5.6030   26.6080 C.ar  162  TRP162      0.0006
    122  CD1       84.6970    5.8280   25.3670 C.ar  162  TRP162      0.0946
    123  CD2       84.2500    4.1880   26.8240 C.ar  162  TRP162      0.0152
    124  NE1       85.0930    4.6420   24.7980 N.ar  162  TRP162     -0.2442
    125  CE2       84.8290    3.6200   25.6720 C.ar  162  TRP162      0.0810
    126  CE3       83.8830    3.3480   27.8790 C.ar  162  TRP162      0.0012
    127  CZ2       85.0500    2.2500   25.5450 C.ar  162  TRP162      0.0191
    128  CZ3       84.1040    1.9880   27.7520 C.ar  162  TRP162      0.0001
    129  CH2       84.6810    1.4530   26.5930 C.ar  162  TRP162      0.0015
    130  N         91.8490    0.8550   23.8910 N.3   173  ASN173     -0.1225
    131  CA        90.5350    1.0870   23.3000 C.3   173  ASN173      0.1785
    132  C         90.6120    1.6590   21.8880 C.2   173  ASN173      0.2597
    133  O         89.7670    1.3600   21.0450 O.2   173  ASN173     -0.2718
    134  CB        89.7110    2.0230   24.1870 C.3   173  ASN173      0.1169
    135  CG        89.2850    1.3730   25.4880 C.2   173  ASN173      0.2627
    136  OD1       89.8050    0.3250   25.8730 O.2   173  ASN173     -0.2716
    137  ND2       88.3350    1.9960   26.1760 N.am  173  ASN173     -0.0877
    138  N         91.6270    2.4800   21.6330 N.am  174  ILE174     -0.1980
    139  CA        91.7580    3.1460   20.3420 C.3   174  ILE174      0.1595
    140  C         92.5340    2.2810   19.3470 C.2   174  ILE174      0.2287
    141  O         92.3690    2.4170   18.1330 O.2   174  ILE174     -0.2864
    142  CB        92.4370    4.5350   20.4940 C.3   174  ILE174      0.0276
    143  CG1       91.5600    5.6310   19.8810 C.3   174  ILE174      0.0022
    144  CG2       93.8450    4.5470   19.8980 C.3   174  ILE174      0.0022
    145  CD1       91.2560    5.4320   18.4120 C.3   174  ILE174      0.0001
    146  N         92.0080   -0.6230   18.7420 N.3   176  ARG176     -0.1231
    147  CA        91.0670   -1.5630   18.1480 C.3   176  ARG176      0.1694
    148  C         90.8330   -1.1970   16.6870 C.2   176  ARG176      0.2591
    149  O         90.4650   -2.0430   15.8720 O.2   176  ARG176     -0.2718
    150  CB        89.7460   -1.5680   18.9190 C.3   176  ARG176      0.0321
    151  CG        89.8520   -2.1200   20.3310 C.3   176  ARG176      0.0489
    152  CD        88.5930   -1.8310   21.1330 C.3   176  ARG176      0.2205
    153  NE        87.3830   -2.2270   20.4190 N.pl3 176  ARG176     -0.0865
    154  CZ        86.8560   -3.4460   20.4600 C.cat 176  ARG176      0.5346
    155  NH1       87.4330   -4.3970   21.1810 N.pl3 176  ARG176      0.1354
    156  NH2       85.7510   -3.7160   19.7790 N.pl3 176  ARG176      0.1354
    157  N         91.0530    0.0750   16.3690 N.am  177  LEU177     -0.1980
    158  CA        90.9000    0.5730   15.0070 C.3   177  LEU177      0.1596
    159  C         92.2400    0.5850   14.2810 C.2   177  LEU177      0.2287
    160  O         93.2440    1.0430   14.8280 O.2   177  LEU177     -0.2864
    161  CB        90.2920    1.9800   15.0040 C.3   177  LEU177      0.0297
    162  CG        88.8010    2.1410   15.3150 C.3   177  LEU177      0.0022
    163  CD1       88.5130    1.9790   16.8020 C.3   177  LEU177      0.0001
    164  CD2       88.2980    3.4870   14.8140 C.3   177  LEU177      0.0001
    165  N         87.2890   -2.1500    8.0670 N.3   187  TYR187     -0.1227
    166  CA        87.2860   -1.7590    9.4710 C.3   187  TYR187      0.1736
    167  C         88.0660   -2.7500   10.3320 C.2   187  TYR187      0.2595
    168  O         88.5610   -2.3970   11.4020 O.2   187  TYR187     -0.2718
    169  CB        85.8510   -1.6250    9.9840 C.3   187  TYR187      0.0548
    170  CG        85.7410   -0.8340   11.2670 C.ar  187  TYR187     -0.0200
    171  CD1       85.9020    0.5450   11.2690 C.ar  187  TYR187     -0.0009
    172  CD2       85.4760   -1.4650   12.4740 C.ar  187  TYR187     -0.0009
    173  CE1       85.8030    1.2750   12.4390 C.ar  187  TYR187      0.0417
    174  CE2       85.3740   -0.7440   13.6490 C.ar  187  TYR187      0.0417
    175  CZ        85.5390    0.6250   13.6250 C.ar  187  TYR187      0.1957
    176  OH        85.4390    1.3470   14.7930 O.3   187  TYR187     -0.2866
    177  N         88.1720   -3.9870    9.8600 N.am  188  PHE188     -0.1976
    178  CA        88.9560   -5.0020   10.5530 C.3   188  PHE188      0.1639
    179  C         90.1390   -5.4310    9.6930 C.2   188  PHE188      0.2290
    180  O         90.1060   -5.2940    8.4710 O.2   188  PHE188     -0.2864
    181  CB        88.0890   -6.2110   10.9090 C.3   188  PHE188      0.0560
    182  CG        86.8420   -5.8610   11.6710 C.ar  188  PHE188     -0.0200
    183  CD1       86.9210   -5.2910   12.9310 C.ar  188  PHE188     -0.0042
    184  CD2       85.5910   -6.1080   11.1290 C.ar  188  PHE188     -0.0042
    185  CE1       85.7760   -4.9680   13.6340 C.ar  188  PHE188     -0.0003
    186  CE2       84.4430   -5.7890   11.8290 C.ar  188  PHE188     -0.0003
    187  CZ        84.5360   -5.2180   13.0830 C.ar  188  PHE188     -0.0000
    188  N         76.8960    0.5960    8.5770 N.3   276  VAL276     -0.1245
    189  CA        77.0740    1.3780    9.7960 C.3   276  VAL276      0.1561
    190  C         77.5910    2.7840    9.5060 C.2   276  VAL276      0.2260
    191  O         78.6000    2.9570    8.8240 O.2   276  VAL276     -0.2867
    192  CB        78.0470    0.6840   10.7740 C.3   276  VAL276      0.0252
    193  CG1       78.2620    1.5420   12.0130 C.3   276  VAL276      0.0019
    194  CG2       77.5270   -0.6930   11.1610 C.3   276  VAL276      0.0019
    195  N         78.8550    6.1270   11.5170 N.3   278  ASN278     -0.1240
    196  CA        79.2400    6.7470   12.7790 C.3   278  ASN278      0.1653
    197  C         78.9170    8.2360   12.8040 C.2   278  ASN278      0.2266
    198  O         79.0780    8.9330   11.8030 O.2   278  ASN278     -0.2867
    199  CB        80.7310    6.5340   13.0470 C.3   278  ASN278      0.1155
    200  CG        81.0430    5.1280   13.5180 C.2   278  ASN278      0.2627
    201  OD1       80.1860    4.2450   13.4860 O.2   278  ASN278     -0.2716
    202  ND2       82.2770    4.9110   13.9580 N.am  278  ASN278     -0.0877
    203  N         80.1120   11.4470   14.7270 N.3   280  ASN280     -0.1240
    204  CA        81.1830   11.9290   15.5890 C.3   280  ASN280      0.1653
    205  C         80.8790   13.2660   16.2590 C.2   280  ASN280      0.2266
    206  O         81.5670   13.6640   17.1980 O.2   280  ASN280     -0.2867
    207  CB        82.4790   12.0490   14.7830 C.3   280  ASN280      0.1155
    208  CG        82.8390   10.7630   14.0650 C.2   280  ASN280      0.2627
    209  OD1       82.3070   10.4670   12.9940 O.2   280  ASN280     -0.2716
    210  ND2       83.7490    9.9930   14.6480 N.am  280  ASN280     -0.0877
    211  N         75.9140    6.0840   16.6130 N.3   288  ARG288     -0.1245
    212  CA        75.9300    5.5360   15.2610 C.3   288  ARG288      0.1563
    213  C         74.5780    4.9440   14.8720 C.2   288  ARG288      0.2260
    214  O         73.7220    4.7090   15.7240 O.2   288  ARG288     -0.2867
    215  CB        77.0190    4.4700   15.1320 C.3   288  ARG288      0.0307
    216  CG        76.8560    3.3140   16.0990 C.3   288  ARG288      0.0489
    217  CD        78.1260    2.4900   16.1900 C.3   288  ARG288      0.2205
    218  NE        78.0210    1.4490   17.2060 N.pl3 288  ARG288     -0.0865
    219  CZ        79.0500    0.7400   17.6560 C.cat 288  ARG288      0.5346
    220  NH1       80.2670    0.9660   17.1790 N.pl3 288  ARG288      0.1354
    221  NH2       78.8660   -0.1900   18.5820 N.pl3 288  ARG288      0.1354
    222  N         72.7620    1.7930   12.5090 N.3   290  HIS290     -0.1241
    223  CA        72.9270    0.5590   11.7510 C.3   290  HIS290      0.1621
    224  C         71.7670    0.3480   10.7850 C.2   290  HIS290      0.2264
    225  O         70.6100    0.5250   11.1540 O.2   290  HIS290     -0.2867
    226  CB        73.0350   -0.6440   12.6910 C.3   290  HIS290      0.0745
    227  CG        73.9790   -0.4390   13.8330 C.ar  290  HIS290      0.0817
    228  ND1       75.3400   -0.6230   13.7170 N.ar  290  HIS290     -0.2268
    229  CD2       73.7580   -0.0710   15.1170 C.ar  290  HIS290      0.1154
    230  CE1       75.9170   -0.3750   14.8790 C.ar  290  HIS290      0.1986
    231  NE2       74.9790   -0.0380   15.7460 N.ar  290  HIS290     -0.2212
    232  N         80.0490   -2.6070   28.2140 N.3   324  TYR324     -0.1241
    233  CA        81.4510   -2.2060   28.1290 C.3   324  TYR324      0.1605
    234  C         82.0550   -1.9130   29.4990 C.2   324  TYR324      0.2264
    235  O         81.4800   -1.1640   30.2880 O.2   324  TYR324     -0.2867
    236  CB        81.6040   -0.9690   27.2410 C.3   324  TYR324      0.0534
    237  CG        81.1500   -1.1550   25.8130 C.ar  324  TYR324     -0.0201
    238  CD1       79.8370   -0.8950   25.4420 C.ar  324  TYR324     -0.0009
    239  CD2       82.0370   -1.5780   24.8310 C.ar  324  TYR324     -0.0009
    240  CE1       79.4180   -1.0590   24.1360 C.ar  324  TYR324      0.0417
    241  CE2       81.6270   -1.7450   23.5230 C.ar  324  TYR324      0.0417
    242  CZ        80.3170   -1.4830   23.1810 C.ar  324  TYR324      0.1957
    243  OH        79.9040   -1.6480   21.8780 O.3   324  TYR324     -0.2866
    244  N         83.3870  -11.7490   29.0240 N.3   356  ARG356     -0.1245
    245  CA        83.5440  -10.3030   29.1400 C.3   356  ARG356      0.1563
    246  C         83.1110   -9.7990   30.5160 C.2   356  ARG356      0.2260
    247  O         83.7770   -8.9550   31.1160 O.2   356  ARG356     -0.2867
    248  CB        82.7450   -9.5910   28.0430 C.3   356  ARG356      0.0307
    249  CG        82.6360   -8.0850   28.2320 C.3   356  ARG356      0.0489
    250  CD        81.9080   -7.4120   27.0770 C.3   356  ARG356      0.2205
    251  NE        82.7600   -7.2410   25.9030 N.pl3 356  ARG356     -0.0865
    252  CZ        82.4530   -6.4670   24.8660 C.cat 356  ARG356      0.5346
    253  NH1       81.3150   -5.7870   24.8600 N.pl3 356  ARG356      0.1354
    254  NH2       83.2860   -6.3660   23.8380 N.pl3 356  ARG356      0.1354
    255  N         87.4640   -6.1650   27.8460 N.3   362  TYR362     -0.1241
    256  CA        86.9310   -5.8160   26.5350 C.3   362  TYR362      0.1605
    257  C         87.1140   -6.9810   25.5640 C.2   362  TYR362      0.2264
    258  O         88.1330   -7.0660   24.8790 O.2   362  TYR362     -0.2867
    259  CB        87.6340   -4.5610   26.0100 C.3   362  TYR362      0.0534
    260  CG        86.8100   -3.6840   25.0910 C.ar  362  TYR362     -0.0201
    261  CD1       85.7800   -4.2090   24.3210 C.ar  362  TYR362     -0.0009
    262  CD2       87.0710   -2.3230   24.9950 C.ar  362  TYR362     -0.0009
    263  CE1       85.0340   -3.3990   23.4800 C.ar  362  TYR362      0.0417
    264  CE2       86.3330   -1.5080   24.1620 C.ar  362  TYR362      0.0417
    265  CZ        85.3170   -2.0490   23.4060 C.ar  362  TYR362      0.1957
    266  OH        84.5830   -1.2340   22.5760 O.3   362  TYR362     -0.2866
    267  N         85.8690   -9.4480   22.3320 N.3   364  ASP364     -0.1239
    268  CA        85.0770   -9.6970   21.1350 C.3   364  ASP364      0.1674
    269  C         84.6280  -11.1520   21.1210 C.2   364  ASP364      0.2266
    270  O         85.0110  -11.9310   21.9940 O.2   364  ASP364     -0.2867
    271  CB        85.8780   -9.3720   19.8710 C.3   364  ASP364      0.1410
    272  CG        86.1710   -7.8910   19.7290 C.2   364  ASP364      0.3668
    273  OD1       85.2910   -7.0740   20.0750 O.co2 364  ASP364     -0.2456
    274  OD2       87.2790   -7.5430   19.2710 O.co2 364  ASP364     -0.2456
@<TRIPOS>BOND
     1    51    52    1
     2    34    35    1
     3    36    37    2
     4    36    35    1
     5    54    53    2
     6    35    38    1
     7    47    46    2
     8    44    45    1
     9    52    53    1
    10    52    55    1
    11    46    45    1
    12   165   166    1
    13    45    48    1
    14   180   179    2
    15   188   189    1
    16    55    56    1
    17    38    39    1
    18   191   190    2
    19    40    39   ar
    20    40    42   ar
    21   166   169    1
    22   166   167    1
    23   190   189    1
    24    39    41   ar
    25   179   178    1
    26    80    78   ar
    27    80    79   ar
    28   189   192    1
    29   177   167   am
    30   177   178    1
    31    48    50    1
    32    48    49    1
    33   169   170    1
    34    42    43   ar
    35    56    57   ar
    36    56    58   ar
    37    78    76   ar
    38   167   168    2
    39    79    77   ar
    40    57    59   ar
    41   178   181    1
    42    41    43   ar
    43   192   194    1
    44   192   193    1
    45   224   225    2
    46   224   223    1
    47   181   182    1
    48    22    21    1
    49   184   182   ar
    50   184   186   ar
    51    58    60   ar
    52   170   171   ar
    53   170   172   ar
    54   171   173   ar
    55    76    75   ar
    56   195   196    1
    57    77    75   ar
    58   182   183   ar
    59   223   222    1
    60   223   226    1
    61    59    61   ar
    62   198   197    2
    63    21    20    1
    64    21    23    1
    65   186   187   ar
    66    75    74    1
    67    28    25    1
    68    28    29    1
    69   173   175   ar
    70    60    61   ar
    71   172   174   ar
    72    20    17    1
    73    25    24    1
    74    25    26    1
    75   226   227    1
    76   196   197    1
    77   196   199    1
    78   183   185   ar
    79   209   208    2
    80   199   200    1
    81   187   185   ar
    82    17    18    1
    83    17    16    1
    84    29    31   ar
    85    29    30   ar
    86    26    27    2
    87   201   200    2
    88    74    71    1
    89   200   202   am
    90   175   174   ar
    91   175   176    1
    92    18    19    2
    93   228   227   ar
    94   228   230   ar
    95     9     8    2
    96   227   229   ar
    97    31    33   ar
    98   208   210   am
    99   208   207    1
   100    30    32   ar
   101   159   160    2
   102   159   158    1
   103    16     8   am
   104     8     7    1
   105     5     2    1
   106    71    70    1
   107    71    72    1
   108   203   204    1
   109   207   204    1
   110   164   162    1
   111   213   212    1
   112   213   214    2
   113   230   231   ar
   114   161   158    1
   115   161   162    1
   116   158   157    1
   117    33    32   ar
   118   229   231   ar
   119   215   212    1
   120   215   216    1
   121   212   211    1
   122   162   163    1
   123   204   205    1
   124     6     7    1
   125     6     3   am
   126     2     3    1
   127     2     1    1
   128   149   148    2
   129    72    73    2
   130    72    81   am
   131     7    10    1
   132     3     4    2
   133   216   217    1
   134   217   218    1
   135   205   206    2
   136   157   148   am
   137   148   147    1
   138    10    11    1
   139    81    82    1
   140    97    95   ar
   141    97    98   ar
   142    87    85    1
   143   220   219    1
   144   218   219    2
   145    95    93   ar
   146   219   221    1
   147    99    98    1
   148    98    96   ar
   149   141   140    2
   150    82    85    1
   151    82    83    1
   152   147   146    1
   153   147   150    1
   154    11    12   ar
   155    11    13   ar
   156    93    92    1
   157    93    94   ar
   158    85    86    1
   159   145   143    1
   160    92    89    1
   161    12    14   ar
   162    96    94   ar
   163   150   151    1
   164    13    15   ar
   165   274   272   ar
   166   140   139    1
   167    83    84    2
   168    88    89    1
   169    89    90    1
   170   272   271    1
   171   272   273   ar
   172   156   154    1
   173   271   268    1
   174   143   142    1
   175   144   142    1
   176    14    15   ar
   177   151   152    1
   178   139   142    1
   179   139   138    1
   180   153   154    2
   181   153   152    1
   182   154   155    1
   183    90   100   am
   184    90    91    2
   185   133   132    2
   186   269   268    1
   187   269   270    2
   188   268   267    1
   189   100   101    1
   190   138   132   am
   191   105   104    1
   192   243   242    1
   193   132   131    1
   194   266   265    1
   195   101   104    1
   196   101   102    1
   197   104   106    1
   198    65    64    2
   199   114   113    2
   200   242   241   ar
   201   242   240   ar
   202    69    67    1
   203   111   112    1
   204   111   108    1
   205   131   130    1
   206   131   134    1
   207   265   263   ar
   208   265   264   ar
   209   263   261   ar
   210   241   239   ar
   211   113   112    1
   212   113   115   am
   213   254   252    1
   214   102   103    2
   215   107   108    1
   216    67    68    1
   217    67    66    1
   218   240   238   ar
   219   264   262   ar
   220   134   135    1
   221   108   109    1
   222    64    63    1
   223   261   260   ar
   224   124   122   ar
   225   124   125   ar
   226   239   237   ar
   227   253   252    1
   228   252   251    2
   229   258   257    2
   230   262   260   ar
   231    63    66    1
   232    63    62    1
   233   260   259    1
   234   122   121   ar
   235   238   237   ar
   236   135   136    2
   237   135   137   am
   238   127   125   ar
   239   127   129   ar
   240   257   256    1
   241   109   116   am
   242   109   110    2
   243   125   123   ar
   244   237   236    1
   245   251   250    1
   246   259   256    1
   247   116   117    1
   248   256   255    1
   249   129   128   ar
   250   121   123   ar
   251   121   120    1
   252   123   126   ar
   253   250   249    1
   254   236   233    1
   255   120   117    1
   256   117   118    1
   257   128   126   ar
   258   248   249    1
   259   248   245    1
   260   233   232    1
   261   233   234    1
   262   118   119    2
   263   244   245    1
   264   245   246    1
   265   234   235    2
   266   246   247    2
