@<TRIPOS>MOLECULE
tmp/4rpmA01.pdb
 140 133 0 0 0
SMALL
GASTEIGER

@<TRIPOS>ATOM
      1  N         27.3830   31.8920   23.7350 N.3    20  PRO20      -0.2102
      2  CA        27.3670   32.5680   22.4390 C.3    20  PRO20       0.1504
      3  C         28.6910   33.3030   22.1990 C.2    20  PRO20       0.2576
      4  O         29.5520   33.3280   23.0890 O.2    20  PRO20      -0.2718
      5  CB        26.2490   33.5960   22.6260 C.3    20  PRO20       0.0282
      6  CG        26.3660   33.9790   24.0710 C.3    20  PRO20       0.0208
      7  CD        26.7960   32.7220   24.8060 C.3    20  PRO20       0.0893
      8  N         28.8400   33.9080   21.0160 N.am   21  HIS21      -0.1962
      9  CA        29.8540   34.9530   20.7950 C.3    21  HIS21       0.1787
     10  C         29.3220   36.2880   21.2920 C.2    21  HIS21       0.2620
     11  O         28.1290   36.5690   21.1710 O.2    21  HIS21      -0.2715
     12  CB        30.1590   35.1550   19.3050 C.3    21  HIS21       0.0785
     13  CG        30.6290   33.9250   18.5880 C.ar   21  HIS21       0.0821
     14  ND1       31.1910   33.9780   17.3270 N.ar   21  HIS21      -0.2267
     15  CD2       30.6020   32.6140   18.9300 C.ar   21  HIS21       0.1154
     16  CE1       31.4990   32.7560   16.9320 C.ar   21  HIS21       0.1986
     17  NE2       31.1550   31.9090   17.8880 N.ar   21  HIS21      -0.2212
     18  N         30.2060   37.1150   21.8320 N.am   22  VAL22      -0.1977
     19  CA        29.8440   38.4770   22.2140 C.3    22  VAL22       0.1596
     20  C         30.9750   39.4090   21.8250 C.2    22  VAL22       0.2287
     21  O         30.8120   40.2650   20.9590 O.2    22  VAL22      -0.2864
     22  CB        29.5620   38.5880   23.7310 C.3    22  VAL22       0.0276
     23  CG1       29.1580   40.0110   24.1020 C.3    22  VAL22       0.0022
     24  CG2       28.4840   37.5850   24.1540 C.3    22  VAL22       0.0022
     25  N         23.5130   28.4750   23.2290 N.3   152  PHE152     -0.1227
     26  CA        23.0280   29.8520   23.1550 C.3   152  PHE152      0.1736
     27  C         23.6400   30.4210   21.8660 C.2   152  PHE152      0.2595
     28  O         24.8510   30.5580   21.7900 O.2   152  PHE152     -0.2718
     29  CB        23.5920   30.5480   24.3970 C.3   152  PHE152      0.0547
     30  CG        23.1840   31.9980   24.5900 C.ar  152  PHE152     -0.0202
     31  CD1       22.5220   32.7300   23.6130 C.ar  152  PHE152     -0.0042
     32  CD2       23.5070   32.6280   25.7820 C.ar  152  PHE152     -0.0042
     33  CE1       22.1940   34.0680   23.8400 C.ar  152  PHE152     -0.0003
     34  CE2       23.1810   33.9570   26.0040 C.ar  152  PHE152     -0.0003
     35  CZ        22.5230   34.6710   25.0300 C.ar  152  PHE152     -0.0000
     36  N         22.8180   30.7130   20.8460 N.am  153  CYS153     -0.1970
     37  CA        23.3200   31.2300   19.5670 C.3   153  CYS153      0.1712
     38  C         24.3590   30.2540   18.9830 C.2   153  CYS153      0.2296
     39  O         24.0320   29.0760   18.7520 O.2   153  CYS153     -0.2864
     40  CB        23.8480   32.6690   19.7340 C.3   153  CYS153      0.0983
     41  SG        24.2050   33.6140   18.2170 S.3   153  CYS153     -0.0798
     42  N         25.9670   45.8790   17.3950 N.3   204  SER204     -0.1217
     43  CA        24.9840   45.4260   18.3660 C.3   204  SER204      0.1889
     44  C         25.2340   46.0260   19.7300 C.2   204  SER204      0.2288
     45  O         26.3670   46.3850   20.0730 O.2   204  SER204     -0.2866
     46  CB        24.9760   43.9050   18.4770 C.3   204  SER204      0.2089
     47  OG        24.5030   43.3330   17.2670 O.3   204  SER204     -0.2183
     48  N         24.1180   45.6890   23.9780 N.3   206  ALA206     -0.1245
     49  CA        23.4580   45.1150   25.1410 C.3   206  ALA206      0.1562
     50  C         22.6930   46.2350   25.8240 C.2   206  ALA206      0.2260
     51  O         23.2830   47.2480   26.2020 O.2   206  ALA206     -0.2867
     52  CB        24.4820   44.5300   26.0760 C.3   206  ALA206      0.0290
     53  N         17.7960   41.0530   18.4820 N.3   232  ALA232     -0.1231
     54  CA        18.4470   39.7860   18.1580 C.3   232  ALA232      0.1694
     55  C         18.2640   38.7680   19.2730 C.2   232  ALA232      0.2591
     56  O         17.9790   37.6040   19.0150 O.2   232  ALA232     -0.2718
     57  CB        19.9310   40.0190   17.8920 C.3   232  ALA232      0.0304
     58  N         18.4320   39.2170   20.5120 N.am  233  VAL233     -0.1980
     59  CA        18.3960   38.3260   21.6700 C.3   233  VAL233      0.1595
     60  C         17.5620   38.9270   22.7940 C.2   233  VAL233      0.2287
     61  O         17.7190   40.1010   23.1560 O.2   233  VAL233     -0.2864
     62  CB        19.8110   38.0880   22.2430 C.3   233  VAL233      0.0276
     63  CG1       19.7630   37.1170   23.4510 C.3   233  VAL233      0.0022
     64  CG2       20.7520   37.5730   21.1780 C.3   233  VAL233      0.0022
     65  N         17.5110   38.5300   26.4740 N.3   235  TYR235     -0.1241
     66  CA        18.5470   37.9390   27.3180 C.3   235  TYR235      0.1605
     67  C         18.0970   37.7050   28.7670 C.2   235  TYR235      0.2264
     68  O         18.3870   36.6650   29.3610 O.2   235  TYR235     -0.2867
     69  CB        19.8290   38.7960   27.2940 C.3   235  TYR235      0.0534
     70  CG        20.9090   38.2480   28.1990 C.ar  235  TYR235     -0.0201
     71  CD1       21.4420   36.9860   27.9880 C.ar  235  TYR235     -0.0009
     72  CD2       21.3770   38.9730   29.2910 C.ar  235  TYR235     -0.0009
     73  CE1       22.4140   36.4620   28.8190 C.ar  235  TYR235      0.0417
     74  CE2       22.3600   38.4530   30.1330 C.ar  235  TYR235      0.0417
     75  CZ        22.8730   37.1940   29.8880 C.ar  235  TYR235      0.1957
     76  OH        23.8420   36.6500   30.7090 O.3   235  TYR235     -0.2866
     77  N         18.1870   42.8960   26.7080 N.3   240  ALA240     -0.1231
     78  CA        18.1410   42.3770   25.3500 C.3   240  ALA240      0.1694
     79  C         19.3690   42.8200   24.5880 C.2   240  ALA240      0.2592
     80  O         20.0620   43.7410   25.0090 O.2   240  ALA240     -0.2718
     81  CB        16.8950   42.8750   24.6350 C.3   240  ALA240      0.0304
     82  N         19.6090   42.1860   23.4460 N.am  241  THR241     -0.1953
     83  CA        20.6260   42.6560   22.5090 C.3   241  THR241      0.1897
     84  C         19.9470   43.1200   21.2440 C.2   241  THR241      0.2313
     85  O         19.1650   42.3850   20.6290 O.2   241  THR241     -0.2863
     86  CB        21.6430   41.5400   22.1800 C.3   241  THR241      0.1794
     87  OG1       22.2930   41.1400   23.3920 O.3   241  THR241     -0.2208
     88  CG2       22.7020   42.0160   21.1930 C.3   241  THR241      0.0378
     89  N         20.4290   44.9430   17.3880 N.3   243  THR243     -0.1218
     90  CA        21.3590   45.1060   16.2850 C.3   243  THR243      0.1862
     91  C         20.8110   46.1710   15.3630 C.2   243  THR243      0.2287
     92  O         19.6070   46.2430   15.1410 O.2   243  THR243     -0.2866
     93  CB        21.4720   43.7780   15.5250 C.3   243  THR243      0.1770
     94  OG1       21.9970   42.7900   16.4210 O.3   243  THR243     -0.2211
     95  CG2       22.4050   43.8950   14.3340 C.3   243  THR243      0.0375
     96  N         28.4500   45.8550   22.1980 N.3   266  ILE266     -0.1245
     97  CA        29.1920   44.6060   22.2350 C.3   266  ILE266      0.1561
     98  C         30.0330   44.4860   20.9640 C.2   266  ILE266      0.2260
     99  O         29.8760   45.2680   20.0190 O.2   266  ILE266     -0.2867
    100  CB        28.2820   43.3830   22.4310 C.3   266  ILE266      0.0252
    101  CG1       27.3010   43.2310   21.2670 C.3   266  ILE266      0.0019
    102  CG2       27.5510   43.4810   23.7750 C.3   266  ILE266      0.0019
    103  CD1       26.6050   41.8570   21.2460 C.3   266  ILE266      0.0001
    104  N         30.7200   41.8790   18.5940 N.3   268  ILE268     -0.1245
    105  CA        30.4210   41.1530   17.3660 C.3   268  ILE268      0.1561
    106  C         29.7810   42.0250   16.2870 C.2   268  ILE268      0.2260
    107  O         28.8390   42.7780   16.5460 O.2   268  ILE268     -0.2867
    108  CB        29.5540   39.9160   17.6420 C.3   268  ILE268      0.0252
    109  CG1       29.4440   39.0630   16.3790 C.3   268  ILE268      0.0019
    110  CG2       28.1680   40.3230   18.1620 C.3   268  ILE268      0.0019
    111  CD1       29.0230   37.6460   16.6530 C.3   268  ILE268      0.0001
    112  N         22.9590   38.8040   13.2470 N.3   272  ILE272     -0.1231
    113  CA        22.6760   37.4320   13.6250 C.3   272  ILE272      0.1692
    114  C         21.2230   37.3800   14.0910 C.2   272  ILE272      0.2592
    115  O         20.6640   38.4040   14.4920 O.2   272  ILE272     -0.2718
    116  CB        23.6710   36.9370   14.6990 C.3   272  ILE272      0.0266
    117  CG1       25.1150   37.1470   14.2140 C.3   272  ILE272      0.0019
    118  CG2       23.4650   35.4600   14.9860 C.3   272  ILE272      0.0020
    119  CD1       25.6800   38.5140   14.5310 C.3   272  ILE272      0.0001
    120  N         20.5960   36.2100   14.0090 N.am  273  HIS273     -0.1976
    121  CA        19.1860   36.0920   14.3700 C.3   273  HIS273      0.1656
    122  C         18.3700   37.1300   13.5980 C.2   273  HIS273      0.2291
    123  O         17.5070   37.8190   14.1540 O.2   273  HIS273     -0.2864
    124  CB        18.9930   36.2650   15.8890 C.3   273  HIS273      0.0771
    125  CG        19.7890   35.2950   16.7110 C.ar  273  HIS273      0.0820
    126  ND1       19.5640   33.9370   16.6810 N.ar  273  HIS273     -0.2267
    127  CD2       20.8020   35.4890   17.5880 C.ar  273  HIS273      0.1154
    128  CE1       20.4050   33.3330   17.5050 C.ar  273  HIS273      0.1986
    129  NE2       21.1700   34.2510   18.0600 N.ar  273  HIS273     -0.2212
    130  N         29.9360   34.9770   29.7220 N.3   360  ARG360     -0.1245
    131  CA        29.0390   34.5740   30.8020 C.3   360  ARG360      0.1563
    132  C         27.6070   34.6190   30.2810 C.2   360  ARG360      0.2260
    133  O         27.1990   35.5800   29.6330 O.2   360  ARG360     -0.2867
    134  CB        29.2660   35.4220   32.0620 C.3   360  ARG360      0.0307
    135  CG        30.6260   35.1340   32.6870 C.3   360  ARG360      0.0489
    136  CD        30.9340   35.9700   33.9040 C.3   360  ARG360      0.2205
    137  NE        32.3720   35.9570   34.1410 N.pl3 360  ARG360     -0.0865
    138  CZ        32.9980   35.0290   34.8560 C.cat 360  ARG360      0.5346
    139  NH1       32.3040   34.0520   35.4240 N.pl3 360  ARG360      0.1354
    140  NH2       34.3140   35.0870   35.0120 N.pl3 360  ARG360      0.1354
@<TRIPOS>BOND
     1   112   113    1
     2   122   123    2
     3   122   121    1
     4   113   114    1
     5   113   116    1
     6   120   114   am
     7   120   121    1
     8   114   115    2
     9   117   119    1
    10   117   116    1
    11    95    93    1
    12   121   124    1
    13   116   118    1
    14    92    91    2
    15    91    90    1
    16    93    90    1
    17    93    94    1
    18   124   125    1
    19    90    89    1
    20   106   107    2
    21   106   105    1
    22   109   111    1
    23   109   108    1
    24   126   125   ar
    25   126   128   ar
    26   125   127   ar
    27    16    14   ar
    28    16    17   ar
    29    47    46    1
    30    14    13   ar
    31   105   108    1
    32   105   104    1
    33    42    43    1
    34   128   129   ar
    35   127   129   ar
    36   108   110    1
    37    17    15   ar
    38    57    54    1
    39    54    53    1
    40    54    55    1
    41    41    40    1
    42    43    46    1
    43    43    44    1
    44    13    15   ar
    45    13    12    1
    46    39    38    2
    47    38    37    1
    48    56    55    2
    49    55    58   am
    50    12     9    1
    51    37    40    1
    52    37    36    1
    53    44    45    2
    54    99    98    2
    55    58    59    1
    56    85    84    2
    57     9     8    1
    58     9    10    1
    59    36    27   am
    60    21    20    2
    61    98    97    1
    62     8     3   am
    63    11    10    2
    64    64    62    1
    65    88    86    1
    66    84    83    1
    67   103   101    1
    68   101   100    1
    69    10    18   am
    70    59    62    1
    71    59    60    1
    72    28    27    2
    73    20    19    1
    74    18    19    1
    75    27    26    1
    76    86    83    1
    77    86    87    1
    78    96    97    1
    79     3     2    1
    80     3     4    2
    81    19    22    1
    82    97   100    1
    83    62    63    1
    84   100   102    1
    85     2     5    1
    86     2     1    1
    87    83    82    1
    88     5     6    1
    89    60    61    2
    90    26    25    1
    91    26    29    1
    92    82    79   am
    93    31    33   ar
    94    31    30   ar
    95    22    23    1
    96    22    24    1
    97     1     7    1
    98    33    35   ar
    99    48    49    1
   100     6     7    1
   101    29    30    1
   102    79    80    2
   103    79    78    1
   104    30    32   ar
   105    81    78    1
   106    35    34   ar
   107    49    50    1
   108    49    52    1
   109    78    77    1
   110    32    34   ar
   111    50    51    2
   112    65    66    1
   113    69    66    1
   114    69    70    1
   115    66    67    1
   116    71    70   ar
   117    71    73   ar
   118    70    72   ar
   119    67    68    2
   120    73    75   ar
   121    72    74   ar
   122   133   132    2
   123   130   131    1
   124    75    74   ar
   125    75    76    1
   126   132   131    1
   127   131   134    1
   128   134   135    1
   129   135   136    1
   130   136   137    1
   131   137   138    2
   132   138   140    1
   133   138   139    1
