@<TRIPOS>MOLECULE
tmp/4rpmA00.pdb
 92 83 0 0 0
SMALL
GASTEIGER

@<TRIPOS>ATOM
      1  N         27.3830   31.8920   23.7350 N.3    20  PRO20      -0.2102
      2  CA        27.3670   32.5680   22.4390 C.3    20  PRO20       0.1504
      3  C         28.6910   33.3030   22.1990 C.2    20  PRO20       0.2575
      4  O         29.5520   33.3280   23.0890 O.2    20  PRO20      -0.2718
      5  CB        26.2490   33.5960   22.6260 C.3    20  PRO20       0.0282
      6  CG        26.3660   33.9790   24.0710 C.3    20  PRO20       0.0208
      7  CD        26.7960   32.7220   24.8060 C.3    20  PRO20       0.0893
      8  N         28.8400   33.9080   21.0160 N.am   21  HIS21      -0.1976
      9  CA        29.8540   34.9530   20.7950 C.3    21  HIS21       0.1656
     10  C         29.3220   36.2880   21.2920 C.2    21  HIS21       0.2291
     11  O         28.1290   36.5690   21.1710 O.2    21  HIS21      -0.2864
     12  CB        30.1590   35.1550   19.3050 C.3    21  HIS21       0.0771
     13  CG        30.6290   33.9250   18.5880 C.ar   21  HIS21       0.0820
     14  ND1       31.1910   33.9780   17.3270 N.ar   21  HIS21      -0.2267
     15  CD2       30.6020   32.6140   18.9300 C.ar   21  HIS21       0.1154
     16  CE1       31.4990   32.7560   16.9320 C.ar   21  HIS21       0.1986
     17  NE2       31.1550   31.9090   17.8880 N.ar   21  HIS21      -0.2212
     18  N         33.6950   36.1910   11.2150 N.3    99  SER99      -0.1217
     19  CA        32.9450   35.0620   11.7630 C.3    99  SER99       0.1889
     20  C         33.1890   33.7410   11.0290 C.2    99  SER99       0.2288
     21  O         32.9850   32.6720   11.6040 O.2    99  SER99      -0.2866
     22  CB        31.4450   35.3610   11.8340 C.3    99  SER99       0.2089
     23  OG        31.1600   36.3180   12.8580 O.3    99  SER99      -0.2183
     24  N         33.7070   31.4740   14.1670 N.3   103  GLY103     -0.1225
     25  CA        32.7250   30.4270   14.4080 C.3   103  GLY103      0.1811
     26  C         33.4110   29.0830   14.6160 C.2   103  GLY103      0.2280
     27  O         33.2410   28.4460   15.6500 O.2   103  GLY103     -0.2866
     28  N         22.8180   30.7130   20.8460 N.3   153  CYS153     -0.1221
     29  CA        23.3200   31.2300   19.5670 C.3   153  CYS153      0.1808
     30  C         24.3590   30.2540   18.9830 C.2   153  CYS153      0.2601
     31  O         24.0320   29.0760   18.7520 O.2   153  CYS153     -0.2717
     32  CB        23.8480   32.6690   19.7340 C.3   153  CYS153      0.0970
     33  SG        24.2050   33.6140   18.2170 S.3   153  CYS153     -0.0800
     34  N         25.5950   30.6940   18.7840 N.am  154  ALA154     -0.1979
     35  CA        26.6330   29.8290   18.2150 C.3   154  ALA154      0.1597
     36  C         26.8780   28.5920   19.0800 C.2   154  ALA154      0.2287
     37  O         27.3620   27.5820   18.5930 O.2   154  ALA154     -0.2864
     38  CB        27.9410   30.6070   18.0220 C.3   154  ALA154      0.0319
     39  N         25.8570   25.0710   18.0260 N.3   157  LEU157     -0.1245
     40  CA        26.6600   24.2360   17.1440 C.3   157  LEU157      0.1561
     41  C         27.3850   23.1700   17.9730 C.2   157  LEU157      0.2260
     42  O         27.3590   21.9800   17.6490 O.2   157  LEU157     -0.2867
     43  CB        27.6500   25.1000   16.3610 C.3   157  LEU157      0.0270
     44  CG        26.9890   26.0090   15.3210 C.3   157  LEU157      0.0019
     45  CD1       27.8230   27.2570   15.1360 C.3   157  LEU157      0.0001
     46  CD2       26.8380   25.2660   13.9960 C.3   157  LEU157      0.0001
     47  N         29.5970   26.0460   11.4370 N.3   182  ALA182     -0.1245
     48  CA        29.9930   27.3290   11.9920 C.3   182  ALA182      0.1562
     49  C         30.6730   28.1790   10.9370 C.2   182  ALA182      0.2260
     50  O         30.4260   29.3800   10.8450 O.2   182  ALA182     -0.2867
     51  CB        30.9370   27.1180   13.1650 C.3   182  ALA182      0.0290
     52  N         27.7840   29.3310    8.4240 N.3   183  ALA183     -0.1231
     53  CA        26.9870   30.3900    9.0310 C.3   183  ALA183      0.1694
     54  C         27.7990   31.6750    9.1310 C.2   183  ALA183      0.2592
     55  O         27.3010   32.7560    8.8000 O.2   183  ALA183     -0.2718
     56  CB        26.5010   29.9550   10.4200 C.3   183  ALA183      0.0304
     57  N         29.0460   31.5610    9.5750 N.am  184  GLY184     -0.1957
     58  CA        29.9380   32.7030    9.6530 C.3   184  GLY184      0.1869
     59  C         30.0990   33.3870    8.3030 C.2   184  GLY184      0.2309
     60  O         30.1530   34.6150    8.2200 O.2   184  GLY184     -0.2863
     61  N         27.0770   35.5480    7.5270 N.3   187  ILE187     -0.1245
     62  CA        27.1210   36.7680    8.3250 C.3   187  ILE187      0.1561
     63  C         28.1670   37.7300    7.7500 C.2   187  ILE187      0.2260
     64  O         27.8830   38.9110    7.5420 O.2   187  ILE187     -0.2867
     65  CB        27.4210   36.4420    9.8090 C.3   187  ILE187      0.0252
     66  CG1       26.2620   35.6380   10.4150 C.3   187  ILE187      0.0019
     67  CG2       27.6750   37.7270   10.6190 C.3   187  ILE187      0.0019
     68  CD1       26.6620   34.7490   11.6090 C.3   187  ILE187      0.0001
     69  N         30.7200   41.8790   18.5940 N.3   268  ILE268     -0.1245
     70  CA        30.4210   41.1530   17.3660 C.3   268  ILE268      0.1561
     71  C         29.7810   42.0250   16.2870 C.2   268  ILE268      0.2260
     72  O         28.8390   42.7780   16.5460 O.2   268  ILE268     -0.2867
     73  CB        29.5540   39.9160   17.6420 C.3   268  ILE268      0.0252
     74  CG1       29.4440   39.0630   16.3790 C.3   268  ILE268      0.0019
     75  CG2       28.1680   40.3230   18.1620 C.3   268  ILE268      0.0019
     76  CD1       29.0230   37.6460   16.6530 C.3   268  ILE268      0.0001
     77  N         22.9590   38.8040   13.2470 N.3   272  ILE272     -0.1245
     78  CA        22.6760   37.4320   13.6250 C.3   272  ILE272      0.1561
     79  C         21.2230   37.3800   14.0910 C.2   272  ILE272      0.2260
     80  O         20.6640   38.4040   14.4920 O.2   272  ILE272     -0.2867
     81  CB        23.6710   36.9370   14.6990 C.3   272  ILE272      0.0252
     82  CG1       25.1150   37.1470   14.2140 C.3   272  ILE272      0.0019
     83  CG2       23.4650   35.4600   14.9860 C.3   272  ILE272      0.0019
     84  CD1       25.6800   38.5140   14.5310 C.3   272  ILE272      0.0001
     85  N         20.3070   30.1010   14.4600 N.3   331  ILE331     -0.1245
     86  CA        21.3650   31.0880   14.5540 C.3   331  ILE331      0.1561
     87  C         21.1830   32.2220   13.5320 C.2   331  ILE331      0.2260
     88  O         21.3120   33.4050   13.8530 O.2   331  ILE331     -0.2867
     89  CB        22.7380   30.4320   14.3230 C.3   331  ILE331      0.0252
     90  CG1       23.0610   29.4620   15.4630 C.3   331  ILE331      0.0019
     91  CG2       23.8240   31.4910   14.1740 C.3   331  ILE331      0.0019
     92  CD1       24.2680   28.6190   15.1900 C.3   331  ILE331      0.0001
@<TRIPOS>BOND
     1    61    62    1
     2    64    63    2
     3    63    62    1
     4    60    59    2
     5    59    58    1
     6    62    65    1
     7    52    53    1
     8    55    54    2
     9    53    54    1
    10    53    56    1
    11    54    57   am
    12    57    58    1
    13    65    66    1
    14    65    67    1
    15    66    68    1
    16    50    49    2
    17    49    48    1
    18    20    21    2
    19    20    19    1
    20    18    19    1
    21    47    48    1
    22    19    22    1
    23    22    23    1
    24    48    51    1
    25    77    78    1
    26    87    88    2
    27    87    86    1
    28    78    79    1
    29    78    81    1
    30    46    44    1
    31    79    80    2
    32    24    25    1
    33    91    89    1
    34    82    84    1
    35    82    81    1
    36    89    86    1
    37    89    90    1
    38    25    26    1
    39    85    86    1
    40    26    27    2
    41    81    83    1
    42    45    44    1
    43    92    90    1
    44    44    43    1
    45    71    72    2
    46    71    70    1
    47    43    40    1
    48    74    76    1
    49    74    73    1
    50    16    14   ar
    51    16    17   ar
    52    40    41    1
    53    40    39    1
    54    14    13   ar
    55    70    73    1
    56    70    69    1
    57    73    75    1
    58    42    41    2
    59    17    15   ar
    60    38    35    1
    61    35    34    1
    62    35    36    1
    63    33    32    1
    64    13    15   ar
    65    13    12    1
    66    37    36    2
    67    31    30    2
    68    34    30   am
    69    30    29    1
    70    12     9    1
    71    29    32    1
    72    29    28    1
    73     9     8    1
    74     9    10    1
    75     8     3   am
    76    11    10    2
    77     3     2    1
    78     3     4    2
    79     2     5    1
    80     2     1    1
    81     5     6    1
    82     1     7    1
    83     6     7    1
