@<TRIPOS>MOLECULE
tmp/4rpnD01.pdb
 90 88 0 0 0
SMALL
GASTEIGER

@<TRIPOS>ATOM
      1  N         49.1790   51.2170  107.9720 N.3    18  PHE18      -0.1241
      2  CA        48.4040   51.5400  106.7760 C.3    18  PHE18       0.1605
      3  C         47.2010   50.6070  106.6040 C.2    18  PHE18       0.2264
      4  O         46.0810   51.0700  106.4570 O.2    18  PHE18      -0.2867
      5  CB        49.3090   51.4860  105.5330 C.3    18  PHE18       0.0534
      6  CG        48.5770   51.6020  104.2400 C.ar   18  PHE18      -0.0203
      7  CD1       47.5490   52.5130  104.0870 C.ar   18  PHE18      -0.0042
      8  CD2       48.9380   50.8180  103.1560 C.ar   18  PHE18      -0.0042
      9  CE1       46.8790   52.6240  102.8960 C.ar   18  PHE18      -0.0003
     10  CE2       48.2860   50.9360  101.9660 C.ar   18  PHE18      -0.0003
     11  CZ        47.2460   51.8370  101.8310 C.ar   18  PHE18      -0.0000
     12  N         44.4540   51.2850  109.1070 N.3    21  ALA21      -0.1231
     13  CA        43.6680   52.4590  108.7480 C.3    21  ALA21       0.1694
     14  C         42.6960   52.1800  107.5900 C.2    21  ALA21       0.2591
     15  O         41.6040   52.7050  107.5840 O.2    21  ALA21      -0.2718
     16  CB        44.5840   53.6200  108.4120 C.3    21  ALA21       0.0304
     17  N         43.0910   51.3260  106.6460 N.am   22  LEU22      -0.1980
     18  CA        42.2160   50.9060  105.5480 C.3    22  LEU22       0.1596
     19  C         41.0540   50.0760  106.0340 C.2    22  LEU22       0.2287
     20  O         39.9270   50.2240  105.5750 O.2    22  LEU22      -0.2864
     21  CB        42.9700   50.0750  104.5170 C.3    22  LEU22       0.0297
     22  CG        43.8710   50.7540  103.5210 C.3    22  LEU22       0.0022
     23  CD1       44.8570   49.7190  102.9990 C.3    22  LEU22       0.0001
     24  CD2       43.0450   51.3350  102.3940 C.3    22  LEU22       0.0001
     25  N         38.0800   51.3430  109.6820 N.3    25  PRO25      -0.2102
     26  CA        36.9680   52.2330  109.3330 C.3    25  PRO25       0.1504
     27  C         35.9210   51.5650  108.4370 C.2    25  PRO25       0.2575
     28  O         34.7590   51.9170  108.5140 O.2    25  PRO25      -0.2718
     29  CB        37.6450   53.3820  108.5740 C.3    25  PRO25       0.0282
     30  CG        39.0570   53.2820  108.8860 C.3    25  PRO25       0.0208
     31  CD        39.3440   51.8300  109.1110 C.3    25  PRO25       0.0893
     32  N         36.3370   50.6210  107.6040 N.am   26  ARG26      -0.1980
     33  CA        35.4090   49.9670  106.6870 C.3    26  ARG26       0.1597
     34  C         34.6490   48.8170  107.3540 C.2    26  ARG26       0.2287
     35  O         33.7540   48.2360  106.7590 O.2    26  ARG26      -0.2864
     36  CB        36.1530   49.4790  105.4420 C.3    26  ARG26       0.0334
     37  CG        36.5770   50.6300  104.5720 C.3    26  ARG26       0.0492
     38  CD        37.4390   50.2230  103.4160 C.3    26  ARG26       0.2205
     39  NE        37.5940   51.3470  102.5070 N.pl3  26  ARG26      -0.0865
     40  CZ        38.4360   52.3500  102.6980 C.cat  26  ARG26       0.5346
     41  NH1       39.2190   52.3660  103.7610 N.pl3  26  ARG26       0.1354
     42  NH2       38.4890   53.3350  101.8240 N.pl3  26  ARG26       0.1354
     43  N         52.0490   55.7770  108.0550 N.3   144  LEU144     -0.1245
     44  CA        51.4080   57.0280  108.4140 C.3   144  LEU144      0.1561
     45  C         52.4380   58.0310  108.9470 C.2   144  LEU144      0.2260
     46  O         52.3970   59.1980  108.6060 O.2   144  LEU144     -0.2867
     47  CB        50.2890   56.8070  109.4270 C.3   144  LEU144      0.0270
     48  CG        49.0860   55.9730  108.9620 C.3   144  LEU144      0.0019
     49  CD1       47.9830   55.8900  110.0420 C.3   144  LEU144      0.0001
     50  CD2       48.5090   56.5130  107.6890 C.3   144  LEU144      0.0001
     51  N         46.8940   54.0280   97.0690 N.3   162  ARG162     -0.1231
     52  CA        45.6850   54.3330   97.8300 C.3   162  ARG162      0.1694
     53  C         46.0580   55.1690   99.0560 C.2   162  ARG162      0.2591
     54  O         45.3230   56.0470   99.4510 O.2   162  ARG162     -0.2718
     55  CB        44.9500   53.0730   98.2480 C.3   162  ARG162      0.0321
     56  CG        44.7120   52.1370   97.1150 C.3   162  ARG162      0.0489
     57  CD        44.6800   50.7220   97.5990 C.3   162  ARG162      0.2205
     58  NE        43.3230   50.2450   97.6920 N.pl3 162  ARG162     -0.0865
     59  CZ        42.7010   49.5680   96.7390 C.cat 162  ARG162      0.5346
     60  NH1       43.3170   49.2890   95.5960 N.pl3 162  ARG162      0.1354
     61  NH2       41.4540   49.1810   96.9460 N.pl3 162  ARG162      0.1354
     62  N         47.2360   54.9160   99.6030 N.am  163  LEU163     -0.1980
     63  CA        47.7250   55.6670  100.7520 C.3   163  LEU163      0.1596
     64  C         48.0510   57.1010  100.3660 C.2   163  LEU163      0.2287
     65  O         47.6350   58.0430  101.0380 O.2   163  LEU163     -0.2864
     66  CB        48.9570   54.9870  101.3500 C.3   163  LEU163      0.0297
     67  CG        49.7300   55.8000  102.3670 C.3   163  LEU163      0.0022
     68  CD1       48.8530   56.0480  103.5910 C.3   163  LEU163      0.0001
     69  CD2       51.0440   55.1220  102.7490 C.3   163  LEU163      0.0001
     70  N         44.7150   59.0750   99.7150 N.3   166  TRP166     -0.1241
     71  CA        44.0440   59.5090  100.9400 C.3   166  TRP166      0.1605
     72  C         44.6580   60.8080  101.4520 C.2   166  TRP166      0.2264
     73  O         43.9490   61.7400  101.7770 O.2   166  TRP166     -0.2867
     74  CB        44.1000   58.4270  102.0370 C.3   166  TRP166      0.0550
     75  CG        43.2620   58.7540  103.2470 C.ar  166  TRP166      0.0003
     76  CD1       41.9570   58.3990  103.4610 C.ar  166  TRP166      0.0946
     77  CD2       43.6600   59.5220  104.3960 C.ar  166  TRP166      0.0152
     78  NE1       41.5250   58.8880  104.6840 N.ar  166  TRP166     -0.2442
     79  CE2       42.5490   59.5820  105.2710 C.ar  166  TRP166      0.0810
     80  CE3       44.8490   60.1530  104.7770 C.ar  166  TRP166      0.0012
     81  CZ2       42.5940   60.2520  106.5020 C.ar  166  TRP166      0.0191
     82  CZ3       44.8890   60.8230  106.0190 C.ar  166  TRP166      0.0001
     83  CH2       43.7710   60.8620  106.8550 C.ar  166  TRP166      0.0015
     84  N         34.6180   54.5830  103.6370 N.3   217  PRO217     -0.2116
     85  CA        33.8870   53.7720  104.6090 C.3   217  PRO217      0.1372
     86  C         32.3980   54.1120  104.5900 C.2   217  PRO217      0.2244
     87  O         32.0350   55.2800  104.5110 O.2   217  PRO217     -0.2868
     88  CB        34.5330   54.1560  105.9390 C.3   217  PRO217      0.0268
     89  CG        35.8840   54.6780  105.5630 C.3   217  PRO217      0.0207
     90  CD        35.7280   55.3300  104.2470 C.3   217  PRO217      0.0892
@<TRIPOS>BOND
     1    60    59    1
     2    59    61    1
     3    59    58    2
     4    51    52    1
     5    56    57    1
     6    56    55    1
     7    57    58    1
     8    52    55    1
     9    52    53    1
    10    53    54    2
    11    53    62   am
    12    62    63    1
    13    70    71    1
    14    64    63    1
    15    64    65    2
    16    63    66    1
    17    71    72    1
    18    71    74    1
    19    66    67    1
    20    72    73    2
    21    42    40    1
    22    11    10   ar
    23    11     9   ar
    24    10     8   ar
    25    74    75    1
    26    67    69    1
    27    67    68    1
    28    24    22    1
    29    39    40    2
    30    39    38    1
    31    40    41    1
    32     9     7   ar
    33    23    22    1
    34     8     6   ar
    35    75    76   ar
    36    75    77   ar
    37    38    37    1
    38    76    78   ar
    39    22    21    1
    40    84    90    1
    41    84    85    1
    42     7     6   ar
    43     6     5    1
    44    90    89    1
    45    77    80   ar
    46    77    79   ar
    47    87    86    2
    48    21    18    1
    49    37    36    1
    50    86    85    1
    51    85    88    1
    52    78    79   ar
    53    80    82   ar
    54    79    81   ar
    55    36    33    1
    56     5     2    1
    57    18    19    1
    58    18    17    1
    59    89    88    1
    60    20    19    2
    61    82    83   ar
    62     4     3    2
    63    81    83   ar
    64     3     2    1
    65    17    14   am
    66    33    34    1
    67    33    32    1
    68    35    34    2
    69     2     1    1
    70    15    14    2
    71    14    13    1
    72    32    27   am
    73    50    48    1
    74    43    44    1
    75    16    13    1
    76    44    45    1
    77    44    47    1
    78    27    28    2
    79    27    26    1
    80    29    30    1
    81    29    26    1
    82    46    45    2
    83    13    12    1
    84    30    31    1
    85    48    47    1
    86    48    49    1
    87    31    25    1
    88    26    25    1
