@<TRIPOS>MOLECULE
tmp/4rpnD00.pdb
 159 155 0 0 0
SMALL
GASTEIGER

@<TRIPOS>ATOM
      1  N         49.8860   46.2090  109.0450 N.3    16  SER16      -0.1217
      2  CA        50.6900   47.4110  109.0910 C.3    16  SER16       0.1889
      3  C         49.8140   48.5600  109.5390 C.2    16  SER16       0.2288
      4  O         48.6060   48.4480  109.5050 O.2    16  SER16      -0.2866
      5  CB        51.2830   47.7240  107.7000 C.3    16  SER16       0.2089
      6  OG        50.2880   48.1970  106.8040 O.3    16  SER16      -0.2183
      7  N         49.1790   51.2170  107.9720 N.3    18  PHE18      -0.1227
      8  CA        48.4040   51.5400  106.7760 C.3    18  PHE18       0.1736
      9  C         47.2010   50.6070  106.6040 C.2    18  PHE18       0.2596
     10  O         46.0810   51.0700  106.4570 O.2    18  PHE18      -0.2718
     11  CB        49.3090   51.4860  105.5330 C.3    18  PHE18       0.0547
     12  CG        48.5770   51.6020  104.2400 C.ar   18  PHE18      -0.0202
     13  CD1       47.5490   52.5130  104.0870 C.ar   18  PHE18      -0.0042
     14  CD2       48.9380   50.8180  103.1560 C.ar   18  PHE18      -0.0042
     15  CE1       46.8790   52.6240  102.8960 C.ar   18  PHE18      -0.0003
     16  CE2       48.2860   50.9360  101.9660 C.ar   18  PHE18      -0.0003
     17  CZ        47.2460   51.8370  101.8310 C.ar   18  PHE18      -0.0000
     18  N         47.4460   49.2980  106.6240 N.am   19  GLY19      -0.1957
     19  CA        46.3850   48.3020  106.5620 C.3    19  GLY19       0.1869
     20  C         45.3160   48.4410  107.6510 C.2    19  GLY19       0.2309
     21  O         44.1290   48.2630  107.4030 O.2    19  GLY19      -0.2863
     22  N         43.0910   51.3260  106.6460 N.3    22  LEU22      -0.1245
     23  CA        42.2160   50.9060  105.5480 C.3    22  LEU22       0.1561
     24  C         41.0540   50.0760  106.0340 C.2    22  LEU22       0.2260
     25  O         39.9270   50.2240  105.5750 O.2    22  LEU22      -0.2867
     26  CB        42.9700   50.0750  104.5170 C.3    22  LEU22       0.0270
     27  CG        43.8710   50.7540  103.5210 C.3    22  LEU22       0.0019
     28  CD1       44.8570   49.7190  102.9990 C.3    22  LEU22       0.0001
     29  CD2       43.0450   51.3350  102.3940 C.3    22  LEU22       0.0001
     30  N         52.7310   44.5270  113.2450 N.3    45  LEU45      -0.1245
     31  CA        53.5210   43.3970  112.8010 C.3    45  LEU45       0.1561
     32  C         54.7600   43.2660  113.6730 C.2    45  LEU45       0.2260
     33  O         55.3120   44.2630  114.1350 O.2    45  LEU45      -0.2867
     34  CB        53.9040   43.5620  111.3280 C.3    45  LEU45       0.0270
     35  CG        52.7350   43.8580  110.3810 C.3    45  LEU45       0.0019
     36  CD1       53.2370   44.1240  108.9790 C.3    45  LEU45       0.0001
     37  CD2       51.7170   42.7190  110.3920 C.3    45  LEU45       0.0001
     38  N         46.1840   40.7720  107.4630 N.3    63  PHE63      -0.1227
     39  CA        45.7710   41.5660  106.3120 C.3    63  PHE63       0.1736
     40  C         46.9470   42.3700  105.8060 C.2    63  PHE63       0.2596
     41  O         47.5730   43.1290  106.5620 O.2    63  PHE63      -0.2718
     42  CB        44.5980   42.4920  106.6660 C.3    63  PHE63       0.0547
     43  CG        44.2740   43.5270  105.6020 C.ar   63  PHE63      -0.0202
     44  CD1       43.7990   43.1420  104.3400 C.ar   63  PHE63      -0.0042
     45  CD2       44.4100   44.8930  105.8700 C.ar   63  PHE63      -0.0042
     46  CE1       43.4770   44.0930  103.3740 C.ar   63  PHE63      -0.0003
     47  CE2       44.0870   45.8510  104.8920 C.ar   63  PHE63      -0.0003
     48  CZ        43.6200   45.4440  103.6450 C.ar   63  PHE63      -0.0000
     49  N         47.2430   42.1890  104.5310 N.am   64  GLY64      -0.1942
     50  CA        48.3440   42.8610  103.8760 C.3    64  GLY64       0.2014
     51  C         48.9960   41.9400  102.8660 C.2    64  GLY64       0.2639
     52  O         48.3350   41.1150  102.2360 O.2    64  GLY64      -0.2714
     53  N         50.3030   42.0840  102.7110 N.am   65  GLY65      -0.1939
     54  CA        51.0580   41.2440  101.8110 C.3    65  GLY65       0.2014
     55  C         52.1680   40.5540  102.5700 C.2    65  GLY65       0.2638
     56  O         53.1430   41.1860  102.9680 O.2    65  GLY65      -0.2714
     57  N         52.0100   39.2520  102.7740 N.am   66  PHE66      -0.1973
     58  CA        52.9950   38.4680  103.5010 C.3    66  PHE66       0.1639
     59  C         53.4730   37.2590  102.7010 C.2    66  PHE66       0.2290
     60  O         52.9060   36.1790  102.8030 O.2    66  PHE66      -0.2864
     61  CB        52.4100   38.0340  104.8330 C.3    66  PHE66       0.0560
     62  CG        51.8290   39.1630  105.6130 C.ar   66  PHE66      -0.0200
     63  CD1       52.6450   40.1510  106.1240 C.ar   66  PHE66      -0.0042
     64  CD2       50.4640   39.2490  105.8270 C.ar   66  PHE66      -0.0042
     65  CE1       52.1050   41.2070  106.8450 C.ar   66  PHE66      -0.0003
     66  CE2       49.9200   40.3020  106.5470 C.ar   66  PHE66      -0.0003
     67  CZ        50.7390   41.2750  107.0600 C.ar   66  PHE66      -0.0000
     68  N         42.8240   42.8150   96.6850 N.3    79  PHE79      -0.1241
     69  CA        43.0510   43.8220   95.6700 C.3    79  PHE79       0.1605
     70  C         44.5120   43.9170   95.3220 C.2    79  PHE79       0.2264
     71  O         45.3680   43.3180   95.9780 O.2    79  PHE79      -0.2867
     72  CB        42.5030   45.2010   96.0900 C.3    79  PHE79       0.0534
     73  CG        43.0360   45.7330   97.4010 C.ar   79  PHE79      -0.0203
     74  CD1       44.1890   46.4990   97.4400 C.ar   79  PHE79      -0.0042
     75  CD2       42.3420   45.5140   98.5870 C.ar   79  PHE79      -0.0042
     76  CE1       44.6700   47.0200   98.6510 C.ar   79  PHE79      -0.0003
     77  CE2       42.8140   46.0260   99.8080 C.ar   79  PHE79      -0.0003
     78  CZ        43.9820   46.7780   99.8320 C.ar   79  PHE79      -0.0000
     79  N         47.7980   46.5980   94.2030 N.3    81  GLU81      -0.1245
     80  CA        48.2220   47.9620   94.4450 C.3    81  GLU81       0.1567
     81  C         49.4900   48.2590   93.6840 C.2    81  GLU81       0.2260
     82  O         50.2500   47.3580   93.3720 O.2    81  GLU81      -0.2867
     83  CB        48.4480   48.2020   95.9470 C.3    81  GLU81       0.0388
     84  CG        47.3730   49.0200   96.6210 C.3    81  GLU81       0.1160
     85  CD        47.4680   50.5000   96.2920 C.2    81  GLU81       0.3649
     86  OE1       47.5480   51.3130   97.2370 O.co2  81  GLU81      -0.2457
     87  OE2       47.4580   50.8620   95.1070 O.co2  81  GLU81      -0.2457
     88  N         52.7860   51.4580   93.3770 N.3    83  TYR83      -0.1241
     89  CA        53.4440   52.5460   94.0510 C.3    83  TYR83       0.1605
     90  C         53.4890   53.8350   93.2600 C.2    83  TYR83       0.2264
     91  O         53.6210   53.8300   92.0330 O.2    83  TYR83      -0.2867
     92  CB        54.8650   52.1370   94.4200 C.3    83  TYR83       0.0534
     93  CG        54.9150   51.2620   95.6400 C.ar   83  TYR83      -0.0201
     94  CD1       54.6120   49.9130   95.5610 C.ar   83  TYR83      -0.0009
     95  CD2       55.2820   51.7820   96.8710 C.ar   83  TYR83      -0.0009
     96  CE1       54.6680   49.1180   96.6620 C.ar   83  TYR83       0.0417
     97  CE2       55.3440   50.9920   97.9780 C.ar   83  TYR83       0.0417
     98  CZ        55.0290   49.6620   97.8790 C.ar   83  TYR83       0.1957
     99  OH        55.0900   48.8660   98.9910 O.3    83  TYR83      -0.2866
    100  N         57.1790   41.8600  105.3600 N.3   118  HIS118     -0.1226
    101  CA        56.0210   42.0940  104.5180 C.3   118  HIS118      0.1752
    102  C         56.4320   42.6560  103.1670 C.2   118  HIS118      0.2596
    103  O         57.6000   42.8920  102.9100 O.2   118  HIS118     -0.2718
    104  CB        54.9660   42.9760  105.2210 C.3   118  HIS118      0.0759
    105  CG        55.4330   44.3360  105.6340 C.ar  118  HIS118      0.0818
    106  ND1       55.6150   45.3670  104.7420 N.ar  118  HIS118     -0.2268
    107  CD2       55.6720   44.8590  106.8630 C.ar  118  HIS118      0.1154
    108  CE1       55.9760   46.4580  105.3970 C.ar  118  HIS118      0.1986
    109  NE2       56.0250   46.1730  106.6850 N.ar  118  HIS118     -0.2212
    110  N         55.4530   42.8370  102.2990 N.am  119  VAL119     -0.1966
    111  CA        55.7130   42.9620  100.8750 C.3   119  VAL119      0.1727
    112  C         56.4500   44.2490  100.5080 C.2   119  VAL119      0.2616
    113  O         57.2570   44.2590   99.5740 O.2   119  VAL119     -0.2715
    114  CB        54.3970   42.8490  100.0770 C.3   119  VAL119      0.0290
    115  CG1       53.3850   43.8740  100.5600 C.3   119  VAL119      0.0023
    116  CG2       54.6620   42.9850   98.5980 C.3   119  VAL119      0.0023
    117  N         56.2190   45.3190  101.2630 N.am  120  HIS120     -0.1973
    118  CA        56.9110   46.5720  100.9940 C.3   120  HIS120      0.1656
    119  C         58.4340   46.3910  100.9860 C.2   120  HIS120      0.2291
    120  O         59.1700   47.2400  100.4940 O.2   120  HIS120     -0.2864
    121  CB        56.5260   47.6420  102.0140 C.3   120  HIS120      0.0771
    122  CG        57.2660   48.9240  101.8210 C.ar  120  HIS120      0.0820
    123  ND1       56.9460   49.8220  100.8270 N.ar  120  HIS120     -0.2267
    124  CD2       58.3610   49.4190  102.4370 C.ar  120  HIS120      0.1154
    125  CE1       57.7890   50.8340  100.8620 C.ar  120  HIS120      0.1986
    126  NE2       58.6580   50.6140  101.8310 N.ar  120  HIS120     -0.2212
    127  N         53.9140   53.5930  107.9220 N.3   143  PHE143     -0.1241
    128  CA        53.5270   54.3590  106.7310 C.3   143  PHE143      0.1605
    129  C         52.9370   55.7310  107.0690 C.2   143  PHE143      0.2264
    130  O         53.2590   56.7200  106.4310 O.2   143  PHE143     -0.2867
    131  CB        52.5070   53.5840  105.8790 C.3   143  PHE143      0.0534
    132  CG        53.0780   52.3830  105.1580 C.ar  143  PHE143     -0.0203
    133  CD1       53.6810   52.5240  103.9060 C.ar  143  PHE143     -0.0042
    134  CD2       52.9910   51.1200  105.7130 C.ar  143  PHE143     -0.0042
    135  CE1       54.2100   51.4180  103.2330 C.ar  143  PHE143     -0.0003
    136  CE2       53.5070   50.0060  105.0400 C.ar  143  PHE143     -0.0003
    137  CZ        54.1190   50.1620  103.7940 C.ar  143  PHE143     -0.0000
    138  N         52.3820   52.9620   98.4710 N.3   160  PRO160     -0.2116
    139  CA        51.1610   52.5010   97.8150 C.3   160  PRO160      0.1372
    140  C         50.2420   53.6750   97.4580 C.2   160  PRO160      0.2244
    141  O         50.1110   54.6180   98.2390 O.2   160  PRO160     -0.2868
    142  CB        50.5170   51.6010   98.8660 C.3   160  PRO160      0.0268
    143  CG        51.6310   51.1760   99.7470 C.3   160  PRO160      0.0207
    144  CD        52.6110   52.2900   99.7610 C.3   160  PRO160      0.0892
    145  N         51.4950   45.0060   93.7500 N.3   185  ILE185     -0.1245
    146  CA        51.3450   44.3210   95.0290 C.3   185  ILE185      0.1561
    147  C         50.0010   43.6090   95.1360 C.2   185  ILE185      0.2260
    148  O         48.9680   44.1800   94.8040 O.2   185  ILE185     -0.2867
    149  CB        51.4930   45.3280   96.2150 C.3   185  ILE185      0.0252
    150  CG1       52.8520   46.0130   96.1510 C.3   185  ILE185      0.0019
    151  CG2       51.3220   44.6370   97.5710 C.3   185  ILE185      0.0019
    152  CD1       54.0000   45.0380   96.1260 C.3   185  ILE185      0.0001
    153  N         47.3130   42.2950   97.7140 N.3   187  VAL187     -0.1245
    154  CA        46.9280   42.4520   99.1120 C.3   187  VAL187      0.1561
    155  C         45.8590   41.4300   99.4600 C.2   187  VAL187      0.2260
    156  O         44.8730   41.2920   98.7640 O.2   187  VAL187     -0.2867
    157  CB        46.4380   43.8880   99.4100 C.3   187  VAL187      0.0252
    158  CG1       46.0730   44.0430  100.8790 C.3   187  VAL187      0.0019
    159  CG2       47.5240   44.8990   99.0430 C.3   187  VAL187      0.0019
@<TRIPOS>BOND
     1    91    90    2
     2    90    89    1
     3    82    81    2
     4    88    89    1
     5    81    80    1
     6   145   146    1
     7    89    92    1
     8    79    80    1
     9    92    93    1
    10    80    83    1
    11   148   147    2
    12   146   147    1
    13   146   149    1
    14    87    85   ar
    15    70    69    1
    16    70    71    2
    17    94    93   ar
    18    94    96   ar
    19    93    95   ar
    20    69    72    1
    21    69    68    1
    22    83    84    1
    23    72    73    1
    24   152   150    1
    25   150   149    1
    26   149   151    1
    27    85    84    1
    28    85    86   ar
    29    96    98   ar
    30    95    97   ar
    31    73    74   ar
    32    73    75   ar
    33    74    76   ar
    34   140   139    1
    35   140   141    2
    36   153   154    1
    37   139   138    1
    38   139   142    1
    39    98    97   ar
    40    98    99    1
    41   138   144    1
    42    75    77   ar
    43   116   114    1
    44    76    78   ar
    45   156   155    2
    46   142   143    1
    47   159   157    1
    48   154   157    1
    49   154   155    1
    50   157   158    1
    51   113   112    2
    52   143   144    1
    53    77    78   ar
    54   114   115    1
    55   114   111    1
    56   120   119    2
    57   112   111    1
    58   112   117   am
    59   123   125   ar
    60   123   122   ar
    61   125   126   ar
    62   111   110    1
    63   119   118    1
    64   118   117    1
    65   118   121    1
    66    54    55    1
    67    54    53    1
    68   122   121    1
    69   122   124   ar
    70   126   124   ar
    71    17    16   ar
    72    17    15   ar
    73    16    14   ar
    74    52    51    2
    75   110   102   am
    76    29    27    1
    77    55    57   am
    78    55    56    2
    79    59    60    2
    80    59    58    1
    81    53    51   am
    82    57    58    1
    83    51    50    1
    84    15    13   ar
    85   103   102    2
    86    28    27    1
    87    14    12   ar
    88   102   101    1
    89   135   137   ar
    90   135   133   ar
    91    46    48   ar
    92    46    44   ar
    93    58    61    1
    94    27    26    1
    95    48    47   ar
    96   137   136   ar
    97    50    49    1
    98   133   132   ar
    99    13    12   ar
   100    12    11    1
   101    44    43   ar
   102    26    23    1
   103   101   104    1
   104   101   100    1
   105    49    40   am
   106   106   108   ar
   107   106   105   ar
   108    61    62    1
   109    47    45   ar
   110   136   134   ar
   111   132   134   ar
   112   132   131    1
   113   104   105    1
   114   108   109   ar
   115    11     8    1
   116    23    24    1
   117    23    22    1
   118    25    24    2
   119    43    45   ar
   120    43    42    1
   121    62    64   ar
   122    62    63   ar
   123   105   107   ar
   124    40    39    1
   125    40    41    2
   126    64    66   ar
   127   131   128    1
   128    63    65   ar
   129    39    42    1
   130    39    38    1
   131   130   129    2
   132    10     9    2
   133    66    67   ar
   134    19    18    1
   135    19    20    1
   136     9    18   am
   137     9     8    1
   138   109   107   ar
   139   128   129    1
   140   128   127    1
   141     8     7    1
   142     6     5    1
   143    65    67   ar
   144    21    20    2
   145     5     2    1
   146    36    35    1
   147     1     2    1
   148     2     3    1
   149     4     3    2
   150    35    37    1
   151    35    34    1
   152    34    31    1
   153    31    30    1
   154    31    32    1
   155    32    33    2
