@<TRIPOS>MOLECULE
tmp/4rpoB00.pdb
 144 138 0 0 0
SMALL
GASTEIGER

@<TRIPOS>ATOM
      1  N        -34.7290    2.2190   34.3270 N.3    16  SER16      -0.1217
      2  CA       -33.9260    1.0080   34.2060 C.3    16  SER16       0.1889
      3  C        -34.8280   -0.0810   33.6480 C.2    16  SER16       0.2288
      4  O        -36.0440    0.0800   33.6270 O.2    16  SER16      -0.2866
      5  CB       -33.3570    0.5920   35.5770 C.3    16  SER16       0.2089
      6  OG       -34.4080    0.1450   36.4390 O.3    16  SER16      -0.2183
      7  N        -35.6080   -2.8700   35.0450 N.3    18  PHE18      -0.1227
      8  CA       -36.5390   -3.3090   36.0850 C.3    18  PHE18       0.1736
      9  C        -37.6040   -2.2540   36.3590 C.2    18  PHE18       0.2596
     10  O        -38.7770   -2.5830   36.5470 O.2    18  PHE18      -0.2718
     11  CB       -35.8370   -3.6450   37.3970 C.3    18  PHE18       0.0547
     12  CG       -36.8080   -3.9830   38.4940 C.ar   18  PHE18      -0.0202
     13  CD1      -37.7370   -5.0090   38.3040 C.ar   18  PHE18      -0.0042
     14  CD2      -36.8590   -3.2410   39.6600 C.ar   18  PHE18      -0.0042
     15  CE1      -38.6540   -5.3220   39.2880 C.ar   18  PHE18      -0.0003
     16  CE2      -37.7900   -3.5480   40.6500 C.ar   18  PHE18      -0.0003
     17  CZ       -38.6850   -4.5740   40.4570 C.ar   18  PHE18      -0.0000
     18  N        -37.2010   -0.9860   36.3440 N.am   19  GLY19      -0.1957
     19  CA       -38.1590    0.1030   36.5060 C.3    19  GLY19       0.1869
     20  C        -39.2590    0.0410   35.4540 C.2    19  GLY19       0.2309
     21  O        -40.4280    0.2220   35.7730 O.2    19  GLY19      -0.2863
     22  N        -41.5300   -2.9050   36.2100 N.3    22  LEU22      -0.1245
     23  CA       -42.3510   -2.5830   37.3620 C.3    22  LEU22       0.1561
     24  C        -43.5110   -1.6420   36.9900 C.2    22  LEU22       0.2260
     25  O        -44.6650   -1.8500   37.3850 O.2    22  LEU22      -0.2867
     26  CB       -41.4630   -1.9500   38.4410 C.3    22  LEU22       0.0270
     27  CG       -42.0560   -1.7290   39.8360 C.3    22  LEU22       0.0019
     28  CD1      -42.3750   -3.0530   40.5160 C.3    22  LEU22       0.0001
     29  CD2      -41.0730   -0.9040   40.6880 C.3    22  LEU22       0.0001
     30  N        -38.4270    7.6380   35.8640 N.3    63  PHE63      -0.1227
     31  CA       -38.8810    6.8150   36.9970 C.3    63  PHE63       0.1736
     32  C        -37.6650    6.0740   37.5330 C.2    63  PHE63       0.2596
     33  O        -37.0370    5.2860   36.8320 O.2    63  PHE63      -0.2718
     34  CB       -40.0060    5.8540   36.5320 C.3    63  PHE63       0.0547
     35  CG       -40.4490    4.8360   37.5710 C.ar   63  PHE63      -0.0202
     36  CD1      -40.9330    5.2360   38.8250 C.ar   63  PHE63      -0.0042
     37  CD2      -40.4240    3.4800   37.2750 C.ar   63  PHE63      -0.0042
     38  CE1      -41.3600    4.2840   39.7730 C.ar   63  PHE63      -0.0003
     39  CE2      -40.8380    2.5180   38.2120 C.ar   63  PHE63      -0.0003
     40  CZ       -41.3170    2.9190   39.4600 C.ar   63  PHE63      -0.0000
     41  N        -37.2850    6.3490   38.7660 N.am   64  GLY64      -0.1942
     42  CA       -36.0810    5.7560   39.3020 C.3    64  GLY64       0.2014
     43  C        -35.5340    6.6110   40.4370 C.2    64  GLY64       0.2639
     44  O        -36.2660    7.3610   41.0640 O.2    64  GLY64      -0.2714
     45  N        -34.2520    6.4620   40.7220 N.am   65  GLY65      -0.1954
     46  CA       -33.5610    7.3390   41.6540 C.3    65  GLY65       0.1869
     47  C        -32.4340    8.0160   40.8980 C.2    65  GLY65       0.2309
     48  O        -31.4830    7.3550   40.4540 O.2    65  GLY65      -0.2863
     49  N        -41.7100    5.6550   46.5270 N.3    79  PHE79      -0.1241
     50  CA       -41.4770    4.6540   47.5550 C.3    79  PHE79       0.1605
     51  C        -40.0200    4.5480   47.8830 C.2    79  PHE79       0.2264
     52  O        -39.1520    5.1130   47.2050 O.2    79  PHE79      -0.2867
     53  CB       -42.0470    3.2680   47.1460 C.3    79  PHE79       0.0534
     54  CG       -41.5140    2.7200   45.8240 C.ar   79  PHE79      -0.0203
     55  CD1      -40.3800    1.9220   45.7930 C.ar   79  PHE79      -0.0042
     56  CD2      -42.1800    2.9730   44.6320 C.ar   79  PHE79      -0.0042
     57  CE1      -39.9010    1.3960   44.5790 C.ar   79  PHE79      -0.0003
     58  CE2      -41.7070    2.4690   43.4350 C.ar   79  PHE79      -0.0003
     59  CZ       -40.5690    1.6800   43.4060 C.ar   79  PHE79      -0.0000
     60  N        -36.8610    1.7920   48.9560 N.3    81  GLU81      -0.1245
     61  CA       -36.5420    0.4150   48.6200 C.3    81  GLU81       0.1567
     62  C        -35.2640    0.0090   49.3380 C.2    81  GLU81       0.2260
     63  O        -34.4240    0.8580   49.6340 O.2    81  GLU81      -0.2867
     64  CB       -36.4070    0.2810   47.0970 C.3    81  GLU81       0.0388
     65  CG       -35.7950   -1.0140   46.5850 C.3    81  GLU81       0.1160
     66  CD       -36.7180   -2.2260   46.7580 C.2    81  GLU81       0.3649
     67  OE1      -37.1050   -2.8380   45.7460 O.co2  81  GLU81      -0.2457
     68  OE2      -37.0250   -2.5940   47.9010 O.co2  81  GLU81      -0.2457
     69  N        -32.0880   -3.2490   49.7050 N.3    83  TYR83      -0.1241
     70  CA       -31.3870   -4.2830   48.9630 C.3    83  TYR83       0.1605
     71  C        -31.3360   -5.5940   49.7310 C.2    83  TYR83       0.2264
     72  O        -31.3030   -5.6110   50.9590 O.2    83  TYR83      -0.2867
     73  CB       -29.9670   -3.8230   48.6230 C.3    83  TYR83       0.0534
     74  CG       -29.9390   -2.9240   47.4170 C.ar   83  TYR83      -0.0201
     75  CD1      -30.4170   -1.6230   47.4890 C.ar   83  TYR83      -0.0009
     76  CD2      -29.4780   -3.3910   46.1950 C.ar   83  TYR83      -0.0009
     77  CE1      -30.4190   -0.8010   46.3770 C.ar   83  TYR83       0.0417
     78  CE2      -29.4700   -2.5810   45.0840 C.ar   83  TYR83       0.0417
     79  CZ       -29.9430   -1.2850   45.1760 C.ar   83  TYR83       0.1957
     80  OH       -29.9250   -0.4750   44.0540 O.3    83  TYR83      -0.2866
     81  N        -27.7020    6.5800   38.0270 N.3   118  HIS118     -0.1241
     82  CA       -28.8270    5.9880   38.7330 C.3   118  HIS118      0.1621
     83  C        -28.3520    5.6680   40.1530 C.2   118  HIS118      0.2264
     84  O        -27.2040    5.2670   40.3440 O.2   118  HIS118     -0.2867
     85  CB       -29.2970    4.7400   37.9760 C.3   118  HIS118      0.0745
     86  CG       -30.4640    4.0380   38.5900 C.ar  118  HIS118      0.0817
     87  ND1      -30.3590    3.2830   39.7410 N.ar  118  HIS118     -0.2268
     88  CD2      -31.7550    3.9360   38.1950 C.ar  118  HIS118      0.1154
     89  CE1      -31.5370    2.7720   40.0400 C.ar  118  HIS118      0.1986
     90  NE2      -32.4050    3.1450   39.1140 N.ar  118  HIS118     -0.2212
     91  N        -28.5520    3.2660   42.0540 N.3   120  HIS120     -0.1241
     92  CA       -27.9320    1.9540   42.2800 C.3   120  HIS120      0.1621
     93  C        -26.3990    2.0410   42.2820 C.2   120  HIS120      0.2264
     94  O        -25.7350    1.1610   42.8120 O.2   120  HIS120     -0.2867
     95  CB       -28.3770    0.9280   41.2220 C.3   120  HIS120      0.0745
     96  CG       -27.6660   -0.3850   41.3370 C.ar  120  HIS120      0.0817
     97  ND1      -27.9530   -1.2940   42.3330 N.ar  120  HIS120     -0.2268
     98  CD2      -26.6620   -0.9270   40.6100 C.ar  120  HIS120      0.1154
     99  CE1      -27.1600   -2.3470   42.2060 C.ar  120  HIS120      0.1986
    100  NE2      -26.3740   -2.1480   41.1620 N.ar  120  HIS120     -0.2212
    101  N        -30.8260   -5.0810   35.1200 N.3   143  PHE143     -0.1241
    102  CA       -31.2250   -5.8550   36.2910 C.3   143  PHE143      0.1605
    103  C        -31.8300   -7.2070   35.9460 C.2   143  PHE143      0.2264
    104  O        -31.5330   -8.2030   36.6030 O.2   143  PHE143     -0.2867
    105  CB       -32.2340   -5.0610   37.1330 C.3   143  PHE143      0.0534
    106  CG       -31.6220   -3.8900   37.8240 C.ar  143  PHE143     -0.0203
    107  CD1      -31.0320   -4.0340   39.0680 C.ar  143  PHE143     -0.0042
    108  CD2      -31.5740   -2.6510   37.1990 C.ar  143  PHE143     -0.0042
    109  CE1      -30.4380   -2.9490   39.7000 C.ar  143  PHE143     -0.0003
    110  CE2      -30.9830   -1.5640   37.8240 C.ar  143  PHE143     -0.0003
    111  CZ       -30.4090   -1.7180   39.0780 C.ar  143  PHE143     -0.0000
    112  N        -32.3980   -4.6620   44.4340 N.3   160  PRO160     -0.2116
    113  CA       -33.5790   -4.1650   45.1420 C.3   160  PRO160      0.1372
    114  C        -34.5330   -5.3090   45.4950 C.2   160  PRO160      0.2244
    115  O        -34.7350   -6.2040   44.6710 O.2   160  PRO160     -0.2868
    116  CB       -34.2280   -3.2230   44.1330 C.3   160  PRO160      0.0268
    117  CG       -33.1490   -2.8530   43.1860 C.3   160  PRO160      0.0207
    118  CD       -32.1430   -3.9340   43.1760 C.3   160  PRO160      0.0892
    119  N        -37.7690   -5.6200   45.7140 N.3   162  ARG162     -0.1245
    120  CA       -38.9440   -5.7950   44.8610 C.3   162  ARG162      0.1563
    121  C        -38.6260   -6.6540   43.6400 C.2   162  ARG162      0.2260
    122  O        -39.4640   -7.4330   43.1840 O.2   162  ARG162     -0.2867
    123  CB       -39.5040   -4.4400   44.4120 C.3   162  ARG162      0.0307
    124  CG       -40.2510   -3.7110   45.5090 C.3   162  ARG162      0.0489
    125  CD       -40.9000   -2.4240   45.0160 C.3   162  ARG162      0.2205
    126  NE       -41.8760   -1.9450   45.9890 N.pl3 162  ARG162     -0.0865
    127  CZ       -41.5610   -1.2930   47.1040 C.cat 162  ARG162      0.5346
    128  NH1      -40.2940   -1.0270   47.3950 N.pl3 162  ARG162      0.1354
    129  NH2      -42.5130   -0.9060   47.9320 N.pl3 162  ARG162      0.1354
    130  N        -32.9120    3.2870   49.1740 N.3   185  ILE185     -0.1245
    131  CA       -32.9790    4.2410   48.0730 C.3   185  ILE185      0.1561
    132  C        -34.3970    4.7690   47.9030 C.2   185  ILE185      0.2260
    133  O        -35.3640    4.0890   48.2370 O.2   185  ILE185     -0.2867
    134  CB       -32.5010    3.6270   46.7430 C.3   185  ILE185      0.0252
    135  CG1      -33.3970    2.4510   46.3270 C.3   185  ILE185      0.0019
    136  CG2      -31.0370    3.2080   46.8330 C.3   185  ILE185      0.0019
    137  CD1      -33.2560    2.0930   44.8460 C.3   185  ILE185      0.0001
    138  N        -37.2850    5.9250   45.3380 N.3   187  VAL187     -0.1245
    139  CA       -37.7160    5.8930   43.9500 C.3   187  VAL187      0.1561
    140  C        -38.7960    6.9380   43.7240 C.2   187  VAL187      0.2260
    141  O        -39.7660    7.0030   44.4810 O.2   187  VAL187     -0.2867
    142  CB       -38.2170    4.4910   43.5650 C.3   187  VAL187      0.0252
    143  CG1      -38.6730    4.4710   42.1080 C.3   187  VAL187      0.0019
    144  CG2      -37.0980    3.4780   43.8020 C.3   187  VAL187      0.0019
@<TRIPOS>BOND
     1     4     3    2
     2     3     2    1
     3     2     1    1
     4     2     5    1
     5     7     8    1
     6   101   102    1
     7    20    21    2
     8    20    19    1
     9     5     6    1
    10    30    31    1
    11   103   102    1
    12   103   104    2
    13     8     9    1
    14     8    11    1
    15    22    23    1
    16   102   105    1
    17    18     9   am
    18    18    19    1
    19     9    10    2
    20    34    31    1
    21    34    35    1
    22    33    32    2
    23    24    23    1
    24    24    25    2
    25    31    32    1
    26   105   106    1
    27   108   106   ar
    28   108   110   ar
    29    37    35   ar
    30    37    39   ar
    31    23    26    1
    32    11    12    1
    33    32    41   am
    34    35    36   ar
    35   106   107   ar
    36   110   111   ar
    37    85    86    1
    38    85    82    1
    39    81    82    1
    40    88    86   ar
    41    88    90   ar
    42    39    40   ar
    43    13    12   ar
    44    13    15   ar
    45    26    27    1
    46    12    14   ar
    47    86    87   ar
    48    82    83    1
    49    41    42    1
    50    36    38   ar
    51   107   109   ar
    52   111   109   ar
    53    90    89   ar
    54    15    17   ar
    55    42    43    1
    56    40    38   ar
    57    14    16   ar
    58    87    89   ar
    59    27    28    1
    60    27    29    1
    61    83    84    2
    62    43    45   am
    63    43    44    2
    64    48    47    2
    65    17    16   ar
    66    98   100   ar
    67    98    96   ar
    68    45    46    1
    69    47    46    1
    70   100    99   ar
    71    95    96    1
    72    95    92    1
    73    96    97   ar
    74    91    92    1
    75   143   142    1
    76    99    97   ar
    77    92    93    1
    78    93    94    2
    79   118   117    1
    80   118   112    1
    81   122   121    2
    82   117   116    1
    83    59    58   ar
    84    59    57   ar
    85    58    56   ar
    86   142   144    1
    87   142   139    1
    88   121   120    1
    89   140   139    1
    90   140   141    2
    91   139   138    1
    92    80    79    1
    93   116   113    1
    94   123   120    1
    95   123   124    1
    96   112   113    1
    97    57    55   ar
    98    56    54   ar
    99   115   114    2
   100   137   135    1
   101   120   119    1
   102   125   124    1
   103   125   126    1
   104    78    79   ar
   105    78    76   ar
   106   113   114    1
   107    79    77   ar
   108    67    66   ar
   109    55    54   ar
   110    54    53    1
   111   126   127    2
   112    76    74   ar
   113   135   134    1
   114    77    75   ar
   115    49    50    1
   116    65    66    1
   117    65    64    1
   118   134   136    1
   119   134   131    1
   120    66    68   ar
   121    64    61    1
   122   127   128    1
   123   127   129    1
   124    53    50    1
   125    52    51    2
   126    74    75   ar
   127    74    73    1
   128    50    51    1
   129   132   131    1
   130   132   133    2
   131   131   130    1
   132    61    60    1
   133    61    62    1
   134    73    70    1
   135    70    69    1
   136    70    71    1
   137    62    63    2
   138    71    72    2
