@<TRIPOS>MOLECULE
tmp/4rppC00.pdb
 105 100 0 0 0
SMALL
GASTEIGER

@<TRIPOS>ATOM
      1  N         28.1120  -17.5120   62.5350 N.3   282  THR282     -0.1218
      2  CA        28.0910  -17.6500   63.9860 C.3   282  THR282      0.1862
      3  C         29.0150  -16.6340   64.6450 C.2   282  THR282      0.2287
      4  O         28.6900  -16.0680   65.6900 O.2   282  THR282     -0.2866
      5  CB        28.5060  -19.0670   64.4300 C.3   282  THR282      0.1770
      6  OG1       27.7910  -20.0420   63.6600 O.3   282  THR282     -0.2211
      7  CG2       28.2040  -19.2740   65.9080 C.3   282  THR282      0.0375
      8  N         22.7700  -21.0870   73.6790 N.3   304  LEU304     -0.1231
      9  CA        22.5120  -22.5120   73.5320 C.3   304  LEU304      0.1693
     10  C         23.6170  -23.1370   72.6940 C.2   304  LEU304      0.2593
     11  O         23.8310  -22.7490   71.5460 O.2   304  LEU304     -0.2718
     12  CB        21.1470  -22.7660   72.8900 C.3   304  LEU304      0.0284
     13  CG        19.9470  -22.9310   73.8270 C.3   304  LEU304      0.0019
     14  CD1       19.6780  -21.6560   74.6130 C.3   304  LEU304      0.0001
     15  CD2       18.7140  -23.3570   73.0450 C.3   304  LEU304      0.0001
     16  N         24.3210  -24.1040   73.2720 N.am  305  THR305     -0.1939
     17  CA        25.4340  -24.7360   72.5800 C.3   305  THR305      0.2028
     18  C         25.4610  -26.2400   72.8170 C.2   305  THR305      0.2642
     19  O         24.9910  -26.7250   73.8440 O.2   305  THR305     -0.2714
     20  CB        26.7820  -24.1300   73.0150 C.3   305  THR305      0.1808
     21  OG1       27.8410  -24.7360   72.2670 O.3   305  THR305     -0.2208
     22  CG2       27.0190  -24.3430   74.5050 C.3   305  THR305      0.0379
     23  N         25.9880  -26.9760   71.8460 N.am  306  LYS306     -0.1963
     24  CA        26.1140  -28.4210   71.9720 C.3   306  LYS306      0.1728
     25  C         27.5590  -28.8330   72.2310 C.2   306  LYS306      0.2616
     26  O         27.8300  -29.6080   73.1450 O.2   306  LYS306     -0.2715
     27  CB        25.5740  -29.1190   70.7240 C.3   306  LYS306      0.0311
     28  CG        25.1380  -30.5530   70.9710 C.3   306  LYS306      0.0038
     29  CD        24.6530  -31.2050   69.6930 C.3   306  LYS306      0.0206
     30  CE        23.1450  -31.3830   69.7330 C.3   306  LYS306      0.1093
     31  NZ        22.5310  -31.2430   68.3850 N.3   306  LYS306     -0.1314
     32  N         28.4810  -28.3200   71.4210 N.am  307  SER307     -0.1950
     33  CA        29.8950  -28.6550   71.5630 C.3   307  SER307      0.1924
     34  C         30.6510  -27.6240   72.4010 C.2   307  SER307      0.2314
     35  O         31.8110  -27.8320   72.7560 O.2   307  SER307     -0.2863
     36  CB        30.5540  -28.7860   70.1890 C.3   307  SER307      0.2116
     37  OG        30.6000  -27.5350   69.5240 O.3   307  SER307     -0.2180
     38  N         31.4800  -24.5950   71.3910 N.3   309  ARG309     -0.1231
     39  CA        32.1850  -23.6410   70.5290 C.3   309  ARG309      0.1694
     40  C         31.4930  -22.2890   70.3300 C.2   309  ARG309      0.2592
     41  O         32.1660  -21.2590   70.2770 O.2   309  ARG309     -0.2718
     42  CB        32.4800  -24.2770   69.1650 C.3   309  ARG309      0.0321
     43  CG        33.3520  -23.3930   68.2810 C.3   309  ARG309      0.0489
     44  CD        34.0020  -24.1270   67.1200 C.3   309  ARG309      0.2205
     45  NE        34.5830  -25.4000   67.5360 N.pl3 309  ARG309     -0.0865
     46  CZ        35.0050  -26.3430   66.7000 C.cat 309  ARG309      0.5346
     47  NH1       34.9110  -26.1650   65.3900 N.pl3 309  ARG309      0.1354
     48  NH2       35.5290  -27.4640   67.1770 N.pl3 309  ARG309      0.1354
     49  N         30.1690  -22.2780   70.2150 N.am  310  SER310     -0.1952
     50  CA        29.4660  -21.0170   69.9930 C.3   310  SER310      0.1924
     51  C         29.6230  -20.1050   71.2050 C.2   310  SER310      0.2314
     52  O         29.7250  -18.8870   71.0670 O.2   310  SER310     -0.2863
     53  CB        27.9840  -21.2540   69.6920 C.3   310  SER310      0.2116
     54  OG        27.3300  -21.8810   70.7800 O.3   310  SER310     -0.2180
     55  N         10.5830  -28.7930   68.4460 N.3   355  TRP355     -0.1241
     56  CA        11.9200  -28.2140   68.5440 C.3   355  TRP355      0.1605
     57  C         11.9040  -26.7770   69.0580 C.2   355  TRP355      0.2264
     58  O         12.7420  -26.3980   69.8770 O.2   355  TRP355     -0.2867
     59  CB        12.6220  -28.2680   67.1840 C.3   355  TRP355      0.0550
     60  CG        14.0010  -27.6780   67.1930 C.ar  355  TRP355      0.0003
     61  CD1       15.1120  -28.2000   67.7890 C.ar  355  TRP355      0.0946
     62  CD2       14.4180  -26.4540   66.5730 C.ar  355  TRP355      0.0152
     63  NE1       16.1930  -27.3780   67.5800 N.ar  355  TRP355     -0.2442
     64  CE2       15.7930  -26.3000   66.8360 C.ar  355  TRP355      0.0810
     65  CE3       13.7610  -25.4750   65.8210 C.ar  355  TRP355      0.0012
     66  CZ2       16.5230  -25.2060   66.3750 C.ar  355  TRP355      0.0191
     67  CZ3       14.4880  -24.3900   65.3650 C.ar  355  TRP355      0.0001
     68  CH2       15.8540  -24.2640   65.6430 C.ar  355  TRP355      0.0015
     69  N         11.4400  -26.8840   72.6910 N.3   358  ASP358     -0.1225
     70  CA        12.6400  -27.4200   73.3240 C.3   358  ASP358      0.1805
     71  C         13.7060  -26.3400   73.4710 C.2   358  ASP358      0.2597
     72  O         14.4410  -26.3090   74.4580 O.2   358  ASP358     -0.2718
     73  CB        13.1910  -28.5990   72.5200 C.3   358  ASP358      0.1424
     74  CG        14.2470  -29.3770   73.2780 C.2   358  ASP358      0.3668
     75  OD1       13.9550  -29.8370   74.4020 O.co2 358  ASP358     -0.2456
     76  OD2       15.3690  -29.5300   72.7500 O.co2 358  ASP358     -0.2456
     77  N         13.7850  -25.4570   72.4810 N.am  359  VAL359     -0.1980
     78  CA        14.7040  -24.3270   72.5350 C.3   359  VAL359      0.1595
     79  C         14.2520  -23.3480   73.6140 C.2   359  VAL359      0.2287
     80  O         15.0560  -22.8870   74.4250 O.2   359  VAL359     -0.2864
     81  CB        14.7970  -23.6050   71.1770 C.3   359  VAL359      0.0276
     82  CG1       15.5810  -22.3080   71.3140 C.3   359  VAL359      0.0022
     83  CG2       15.4370  -24.5130   70.1380 C.3   359  VAL359      0.0022
     84  N         15.0640  -24.5860   77.1340 N.3   362  ARG362     -0.1245
     85  CA        16.4500  -24.3730   77.5350 C.3   362  ARG362      0.1563
     86  C         16.7500  -22.9030   77.8220 C.2   362  ARG362      0.2260
     87  O         17.6020  -22.5890   78.6530 O.2   362  ARG362     -0.2867
     88  CB        17.3990  -24.9010   76.4570 C.3   362  ARG362      0.0307
     89  CG        17.4290  -26.4190   76.3570 C.3   362  ARG362      0.0489
     90  CD        18.3710  -26.8910   75.2610 C.3   362  ARG362      0.2205
     91  NE        17.6960  -27.0050   73.9720 N.pl3 362  ARG362     -0.0865
     92  CZ        18.3090  -27.3100   72.8320 C.cat 362  ARG362      0.5346
     93  NH1       19.6160  -27.5290   72.8170 N.pl3 362  ARG362      0.1354
     94  NH2       17.6130  -27.3940   71.7060 N.pl3 362  ARG362      0.1354
     95  N         20.9130  -18.3570   69.4830 N.3   386  THR386     -0.1203
     96  CA        20.4820  -19.6530   68.9690 C.3   386  THR386      0.1994
     97  C         20.8730  -19.7560   67.4990 C.2   386  THR386      0.2618
     98  O         21.4560  -18.8270   66.9410 O.2   386  THR386     -0.2717
     99  CB        18.9560  -19.8670   69.1070 C.3   386  THR386      0.1784
    100  OG1       18.2580  -18.7910   68.4680 O.3   386  THR386     -0.2211
    101  CG2       18.5350  -19.9400   70.5700 C.3   386  THR386      0.0376
    102  N         20.5560  -20.8840   66.8740 N.am  387  GLY387     -0.1956
    103  CA        20.8530  -21.0760   65.4650 C.3   387  GLY387      0.1869
    104  C         19.6230  -21.4020   64.6430 C.2   387  GLY387      0.2309
    105  O         18.5090  -21.4490   65.1650 O.2   387  GLY387     -0.2863
@<TRIPOS>BOND
     1     1     2    1
     2     6     5    1
     3     2     5    1
     4     2     3    1
     5     5     7    1
     6   104   105    2
     7   104   103    1
     8     3     4    2
     9    67    68   ar
    10    67    65   ar
    11    47    46    1
    12   103   102    1
    13    68    66   ar
    14    65    62   ar
    15    66    64   ar
    16    62    64   ar
    17    62    60   ar
    18    46    48    1
    19    46    45    2
    20    64    63   ar
    21   102    97   am
    22    98    97    2
    23    44    45    1
    24    44    43    1
    25    59    60    1
    26    59    56    1
    27    60    61   ar
    28    97    96    1
    29    63    61   ar
    30    43    42    1
    31    31    30    1
    32    55    56    1
    33   100    99    1
    34    56    57    1
    35    96    99    1
    36    96    95    1
    37    57    58    2
    38    99   101    1
    39    42    39    1
    40    37    36    1
    41    53    50    1
    42    53    54    1
    43    29    30    1
    44    29    28    1
    45    50    49    1
    46    50    51    1
    47    83    81    1
    48    36    33    1
    49    49    40   am
    50    41    40    2
    51    40    39    1
    52    39    38    1
    53    27    28    1
    54    27    24    1
    55    52    51    2
    56    81    82    1
    57    81    78    1
    58    32    33    1
    59    32    25   am
    60    11    10    2
    61    33    34    1
    62    94    92    1
    63    23    24    1
    64    23    18   am
    65    24    25    1
    66    25    26    2
    67    21    20    1
    68    34    35    2
    69    77    78    1
    70    77    71   am
    71    73    74    1
    72    73    70    1
    73    78    79    1
    74    17    18    1
    75    17    20    1
    76    17    16    1
    77    69    70    1
    78    10    16   am
    79    10     9    1
    80    76    74   ar
    81    18    19    2
    82    93    92    1
    83    92    91    2
    84    12     9    1
    85    12    13    1
    86    20    22    1
    87    15    13    1
    88    74    75   ar
    89    70    71    1
    90    71    72    2
    91     9     8    1
    92    79    80    2
    93    13    14    1
    94    91    90    1
    95    90    89    1
    96    89    88    1
    97    88    85    1
    98    84    85    1
    99    85    86    1
   100    86    87    2
