@<TRIPOS>MOLECULE
tmp/4rpqA00.pdb
 204 207 0 0 0
SMALL
GASTEIGER

@<TRIPOS>ATOM
      1  N         63.0450   -9.1250   49.1180 N.3    19  TRP19      -0.1241
      2  CA        63.5220   -9.8250   47.9210 C.3    19  TRP19       0.1605
      3  C         64.6160  -10.8060   48.3250 C.2    19  TRP19       0.2264
      4  O         65.5830  -10.4210   49.0030 O.2    19  TRP19      -0.2867
      5  CB        64.0360   -8.8380   46.8660 C.3    19  TRP19       0.0550
      6  CG        64.7290   -9.5010   45.7080 C.ar   19  TRP19       0.0003
      7  CD1       64.3840  -10.6740   45.0990 C.ar   19  TRP19       0.0946
      8  CD2       65.9180   -9.0470   45.0620 C.ar   19  TRP19       0.0152
      9  NE1       65.2910  -10.9760   44.1090 N.ar   19  TRP19      -0.2442
     10  CE2       66.2330   -9.9820   44.0550 C.ar   19  TRP19       0.0810
     11  CE3       66.7340   -7.9230   45.2230 C.ar   19  TRP19       0.0012
     12  CZ2       67.3490   -9.8390   43.2240 C.ar   19  TRP19       0.0191
     13  CZ3       67.8400   -7.7840   44.4050 C.ar   19  TRP19       0.0001
     14  CH2       68.1400   -8.7340   43.4150 C.ar   19  TRP19       0.0015
     15  N         56.4240  -10.2390   42.5110 N.3    46  VAL46      -0.1231
     16  CA        57.4490  -10.9990   41.8130 C.3    46  VAL46       0.1692
     17  C         58.4120  -11.6960   42.7920 C.2    46  VAL46       0.2592
     18  O         59.1250  -12.6200   42.4040 O.2    46  VAL46      -0.2718
     19  CB        58.2080  -10.1240   40.7700 C.3    46  VAL46       0.0266
     20  CG1       59.3420   -9.3530   41.4330 C.3    46  VAL46       0.0020
     21  CG2       58.7160  -10.9700   39.5970 C.3    46  VAL46       0.0020
     22  N         58.4130  -11.2880   44.0630 N.am   47  TYR47      -0.1962
     23  CA        59.3070  -11.9130   45.0450 C.3    47  TYR47       0.1771
     24  C         58.7880  -13.2830   45.4940 C.2    47  TYR47       0.2619
     25  O         59.5020  -14.0180   46.1760 O.2    47  TYR47      -0.2715
     26  CB        59.5440  -11.0180   46.2740 C.3    47  TYR47       0.0574
     27  CG        60.1520   -9.6630   45.9780 C.ar   47  TYR47      -0.0198
     28  CD1       60.7660   -9.3920   44.7550 C.ar   47  TYR47      -0.0009
     29  CD2       60.1030   -8.6490   46.9230 C.ar   47  TYR47      -0.0009
     30  CE1       61.3020   -8.1320   44.4790 C.ar   47  TYR47       0.0417
     31  CE2       60.6270   -7.3990   46.6650 C.ar   47  TYR47       0.0417
     32  CZ        61.2190   -7.1400   45.4440 C.ar   47  TYR47       0.1957
     33  OH        61.7330   -5.8840   45.1970 O.3    47  TYR47      -0.2866
     34  N         57.5470  -13.6140   45.1240 N.am   48  GLN48      -0.1977
     35  CA        56.9740  -14.9550   45.3170 C.3    48  GLN48       0.1601
     36  C         56.9010  -15.3970   46.7780 C.2    48  GLN48       0.2287
     37  O         56.9270  -16.5890   47.0820 O.2    48  GLN48      -0.2864
     38  CB        57.7190  -16.0000   44.4760 C.3    48  GLN48       0.0394
     39  CG        57.6260  -15.7960   42.9790 C.3    48  GLN48       0.0908
     40  CD        58.3180  -16.9130   42.2100 C.2    48  GLN48       0.2608
     41  OE1       59.5270  -16.8780   41.9920 O.2    48  GLN48      -0.2717
     42  NE2       57.5520  -17.9200   41.8120 N.am   48  GLN48      -0.0878
     43  N         53.8930   -5.8840   38.9190 N.3    78  TRP78      -0.1227
     44  CA        54.8980   -6.4850   38.0660 C.3    78  TRP78       0.1737
     45  C         54.7300   -6.1070   36.5800 C.2    78  TRP78       0.2595
     46  O         53.6450   -5.7200   36.1290 O.2    78  TRP78      -0.2718
     47  CB        54.9950   -8.0100   38.2900 C.3    78  TRP78       0.0564
     48  CG        56.1140   -8.5750   37.4960 C.ar   78  TRP78       0.0003
     49  CD1       56.0260   -9.4270   36.4360 C.ar   78  TRP78       0.0946
     50  CD2       57.4940   -8.2200   37.6150 C.ar   78  TRP78       0.0152
     51  NE1       57.2760   -9.6560   35.9130 N.ar   78  TRP78      -0.2442
     52  CE2       58.1940   -8.9110   36.6070 C.ar   78  TRP78       0.0810
     53  CE3       58.2080   -7.3790   38.4800 C.ar   78  TRP78       0.0012
     54  CZ2       59.5750   -8.8030   36.4520 C.ar   78  TRP78       0.0191
     55  CZ3       59.5760   -7.2690   38.3220 C.ar   78  TRP78       0.0001
     56  CH2       60.2440   -7.9800   37.3200 C.ar   78  TRP78       0.0015
     57  N         55.8220   -6.2370   35.8310 N.am   79  CYS79      -0.1970
     58  CA        55.9380   -5.7730   34.4520 C.3    79  CYS79       0.1712
     59  C         54.9490   -6.4030   33.4780 C.2    79  CYS79       0.2296
     60  O         54.6170   -5.7990   32.4660 O.2    79  CYS79      -0.2864
     61  CB        57.3580   -6.0100   33.9500 C.3    79  CYS79       0.0983
     62  SG        58.6450   -5.2460   34.9440 S.3    79  CYS79      -0.0798
     63  N         56.6470   -1.3820   39.3700 N.3   109  HIS109     -0.1226
     64  CA        57.9210   -1.9770   39.7700 C.3   109  HIS109      0.1752
     65  C         59.0820   -1.5480   38.8650 C.2   109  HIS109      0.2596
     66  O         60.1720   -1.2370   39.3620 O.2   109  HIS109     -0.2718
     67  CB        57.7680   -3.4980   39.8100 C.3   109  HIS109      0.0759
     68  CG        58.7600   -4.2040   40.6720 C.ar  109  HIS109      0.0818
     69  ND1       58.4620   -5.3900   41.3060 N.ar  109  HIS109     -0.2268
     70  CD2       60.0520   -3.9260   40.9680 C.ar  109  HIS109      0.1154
     71  CE1       59.5250   -5.8010   41.9720 C.ar  109  HIS109      0.1986
     72  NE2       60.5040   -4.9350   41.7810 N.ar  109  HIS109     -0.2212
     73  N         58.8480   -1.5550   37.5510 N.am  110  TRP110     -0.1976
     74  CA        59.8160   -1.1110   36.5450 C.3   110  TRP110      0.1640
     75  C         59.0360   -0.3840   35.4600 C.2   110  TRP110      0.2290
     76  O         57.8680   -0.6950   35.2250 O.2   110  TRP110     -0.2864
     77  CB        60.5560   -2.3120   35.9200 C.3   110  TRP110      0.0576
     78  CG        61.5180   -2.9640   36.8620 C.ar  110  TRP110      0.0006
     79  CD1       61.2270   -3.9000   37.8250 C.ar  110  TRP110      0.0946
     80  CD2       62.9180   -2.6970   36.9770 C.ar  110  TRP110      0.0152
     81  NE1       62.3610   -4.2340   38.5180 N.ar  110  TRP110     -0.2442
     82  CE2       63.4140   -3.5150   38.0150 C.ar  110  TRP110      0.0810
     83  CE3       63.8080   -1.8630   36.2900 C.ar  110  TRP110      0.0012
     84  CZ2       64.7530   -3.4940   38.4070 C.ar  110  TRP110      0.0191
     85  CZ3       65.1310   -1.8470   36.6710 C.ar  110  TRP110      0.0001
     86  CH2       65.5960   -2.6620   37.7190 C.ar  110  TRP110      0.0015
     87  N         59.4530   -0.7690   32.3870 N.3   112  THR112     -0.1218
     88  CA        59.3980   -1.6680   31.2410 C.3   112  THR112      0.1862
     89  C         58.2140   -2.6410   31.3190 C.2   112  THR112      0.2287
     90  O         58.2070   -3.5550   32.1450 O.2   112  THR112     -0.2866
     91  CB        60.6860   -2.4960   31.1930 C.3   112  THR112      0.1770
     92  OG1       60.8730   -3.1280   32.4670 O.3   112  THR112     -0.2211
     93  CG2       61.8910   -1.6190   30.8910 C.3   112  THR112      0.0375
     94  N         56.1810   -5.8180   30.0620 N.3   114  PHE114     -0.1241
     95  CA        56.4780   -7.0880   29.3950 C.3   114  PHE114      0.1605
     96  C         55.1850   -7.7200   28.9060 C.2   114  PHE114      0.2264
     97  O         54.1050   -7.4840   29.4710 O.2   114  PHE114     -0.2867
     98  CB        57.1120   -8.1020   30.3570 C.3   114  PHE114      0.0534
     99  CG        58.4450   -7.7000   30.9400 C.ar  114  PHE114     -0.0203
    100  CD1       59.1810   -6.6250   30.4670 C.ar  114  PHE114     -0.0042
    101  CD2       58.9670   -8.4410   31.9880 C.ar  114  PHE114     -0.0042
    102  CE1       60.4130   -6.3010   31.0420 C.ar  114  PHE114     -0.0003
    103  CE2       60.1830   -8.1210   32.5620 C.ar  114  PHE114     -0.0003
    104  CZ        60.9050   -7.0600   32.0950 C.ar  114  PHE114     -0.0000
    105  N         57.0050  -14.4550   34.3990 N.3   120  PHE120     -0.1227
    106  CA        57.3760  -13.1230   34.8500 C.3   120  PHE120      0.1736
    107  C         58.3470  -12.4440   33.8840 C.2   120  PHE120      0.2595
    108  O         58.3650  -11.2210   33.7830 O.2   120  PHE120     -0.2718
    109  CB        58.0040  -13.1880   36.2460 C.3   120  PHE120      0.0547
    110  CG        57.0350  -13.5300   37.3490 C.ar  120  PHE120     -0.0202
    111  CD1       55.7340  -13.0370   37.3450 C.ar  120  PHE120     -0.0042
    112  CD2       57.4330  -14.3370   38.3960 C.ar  120  PHE120     -0.0042
    113  CE1       54.8470  -13.3440   38.3690 C.ar  120  PHE120     -0.0003
    114  CE2       56.5510  -14.6490   39.4250 C.ar  120  PHE120     -0.0003
    115  CZ        55.2560  -14.1470   39.4080 C.ar  120  PHE120     -0.0000
    116  N         59.1710  -13.2370   33.2040 N.am  121  PHE121     -0.1976
    117  CA        60.1760  -12.7140   32.2860 C.3   121  PHE121      0.1639
    118  C         60.0450  -13.4080   30.9290 C.2   121  PHE121      0.2290
    119  O         60.8060  -14.3210   30.6090 O.2   121  PHE121     -0.2864
    120  CB        61.5980  -12.8800   32.8500 C.3   121  PHE121      0.0560
    121  CG        61.8730  -12.0480   34.0790 C.ar  121  PHE121     -0.0200
    122  CD1       62.4520  -10.7890   33.9710 C.ar  121  PHE121     -0.0042
    123  CD2       61.5570  -12.5260   35.3460 C.ar  121  PHE121     -0.0042
    124  CE1       62.7120  -10.0280   35.1050 C.ar  121  PHE121     -0.0003
    125  CE2       61.8020  -11.7640   36.4780 C.ar  121  PHE121     -0.0003
    126  CZ        62.3830  -10.5200   36.3560 C.ar  121  PHE121     -0.0000
    127  N         62.5090    2.5170   39.8100 N.3   159  ASN159     -0.1240
    128  CA        63.4390    2.4020   38.6860 C.3   159  ASN159      0.1653
    129  C         63.0810    3.3110   37.5210 C.2   159  ASN159      0.2266
    130  O         63.3880    2.9950   36.3710 O.2   159  ASN159     -0.2867
    131  CB        63.5650    0.9520   38.2070 C.3   159  ASN159      0.1155
    132  CG        63.9910    0.0260   39.3110 C.2   159  ASN159      0.2627
    133  OD1       65.1180    0.1270   39.8050 O.2   159  ASN159     -0.2716
    134  ND2       63.0970   -0.8770   39.7260 N.am  159  ASN159     -0.0877
    135  N         66.9130    1.3850   47.6600 N.3   208  TYR208     -0.1241
    136  CA        66.9890   -0.0600   47.7180 C.3   208  TYR208      0.1605
    137  C         68.4280   -0.5540   47.5590 C.2   208  TYR208      0.2264
    138  O         69.3140    0.1980   47.1600 O.2   208  TYR208     -0.2867
    139  CB        66.0000   -0.7030   46.7530 C.3   208  TYR208      0.0534
    140  CG        66.2880   -0.7920   45.2590 C.ar  208  TYR208     -0.0201
    141  CD1       67.3860   -1.4960   44.7630 C.ar  208  TYR208     -0.0009
    142  CD2       65.3620   -0.2950   44.3410 C.ar  208  TYR208     -0.0009
    143  CE1       67.5770   -1.6600   43.3920 C.ar  208  TYR208      0.0417
    144  CE2       65.5450   -0.4450   42.9700 C.ar  208  TYR208      0.0417
    145  CZ        66.6450   -1.1470   42.5050 C.ar  208  TYR208      0.1957
    146  OH        66.8250   -1.3470   41.1500 O.3   208  TYR208     -0.2866
    147  N         73.1060  -12.8950   40.6740 N.3   218  TRP218     -0.1241
    148  CA        74.0250  -12.6820   39.5600 C.3   218  TRP218      0.1605
    149  C         75.3390  -12.0480   40.0120 C.2   218  TRP218      0.2264
    150  O         76.1350  -11.5910   39.1860 O.2   218  TRP218     -0.2867
    151  CB        73.3620  -11.8340   38.4770 C.3   218  TRP218      0.0550
    152  CG        72.8020  -10.5460   38.9860 C.ar  218  TRP218      0.0003
    153  CD1       73.4910   -9.3870   39.2030 C.ar  218  TRP218      0.0946
    154  CD2       71.4360  -10.2740   39.3340 C.ar  218  TRP218      0.0152
    155  NE1       72.6410   -8.4120   39.6700 N.ar  218  TRP218     -0.2442
    156  CE2       71.3740   -8.9300   39.7590 C.ar  218  TRP218      0.0810
    157  CE3       70.2600  -11.0370   39.3310 C.ar  218  TRP218      0.0012
    158  CZ2       70.1850   -8.3300   40.1670 C.ar  218  TRP218      0.0191
    159  CZ3       69.0770  -10.4370   39.7430 C.ar  218  TRP218      0.0001
    160  CH2       69.0510   -9.0980   40.1520 C.ar  218  TRP218      0.0015
    161  N         71.5150   -3.6380   40.0880 N.3   297  CYS297     -0.1221
    162  CA        70.2040   -4.1320   39.6850 C.3   297  CYS297      0.1808
    163  C         69.7560   -3.6320   38.3130 C.2   297  CYS297      0.2601
    164  O         69.2560   -2.5170   38.1710 O.2   297  CYS297     -0.2717
    165  CB        69.1620   -3.8070   40.7580 C.3   297  CYS297      0.0970
    166  SG        67.6250   -4.7130   40.5870 S.3   297  CYS297     -0.0800
    167  N         69.9580   -4.4830   37.3130 N.am  298  ALA298     -0.1965
    168  CA        69.5590   -4.2290   35.9360 C.3   298  ALA298      0.1728
    169  C         69.5970   -5.5840   35.2350 C.2   298  ALA298      0.2616
    170  O         70.1710   -6.5410   35.7580 O.2   298  ALA298     -0.2715
    171  CB        70.5070   -3.2470   35.2670 C.3   298  ALA298      0.0334
    172  N         68.9750   -5.6800   34.0690 N.am  299  LEU299     -0.1977
    173  CA        68.9270   -6.9470   33.3540 C.3   299  LEU299      0.1596
    174  C         69.3360   -6.7230   31.9070 C.2   299  LEU299      0.2287
    175  O         68.7250   -5.9150   31.2000 O.2   299  LEU299     -0.2864
    176  CB        67.5170   -7.5440   33.4370 C.3   299  LEU299      0.0297
    177  CG        67.3250   -9.0430   33.2060 C.3   299  LEU299      0.0022
    178  CD1       68.2510   -9.8520   34.1020 C.3   299  LEU299      0.0001
    179  CD2       65.8750   -9.4250   33.4650 C.3   299  LEU299      0.0001
    180  N         66.9200   -6.6830   29.0420 N.3   302  CYS302     -0.1235
    181  CA        66.0030   -5.5560   28.9390 C.3   302  CYS302      0.1677
    182  C         66.6220   -4.3180   28.2960 C.2   302  CYS302      0.2270
    183  O         65.9370   -3.3080   28.1050 O.2   302  CYS302     -0.2867
    184  CB        65.4630   -5.1890   30.3210 C.3   302  CYS302      0.0956
    185  SG        64.4130   -6.4540   31.0670 S.3   302  CYS302     -0.0801
    186  N         63.7710    0.9070   28.8100 N.3   308  TYR308     -0.1228
    187  CA        64.8720    0.5790   29.7070 C.3   308  TYR308      0.1721
    188  C         65.3520    1.8620   30.3700 C.2   308  TYR308      0.2437
    189  O         65.6220    2.8460   29.6860 O.2   308  TYR308     -0.2733
    190  CB        66.0170   -0.0520   28.9340 C.3   308  TYR308      0.0547
    191  CG        67.2060   -0.4200   29.7860 C.ar  308  TYR308     -0.0200
    192  CD1       67.1460   -1.4930   30.6660 C.ar  308  TYR308     -0.0009
    193  CD2       68.4000    0.2830   29.6870 C.ar  308  TYR308     -0.0009
    194  CE1       68.2360   -1.8480   31.4360 C.ar  308  TYR308      0.0417
    195  CE2       69.5020   -0.0710   30.4490 C.ar  308  TYR308      0.0417
    196  CZ        69.4140   -1.1400   31.3190 C.ar  308  TYR308      0.1957
    197  OH        70.5010   -1.4970   32.0780 O.3   308  TYR308     -0.2866
    198  N         65.4470    1.8610   31.7080 N.am  309  PRO309     -0.2729
    199  CA        65.6520    3.1450   32.3960 C.3   309  PRO309      0.1401
    200  C         67.0900    3.6450   32.4710 C.2   309  PRO309      0.2269
    201  O         67.2870    4.8280   32.7600 O.2   309  PRO309     -0.2865
    202  CB        65.1240    2.8710   33.8110 C.3   309  PRO309      0.0296
    203  CG        65.2830    1.3860   33.9880 C.3   309  PRO309      0.0237
    204  CD        65.0180    0.7910   32.6280 C.3   309  PRO309      0.0939
@<TRIPOS>BOND
     1   183   182    2
     2   182   181    1
     3   186   187    1
     4    96    95    1
     5    96    97    2
     6   190   187    1
     7   190   191    1
     8   181   180    1
     9   181   184    1
    10    95    94    1
    11    95    98    1
    12   189   188    2
    13   193   191   ar
    14   193   195   ar
    15   187   188    1
    16   191   192   ar
    17   184   185    1
    18    98    99    1
    19   188   198   am
    20   195   196   ar
    21   100    99   ar
    22   100   102   ar
    23   119   118    2
    24   192   194   ar
    25    93    91    1
    26   118   117    1
    27    99   101   ar
    28   102   104   ar
    29    91    88    1
    30    91    92    1
    31   175   174    2
    32    88    89    1
    33    88    87    1
    34   196   194   ar
    35   196   197    1
    36    89    90    2
    37   198   199    1
    38   198   204    1
    39   174   173    1
    40   101   103   ar
    41   104   103   ar
    42   117   120    1
    43   117   116    1
    44   199   200    1
    45   199   202    1
    46    60    59    2
    47   200   201    2
    48   204   203    1
    49   120   121    1
    50   116   107   am
    51   177   176    1
    52   177   179    1
    53   177   178    1
    54   173   176    1
    55   173   172    1
    56    59    58    1
    57   108   107    2
    58   202   203    1
    59   107   106    1
    60    61    58    1
    61    61    62    1
    62   122   121   ar
    63   122   124   ar
    64   172   169   am
    65   121   123   ar
    66   105   106    1
    67    58    57    1
    68   106   109    1
    69   124   126   ar
    70    76    75    2
    71   169   170    2
    72   169   168    1
    73   171   168    1
    74   123   125   ar
    75    75    74    1
    76    57    45   am
    77    51    49   ar
    78    51    52   ar
    79    77    74    1
    80    77    78    1
    81   168   167    1
    82    46    45    2
    83   109   110    1
    84    83    85   ar
    85    83    80   ar
    86   126   125   ar
    87   130   129    2
    88    49    48   ar
    89    54    52   ar
    90    54    56   ar
    91    74    73    1
    92    45    44    1
    93    52    50   ar
    94    85    86   ar
    95    78    80   ar
    96    78    79   ar
    97    80    82   ar
    98   167   163   am
    99    56    55   ar
   100   111   110   ar
   101   111   113   ar
   102   110   112   ar
   103    48    50   ar
   104    48    47    1
   105   129   128    1
   106    73    65   am
   107    50    53   ar
   108    86    84   ar
   109    79    81   ar
   110    82    84   ar
   111    82    81   ar
   112    44    47    1
   113    44    43    1
   114   164   163    2
   115   131   128    1
   116   131   132    1
   117   163   162    1
   118    55    53   ar
   119   113   115   ar
   120   112   114   ar
   121   151   152    1
   122   151   148    1
   123   128   127    1
   124    65    66    2
   125    65    64    1
   126   152   153   ar
   127   152   154   ar
   128   150   149    2
   129   153   155   ar
   130   132   134   am
   131   132   133    2
   132   157   154   ar
   133   157   159   ar
   134   154   156   ar
   135    63    64    1
   136   115   114   ar
   137   148   149    1
   138   148   147    1
   139    21    19    1
   140   155   156   ar
   141   162   161    1
   142   162   165    1
   143   159   160   ar
   144   156   158   ar
   145    64    67    1
   146    67    68    1
   147   160   158   ar
   148   166   165    1
   149    68    70   ar
   150    68    69   ar
   151    19    20    1
   152    19    16    1
   153    70    72   ar
   154   146   145    1
   155    69    71   ar
   156    72    71   ar
   157    42    40   am
   158    16    15    1
   159    16    17    1
   160    41    40    2
   161    40    39    1
   162    18    17    2
   163   145   144   ar
   164   145   143   ar
   165    17    22   am
   166   144   142   ar
   167    39    38    1
   168    12    14   ar
   169    12    10   ar
   170   143   141   ar
   171    14    13   ar
   172    10     9   ar
   173    10     8   ar
   174    22    23    1
   175     9     7   ar
   176   142   140   ar
   177    13    11   ar
   178    38    35    1
   179    30    28   ar
   180    30    32   ar
   181    28    27   ar
   182   141   140   ar
   183    23    24    1
   184    23    26    1
   185     8    11   ar
   186     8     6   ar
   187     7     6   ar
   188    34    35    1
   189    34    24   am
   190    33    32    1
   191   140   139    1
   192    35    36    1
   193    32    31   ar
   194    24    25    2
   195     6     5    1
   196    27    26    1
   197    27    29   ar
   198    31    29   ar
   199   139   136    1
   200    36    37    2
   201     5     2    1
   202   138   137    2
   203   137   136    1
   204   135   136    1
   205     2     3    1
   206     2     1    1
   207     3     4    2
