@<TRIPOS>MOLECULE
tmp/4rpuB00.pdb
 155 148 0 0 0
SMALL
GASTEIGER

@<TRIPOS>ATOM
      1  N         48.9240   40.2270  -25.2370 N.3    28  LEU28      -0.1245
      2  CA        48.5460   40.7130  -23.9230 C.3    28  LEU28       0.1561
      3  C         49.0970   42.1030  -23.6490 C.2    28  LEU28       0.2260
      4  O         49.0930   42.5420  -22.5170 O.2    28  LEU28      -0.2867
      5  CB        49.0070   39.7390  -22.8360 C.3    28  LEU28       0.0270
      6  CG        48.4130   38.3330  -22.9270 C.3    28  LEU28       0.0019
      7  CD1       48.9070   37.4670  -21.7970 C.3    28  LEU28       0.0001
      8  CD2       46.8950   38.3750  -22.9420 C.3    28  LEU28       0.0001
      9  N         48.6230   22.4450  -21.8370 N.3   299  PHE299     -0.1241
     10  CA        47.7030   23.2180  -22.6650 C.3   299  PHE299      0.1605
     11  C         46.8190   22.2700  -23.4720 C.2   299  PHE299      0.2264
     12  O         45.6070   22.4740  -23.5950 O.2   299  PHE299     -0.2867
     13  CB        48.4860   24.1520  -23.5860 C.3   299  PHE299      0.0534
     14  CG        47.6290   25.0620  -24.4120 C.ar  299  PHE299     -0.0203
     15  CD1       47.1450   26.2430  -23.8850 C.ar  299  PHE299     -0.0042
     16  CD2       47.3450   24.7600  -25.7330 C.ar  299  PHE299     -0.0042
     17  CE1       46.3760   27.0890  -24.6460 C.ar  299  PHE299     -0.0003
     18  CE2       46.5740   25.6100  -26.5040 C.ar  299  PHE299     -0.0003
     19  CZ        46.0870   26.7730  -25.9590 C.ar  299  PHE299     -0.0000
     20  N         42.7490   21.8800  -22.7470 N.3   303  LEU303     -0.1245
     21  CA        41.7550   22.0250  -23.8060 C.3   303  LEU303      0.1561
     22  C         40.9670   20.7470  -24.0100 C.2   303  LEU303      0.2260
     23  O         39.7750   20.7880  -24.2700 O.2   303  LEU303     -0.2867
     24  CB        42.4100   22.4470  -25.1170 C.3   303  LEU303      0.0270
     25  CG        42.4800   23.9560  -25.3340 C.3   303  LEU303      0.0019
     26  CD1       43.3270   24.5900  -24.2430 C.3   303  LEU303      0.0001
     27  CD2       43.0300   24.2640  -26.7070 C.3   303  LEU303      0.0001
     28  N         39.9580   19.6280  -15.7180 N.3   334  TYR334     -0.1227
     29  CA        41.3980   19.6600  -15.5720 C.3   334  TYR334      0.1736
     30  C         41.7840   20.4380  -14.3170 C.2   334  TYR334      0.2595
     31  O         41.3090   21.5470  -14.0860 O.2   334  TYR334     -0.2718
     32  CB        42.0390   20.2780  -16.8150 C.3   334  TYR334      0.0548
     33  CG        43.5480   20.3260  -16.8020 C.ar  334  TYR334     -0.0200
     34  CD1       44.3020   19.2720  -17.2850 C.ar  334  TYR334     -0.0009
     35  CD2       44.2180   21.4430  -16.3080 C.ar  334  TYR334     -0.0009
     36  CE1       45.6930   19.3250  -17.2790 C.ar  334  TYR334      0.0417
     37  CE2       45.5960   21.5070  -16.2970 C.ar  334  TYR334      0.0417
     38  CZ        46.3330   20.4490  -16.7750 C.ar  334  TYR334      0.1957
     39  OH        47.7060   20.5240  -16.7530 O.3   334  TYR334     -0.2866
     40  N         42.6410   19.8330  -13.5040 N.am  335  ASN335     -0.1960
     41  CA        43.1150   20.4550  -12.2670 C.3   335  ASN335      0.1819
     42  C         44.6340   20.5870  -12.3030 C.2   335  ASN335      0.2622
     43  O         45.3440   19.5900  -12.2520 O.2   335  ASN335     -0.2715
     44  CB        42.6720   19.6400  -11.0480 C.3   335  ASN335      0.1195
     45  CG        41.1620   19.5180  -10.9390 C.2   335  ASN335      0.2630
     46  OD1       40.5330   20.2490  -10.1930 O.2   335  ASN335     -0.2716
     47  ND2       40.5760   18.6040  -11.7010 N.am  335  ASN335     -0.0877
     48  N         45.1220   21.8200  -12.3930 N.am  336  GLY336     -0.1940
     49  CA        46.5390   22.0730  -12.5970 C.3   336  GLY336      0.2014
     50  C         47.2190   22.9200  -11.5320 C.2   336  GLY336      0.2638
     51  O         48.1480   23.6630  -11.8360 O.2   336  GLY336     -0.2714
     52  N         46.7660   22.8050  -10.2840 N.am  337  TYR337     -0.1973
     53  CA        47.3770   23.5290   -9.1720 C.3   337  TYR337      0.1639
     54  C         48.4490   22.6920   -8.4650 C.2   337  TYR337      0.2290
     55  O         49.1780   23.1990   -7.6160 O.2   337  TYR337     -0.2864
     56  CB        46.3120   23.9870   -8.1760 C.3   337  TYR337      0.0560
     57  CG        45.4540   25.1160   -8.7080 C.ar  337  TYR337     -0.0198
     58  CD1       45.9470   26.4140   -8.7700 C.ar  337  TYR337     -0.0009
     59  CD2       44.1650   24.8800   -9.1830 C.ar  337  TYR337     -0.0009
     60  CE1       45.1790   27.4470   -9.2690 C.ar  337  TYR337      0.0417
     61  CE2       43.3880   25.9050   -9.6880 C.ar  337  TYR337      0.0417
     62  CZ        43.8970   27.1820   -9.7290 C.ar  337  TYR337      0.1957
     63  OH        43.1330   28.2040  -10.2190 O.3   337  TYR337     -0.2866
     64  N         38.7440   30.8620  -26.1250 N.3   385  ILE385     -0.1245
     65  CA        40.0490   31.2530  -25.6160 C.3   385  ILE385      0.1561
     66  C         40.4200   32.6390  -26.1140 C.2   385  ILE385      0.2260
     67  O         40.9130   33.4630  -25.3580 O.2   385  ILE385     -0.2867
     68  CB        41.1180   30.2320  -26.0220 C.3   385  ILE385      0.0252
     69  CG1       40.8540   28.9080  -25.3080 C.3   385  ILE385      0.0019
     70  CG2       42.5060   30.7450  -25.6950 C.3   385  ILE385      0.0019
     71  CD1       41.6800   27.7640  -25.8380 C.3   385  ILE385      0.0001
     72  N         38.8480   35.2020  -24.0800 N.3   388  GLN388     -0.1231
     73  CA        39.4980   35.3640  -22.7790 C.3   388  GLN388      0.1698
     74  C         40.7080   36.2780  -22.9110 C.2   388  GLN388      0.2592
     75  O         40.9280   37.1440  -22.0770 O.2   388  GLN388     -0.2718
     76  CB        39.9470   34.0210  -22.2070 C.3   388  GLN388      0.0381
     77  CG        38.8420   33.0080  -22.0610 C.3   388  GLN388      0.0905
     78  CD        37.7560   33.4830  -21.1470 C.2   388  GLN388      0.2608
     79  OE1       36.6120   33.6420  -21.5670 O.2   388  GLN388     -0.2717
     80  NE2       38.1020   33.7280  -19.8880 N.am  388  GLN388     -0.0878
     81  N         41.4610   36.1000  -23.9920 N.am  389  MET389     -0.1979
     82  CA        42.6970   36.8460  -24.2230 C.3   389  MET389      0.1605
     83  C         42.4460   38.3150  -24.5040 C.2   389  MET389      0.2287
     84  O         43.2570   39.1760  -24.1610 O.2   389  MET389     -0.2864
     85  CB        43.4610   36.2680  -25.4120 C.3   389  MET389      0.0413
     86  CG        44.0760   34.9130  -25.2000 C.3   389  MET389      0.0598
     87  SD        44.8000   34.3280  -26.7380 S.3   389  MET389     -0.1393
     88  CE        45.8050   35.7370  -27.1680 C.3   389  MET389      0.0692
     89  N         44.1520   42.6860  -13.7620 N.3   396  PHE396     -0.1241
     90  CA        44.9080   41.8090  -14.6480 C.3   396  PHE396      0.1605
     91  C         46.1680   41.2620  -13.9700 C.2   396  PHE396      0.2264
     92  O         46.4860   40.0890  -14.1030 O.2   396  PHE396     -0.2867
     93  CB        45.2630   42.5500  -15.9370 C.3   396  PHE396      0.0534
     94  CG        45.6000   41.6460  -17.0840 C.ar  396  PHE396     -0.0203
     95  CD1       44.8010   40.5620  -17.3830 C.ar  396  PHE396     -0.0042
     96  CD2       46.7230   41.8730  -17.8550 C.ar  396  PHE396     -0.0042
     97  CE1       45.1110   39.7260  -18.4380 C.ar  396  PHE396     -0.0003
     98  CE2       47.0370   41.0420  -18.9210 C.ar  396  PHE396     -0.0003
     99  CZ        46.2290   39.9690  -19.2110 C.ar  396  PHE396     -0.0000
    100  N         45.2820   38.4800  -11.4820 N.3   399  MET399     -0.1230
    101  CA        44.9380   37.2870  -12.2200 C.3   399  MET399      0.1702
    102  C         46.2070   36.5790  -12.7020 C.2   399  MET399      0.2592
    103  O         46.3540   35.3710  -12.5340 O.2   399  MET399     -0.2718
    104  CB        44.0240   37.6430  -13.3910 C.3   399  MET399      0.0401
    105  CG        43.4140   36.4550  -14.1040 C.3   399  MET399      0.0596
    106  SD        44.4420   35.9550  -15.4890 S.3   399  MET399     -0.1393
    107  CE        44.1210   37.2880  -16.6310 C.3   399  MET399      0.0692
    108  N         47.1420   37.3360  -13.2580 N.am  400  LEU400     -0.1980
    109  CA        48.3310   36.7330  -13.8340 C.3   400  LEU400      0.1596
    110  C         49.2080   36.0320  -12.8020 C.2   400  LEU400      0.2287
    111  O         49.6520   34.9100  -13.0320 O.2   400  LEU400     -0.2864
    112  CB        49.1360   37.7830  -14.5920 C.3   400  LEU400      0.0297
    113  CG        48.4530   38.2020  -15.8960 C.3   400  LEU400      0.0022
    114  CD1       49.2070   39.3230  -16.5610 C.3   400  LEU400      0.0001
    115  CD2       48.3500   37.0080  -16.8080 C.3   400  LEU400      0.0001
    116  N         48.3370   34.7550   -9.8850 N.3   402  SER402     -0.1202
    117  CA        47.6610   33.5430   -9.4260 C.3   402  SER402      0.2020
    118  C         47.7270   32.4440  -10.4680 C.2   402  SER402      0.2618
    119  O         47.9040   31.2780  -10.1460 O.2   402  SER402     -0.2717
    120  CB        46.2000   33.8240   -9.1040 C.3   402  SER402      0.2103
    121  OG        46.1110   34.9810   -8.3180 O.3   402  SER402     -0.2182
    122  N         47.5940   32.8470  -11.7250 N.am  403  TYR403     -0.1975
    123  CA        47.6050   31.9410  -12.8610 C.3   403  TYR403      0.1639
    124  C         48.9320   31.1990  -13.0530 C.2   403  TYR403      0.2290
    125  O         48.9400   29.9910  -13.2820 O.2   403  TYR403     -0.2864
    126  CB        47.2420   32.7540  -14.1080 C.3   403  TYR403      0.0560
    127  CG        47.5430   32.1630  -15.4560 C.ar  403  TYR403     -0.0198
    128  CD1       46.9910   30.9620  -15.8520 C.ar  403  TYR403     -0.0009
    129  CD2       48.2960   32.8710  -16.3790 C.ar  403  TYR403     -0.0009
    130  CE1       47.2370   30.4500  -17.1150 C.ar  403  TYR403      0.0417
    131  CE2       48.5440   32.3790  -17.6320 C.ar  403  TYR403      0.0417
    132  CZ        48.0140   31.1670  -17.9960 C.ar  403  TYR403      0.1957
    133  OH        48.2670   30.6740  -19.2440 O.3   403  TYR403     -0.2866
    134  N         51.3740   27.9230   -9.7220 N.3   406  SER406     -0.1217
    135  CA        51.6800   26.5120   -9.5640 C.3   406  SER406      0.1889
    136  C         52.7910   26.0430  -10.5140 C.2   406  SER406      0.2288
    137  O         53.6240   25.2350  -10.1370 O.2   406  SER406     -0.2866
    138  CB        50.4200   25.6720   -9.7480 C.3   406  SER406      0.2089
    139  OG        49.8990   25.8000  -11.0440 O.3   406  SER406     -0.2183
    140  N         53.3620   30.4910  -20.3510 N.3   417  LEU417     -0.1245
    141  CA        51.9360   30.5660  -20.0470 C.3   417  LEU417      0.1561
    142  C         51.3440   31.8750  -20.5600 C.2   417  LEU417      0.2260
    143  O         50.1300   32.0370  -20.6260 O.2   417  LEU417     -0.2867
    144  CB        51.6940   30.4280  -18.5410 C.3   417  LEU417      0.0270
    145  CG        52.2420   29.1660  -17.8670 C.3   417  LEU417      0.0019
    146  CD1       51.8680   29.1480  -16.4010 C.3   417  LEU417      0.0001
    147  CD2       51.7330   27.9060  -18.5640 C.3   417  LEU417      0.0001
    148  N         50.2150   32.8070  -25.4550 N.3   419  LEU419     -0.1245
    149  CA        49.0360   32.0320  -25.8190 C.3   419  LEU419      0.1561
    150  C         48.9090   31.8770  -27.3300 C.2   419  LEU419      0.2260
    151  O         48.4700   30.8380  -27.8120 O.2   419  LEU419     -0.2867
    152  CB        47.7750   32.6770  -25.2390 C.3   419  LEU419      0.0270
    153  CG        47.7090   32.6940  -23.7090 C.3   419  LEU419      0.0019
    154  CD1       46.4280   33.3580  -23.2270 C.3   419  LEU419      0.0001
    155  CD2       47.8120   31.2820  -23.1610 C.3   419  LEU419      0.0001
@<TRIPOS>BOND
     1   151   150    2
     2   150   149    1
     3    88    87    1
     4    87    86    1
     5    27    25    1
     6    18    19   ar
     7    18    16   ar
     8    64    65    1
     9    66    65    1
    10    66    67    2
    11    68    70    1
    12    68    65    1
    13    68    69    1
    14    19    17   ar
    15    71    69    1
    16   149   148    1
    17   149   152    1
    18    16    14   ar
    19    85    86    1
    20    85    82    1
    21    25    24    1
    22    25    26    1
    23   152   153    1
    24     1     2    1
    25    24    21    1
    26    17    15   ar
    27    83    82    1
    28    83    84    2
    29    14    15   ar
    30    14    13    1
    31    23    22    2
    32    82    81    1
    33    72    73    1
    34    22    21    1
    35    81    74   am
    36     2     3    1
    37     2     5    1
    38    21    20    1
    39   153   154    1
    40   153   155    1
    41     3     4    2
    42    12    11    2
    43    13    10    1
    44    11    10    1
    45     8     6    1
    46     6     5    1
    47     6     7    1
    48    74    73    1
    49    74    75    2
    50    73    76    1
    51    10     9    1
    52    76    77    1
    53    77    78    1
    54    79    78    2
    55    78    80   am
    56   143   142    2
    57   142   141    1
    58   140   141    1
    59   141   144    1
    60   133   132    1
    61    99    98   ar
    62    99    97   ar
    63    98    96   ar
    64   147   145    1
    65   144   145    1
    66    97    95   ar
    67   132   131   ar
    68   132   130   ar
    69   145   146    1
    70    96    94   ar
    71   131   129   ar
    72    95    94   ar
    73    34    36   ar
    74    34    33   ar
    75    36    38   ar
    76   130   128   ar
    77    94    93    1
    78    32    33    1
    79    32    29    1
    80   115   113    1
    81    33    35   ar
    82    38    39    1
    83    38    37   ar
    84   107   106    1
    85   114   113    1
    86   129   127   ar
    87    35    37   ar
    88    93    90    1
    89   113   112    1
    90   128   127   ar
    91    28    29    1
    92    29    30    1
    93   106   105    1
    94   127   126    1
    95    90    91    1
    96    90    89    1
    97   112   109    1
    98    30    31    2
    99    30    40   am
   100   126   123    1
   101   105   104    1
   102    92    91    2
   103   109   108    1
   104   109   110    1
   105    40    41    1
   106   104   101    1
   107   125   124    2
   108   108   102   am
   109   124   123    1
   110   111   110    2
   111   123   122    1
   112   102   103    2
   113   102   101    1
   114    49    48    1
   115    49    50    1
   116    48    42   am
   117    42    41    1
   118    42    43    2
   119    41    44    1
   120   101   100    1
   121    51    50    2
   122   122   118   am
   123    47    45   am
   124    50    52   am
   125    44    45    1
   126   139   138    1
   127    45    46    2
   128   136   137    2
   129   136   135    1
   130   118   119    2
   131   118   117    1
   132    52    53    1
   133    63    62    1
   134   116   117    1
   135   138   135    1
   136    62    61   ar
   137    62    60   ar
   138   134   135    1
   139    61    59   ar
   140   117   120    1
   141    60    58   ar
   142    59    57   ar
   143    53    54    1
   144    53    56    1
   145   120   121    1
   146    58    57   ar
   147    57    56    1
   148    54    55    2
