@<TRIPOS>MOLECULE
tmp/4rpuB01.pdb
 150 138 0 0 0
SMALL
GASTEIGER

@<TRIPOS>ATOM
      1  N         52.9580   19.6740  -14.7690 N.3   292  ILE292     -0.1245
      2  CA        52.4820   20.8880  -15.4240 C.3   292  ILE292      0.1561
      3  C         53.6110   21.7200  -16.0200 C.2   292  ILE292      0.2260
      4  O         53.3590   22.6420  -16.7840 O.2   292  ILE292     -0.2867
      5  CB        51.6840   21.7720  -14.4580 C.3   292  ILE292      0.0252
      6  CG1       52.5680   22.2180  -13.2860 C.3   292  ILE292      0.0019
      7  CG2       50.4450   21.0330  -13.9840 C.3   292  ILE292      0.0019
      8  CD1       51.8570   23.0870  -12.2730 C.3   292  ILE292      0.0001
      9  N         54.6370   22.5520  -20.4780 N.3   295  THR295     -0.1218
     10  CA        53.5640   23.5110  -20.7170 C.3   295  THR295      0.1862
     11  C         52.6610   23.1890  -21.9170 C.2   295  THR295      0.2287
     12  O         51.4440   23.3210  -21.8130 O.2   295  THR295     -0.2866
     13  CB        54.1240   24.9390  -20.8730 C.3   295  THR295      0.1770
     14  OG1       55.1250   24.9640  -21.8870 O.3   295  THR295     -0.2211
     15  CG2       54.7490   25.3950  -19.5670 C.3   295  THR295      0.0375
     16  N         50.3100   20.3820  -21.1430 N.3   298  ALA298     -0.1231
     17  CA        49.3120   20.8270  -20.1760 C.3   298  ALA298      0.1694
     18  C         48.2180   21.6620  -20.8490 C.2   298  ALA298      0.2592
     19  O         47.0500   21.6130  -20.4640 O.2   298  ALA298     -0.2718
     20  CB        49.9780   21.6170  -19.0650 C.3   298  ALA298      0.0304
     21  N         48.6230   22.4450  -21.8370 N.am  299  PHE299     -0.1976
     22  CA        47.7030   23.2180  -22.6650 C.3   299  PHE299      0.1639
     23  C         46.8190   22.2700  -23.4720 C.2   299  PHE299      0.2290
     24  O         45.6070   22.4740  -23.5950 O.2   299  PHE299     -0.2864
     25  CB        48.4860   24.1520  -23.5860 C.3   299  PHE299      0.0560
     26  CG        47.6290   25.0620  -24.4120 C.ar  299  PHE299     -0.0200
     27  CD1       47.1450   26.2430  -23.8850 C.ar  299  PHE299     -0.0042
     28  CD2       47.3450   24.7600  -25.7330 C.ar  299  PHE299     -0.0042
     29  CE1       46.3760   27.0890  -24.6460 C.ar  299  PHE299     -0.0003
     30  CE2       46.5740   25.6100  -26.5040 C.ar  299  PHE299     -0.0003
     31  CZ        46.0870   26.7730  -25.9590 C.ar  299  PHE299     -0.0000
     32  N         44.5010   20.5010  -20.9440 N.3   302  SER302     -0.1202
     33  CA        43.5250   21.4590  -20.4720 C.3   302  SER302      0.2020
     34  C         42.3910   21.6440  -21.4880 C.2   302  SER302      0.2618
     35  O         41.2220   21.5700  -21.1350 O.2   302  SER302     -0.2717
     36  CB        44.2020   22.7940  -20.1890 C.3   302  SER302      0.2103
     37  OG        43.2380   23.7800  -19.9160 O.3   302  SER302     -0.2182
     38  N         42.7490   21.8800  -22.7470 N.am  303  LEU303     -0.1979
     39  CA        41.7550   22.0250  -23.8060 C.3   303  LEU303      0.1596
     40  C         40.9670   20.7470  -24.0100 C.2   303  LEU303      0.2287
     41  O         39.7750   20.7880  -24.2700 O.2   303  LEU303     -0.2864
     42  CB        42.4100   22.4470  -25.1170 C.3   303  LEU303      0.0297
     43  CG        42.4800   23.9560  -25.3340 C.3   303  LEU303      0.0022
     44  CD1       43.3270   24.5900  -24.2430 C.3   303  LEU303      0.0001
     45  CD2       43.0300   24.2640  -26.7070 C.3   303  LEU303      0.0001
     46  N         38.2600   20.3420  -21.3570 N.3   306  SER306     -0.1217
     47  CA        37.1320   21.1790  -21.7090 C.3   306  SER306      0.1889
     48  C         36.2400   20.5000  -22.7530 C.2   306  SER306      0.2288
     49  O         35.0240   20.4780  -22.6020 O.2   306  SER306     -0.2866
     50  CB        37.6250   22.5240  -22.2260 C.3   306  SER306      0.2089
     51  OG        36.5400   23.3680  -22.5370 O.3   306  SER306     -0.2183
     52  N         39.9580   19.6280  -15.7180 N.3   334  TYR334     -0.1241
     53  CA        41.3980   19.6600  -15.5720 C.3   334  TYR334      0.1605
     54  C         41.7840   20.4380  -14.3170 C.2   334  TYR334      0.2264
     55  O         41.3090   21.5470  -14.0860 O.2   334  TYR334     -0.2867
     56  CB        42.0390   20.2780  -16.8150 C.3   334  TYR334      0.0534
     57  CG        43.5480   20.3260  -16.8020 C.ar  334  TYR334     -0.0201
     58  CD1       44.3020   19.2720  -17.2850 C.ar  334  TYR334     -0.0009
     59  CD2       44.2180   21.4430  -16.3080 C.ar  334  TYR334     -0.0009
     60  CE1       45.6930   19.3250  -17.2790 C.ar  334  TYR334      0.0417
     61  CE2       45.5960   21.5070  -16.2970 C.ar  334  TYR334      0.0417
     62  CZ        46.3330   20.4490  -16.7750 C.ar  334  TYR334      0.1957
     63  OH        47.7060   20.5240  -16.7530 O.3   334  TYR334     -0.2866
     64  N         45.1220   21.8200  -12.3930 N.3   336  GLY336     -0.1225
     65  CA        46.5390   22.0730  -12.5970 C.3   336  GLY336      0.1811
     66  C         47.2190   22.9200  -11.5320 C.2   336  GLY336      0.2280
     67  O         48.1480   23.6630  -11.8360 O.2   336  GLY336     -0.2866
     68  N         35.9110   26.2670  -29.1680 N.3   382  LEU382     -0.1245
     69  CA        36.7860   26.3220  -28.0090 C.3   382  LEU382      0.1561
     70  C         37.9230   27.3300  -28.1940 C.2   382  LEU382      0.2260
     71  O         38.2420   28.0860  -27.2890 O.2   382  LEU382     -0.2867
     72  CB        37.3470   24.9350  -27.7140 C.3   382  LEU382      0.0270
     73  CG        38.2710   24.8450  -26.4980 C.3   382  LEU382      0.0019
     74  CD1       37.5030   25.2710  -25.2710 C.3   382  LEU382      0.0001
     75  CD2       38.8060   23.4390  -26.3280 C.3   382  LEU382      0.0001
     76  N         38.7440   30.8620  -26.1250 N.3   385  ILE385     -0.1245
     77  CA        40.0490   31.2530  -25.6160 C.3   385  ILE385      0.1561
     78  C         40.4200   32.6390  -26.1140 C.2   385  ILE385      0.2260
     79  O         40.9130   33.4630  -25.3580 O.2   385  ILE385     -0.2867
     80  CB        41.1180   30.2320  -26.0220 C.3   385  ILE385      0.0252
     81  CG1       40.8540   28.9080  -25.3080 C.3   385  ILE385      0.0019
     82  CG2       42.5060   30.7450  -25.6950 C.3   385  ILE385      0.0019
     83  CD1       41.6800   27.7640  -25.8380 C.3   385  ILE385      0.0001
     84  N         38.8480   35.2020  -24.0800 N.3   388  GLN388     -0.1245
     85  CA        39.4980   35.3640  -22.7790 C.3   388  GLN388      0.1566
     86  C         40.7080   36.2780  -22.9110 C.2   388  GLN388      0.2260
     87  O         40.9280   37.1440  -22.0770 O.2   388  GLN388     -0.2867
     88  CB        39.9470   34.0210  -22.2070 C.3   388  GLN388      0.0367
     89  CG        38.8420   33.0080  -22.0610 C.3   388  GLN388      0.0905
     90  CD        37.7560   33.4830  -21.1470 C.2   388  GLN388      0.2608
     91  OE1       36.6120   33.6420  -21.5670 O.2   388  GLN388     -0.2717
     92  NE2       38.1020   33.7280  -19.8880 N.am  388  GLN388     -0.0878
     93  N         47.5940   32.8470  -11.7250 N.3   403  TYR403     -0.1241
     94  CA        47.6050   31.9410  -12.8610 C.3   403  TYR403      0.1605
     95  C         48.9320   31.1990  -13.0530 C.2   403  TYR403      0.2264
     96  O         48.9400   29.9910  -13.2820 O.2   403  TYR403     -0.2867
     97  CB        47.2420   32.7540  -14.1080 C.3   403  TYR403      0.0534
     98  CG        47.5430   32.1630  -15.4560 C.ar  403  TYR403     -0.0201
     99  CD1       46.9910   30.9620  -15.8520 C.ar  403  TYR403     -0.0009
    100  CD2       48.2960   32.8710  -16.3790 C.ar  403  TYR403     -0.0009
    101  CE1       47.2370   30.4500  -17.1150 C.ar  403  TYR403      0.0417
    102  CE2       48.5440   32.3790  -17.6320 C.ar  403  TYR403      0.0417
    103  CZ        48.0140   31.1670  -17.9960 C.ar  403  TYR403      0.1957
    104  OH        48.2670   30.6740  -19.2440 O.3   403  TYR403     -0.2866
    105  N         51.3740   27.9230   -9.7220 N.3   406  SER406     -0.1202
    106  CA        51.6800   26.5120   -9.5640 C.3   406  SER406      0.2020
    107  C         52.7910   26.0430  -10.5140 C.2   406  SER406      0.2619
    108  O         53.6240   25.2350  -10.1370 O.2   406  SER406     -0.2717
    109  CB        50.4200   25.6720   -9.7480 C.3   406  SER406      0.2103
    110  OG        49.8990   25.8000  -11.0440 O.3   406  SER406     -0.2182
    111  N         52.7960   26.5450  -11.7420 N.am  407  CYS407     -0.1969
    112  CA        53.8330   26.2030  -12.7040 C.3   407  CYS407      0.1712
    113  C         55.2020   26.7470  -12.2590 C.2   407  CYS407      0.2296
    114  O         56.1900   26.0260  -12.2510 O.2   407  CYS407     -0.2864
    115  CB        53.4510   26.7320  -14.0880 C.3   407  CYS407      0.0983
    116  SG        54.6400   26.4180  -15.4020 S.3   407  CYS407     -0.0798
    117  N         55.9980   31.0520  -20.7890 N.3   416  GLU416     -0.1231
    118  CA        55.3370   30.1850  -21.7550 C.3   416  GLU416      0.1699
    119  C         53.8200   30.1140  -21.5420 C.2   416  GLU416      0.2592
    120  O         53.0880   29.7250  -22.4470 O.2   416  GLU416     -0.2718
    121  CB        55.9520   28.7830  -21.7170 C.3   416  GLU416      0.0402
    122  CG        57.3720   28.7420  -22.2780 C.3   416  GLU416      0.1161
    123  CD        57.4480   29.2840  -23.7100 C.2   416  GLU416      0.3649
    124  OE1       56.7700   28.7310  -24.5990 O.co2 416  GLU416     -0.2457
    125  OE2       58.1690   30.2820  -23.9460 O.co2 416  GLU416     -0.2457
    126  N         53.3620   30.4910  -20.3510 N.am  417  LEU417     -0.1980
    127  CA        51.9360   30.5660  -20.0470 C.3   417  LEU417      0.1596
    128  C         51.3440   31.8750  -20.5600 C.2   417  LEU417      0.2287
    129  O         50.1300   32.0370  -20.6260 O.2   417  LEU417     -0.2864
    130  CB        51.6940   30.4280  -18.5410 C.3   417  LEU417      0.0297
    131  CG        52.2420   29.1660  -17.8670 C.3   417  LEU417      0.0022
    132  CD1       51.8680   29.1480  -16.4010 C.3   417  LEU417      0.0001
    133  CD2       51.7330   27.9060  -18.5640 C.3   417  LEU417      0.0001
    134  N         50.2150   32.8070  -25.4550 N.3   419  LEU419     -0.1245
    135  CA        49.0360   32.0320  -25.8190 C.3   419  LEU419      0.1561
    136  C         48.9090   31.8770  -27.3300 C.2   419  LEU419      0.2260
    137  O         48.4700   30.8380  -27.8120 O.2   419  LEU419     -0.2867
    138  CB        47.7750   32.6770  -25.2390 C.3   419  LEU419      0.0270
    139  CG        47.7090   32.6940  -23.7090 C.3   419  LEU419      0.0019
    140  CD1       46.4280   33.3580  -23.2270 C.3   419  LEU419      0.0001
    141  CD2       47.8120   31.2820  -23.1610 C.3   419  LEU419      0.0001
    142  N         50.8280   28.8520  -28.2200 N.3   422  GLN422     -0.1245
    143  CA        50.1850   27.6260  -27.7780 C.3   422  GLN422      0.1566
    144  C         49.0530   27.2610  -28.7350 C.2   422  GLN422      0.2260
    145  O         48.9200   26.1140  -29.1330 O.2   422  GLN422     -0.2867
    146  CB        49.6610   27.7810  -26.3440 C.3   422  GLN422      0.0367
    147  CG        50.7230   28.2230  -25.3390 C.3   422  GLN422      0.0905
    148  CD        51.8240   27.2000  -25.1240 C.2   422  GLN422      0.2608
    149  OE1       51.7610   26.0860  -25.6220 O.2   422  GLN422     -0.2717
    150  NE2       52.8420   27.5850  -24.3730 N.am  422  GLN422     -0.0878
@<TRIPOS>BOND
     1    68    69    1
     2   145   144    2
     3   144   143    1
     4   142   143    1
     5    70    69    1
     6    70    71    2
     7    69    72    1
     8   137   136    2
     9   143   146    1
    10    72    73    1
    11   136   135    1
    12    45    43    1
    13    30    31   ar
    14    30    28   ar
    15    73    75    1
    16    73    74    1
    17   146   147    1
    18    76    77    1
    19    78    77    1
    20    78    79    2
    21    80    82    1
    22    80    77    1
    23    80    81    1
    24    31    29   ar
    25    83    81    1
    26   135   134    1
    27   135   138    1
    28    28    26   ar
    29   149   148    2
    30   147   148    1
    31    43    42    1
    32    43    44    1
    33   138   139    1
    34   148   150   am
    35    42    39    1
    36    29    27   ar
    37   124   123   ar
    38    26    27   ar
    39    26    25    1
    40    41    40    2
    41    84    85    1
    42    40    39    1
    43   125   123   ar
    44    39    38    1
    45   123   122    1
    46   139   140    1
    47   139   141    1
    48    24    23    2
    49    25    22    1
    50    23    22    1
    51    86    85    1
    52    86    87    2
    53    85    88    1
    54    48    49    2
    55    48    47    1
    56    38    34   am
    57    22    21    1
    58    51    50    1
    59   120   119    2
    60   122   121    1
    61    50    47    1
    62    88    89    1
    63    89    90    1
    64    11    12    2
    65    11    10    1
    66    14    13    1
    67    21    18   am
    68   118   121    1
    69   118   119    1
    70   118   117    1
    71    47    46    1
    72    91    90    2
    73   119   126   am
    74    34    35    2
    75    34    33    1
    76    90    92   am
    77    16    17    1
    78    32    33    1
    79    13    10    1
    80    13    15    1
    81    18    19    2
    82    18    17    1
    83    10     9    1
    84   129   128    2
    85   128   127    1
    86    33    36    1
    87   126   127    1
    88    36    37    1
    89    17    20    1
    90   127   130    1
    91   104   103    1
    92   133   131    1
    93   130   131    1
    94   103   102   ar
    95   103   101   ar
    96   131   132    1
    97   102   100   ar
    98    58    60   ar
    99    58    57   ar
   100    60    62   ar
   101   101    99   ar
   102    56    57    1
   103    56    53    1
   104    57    59   ar
   105     4     3    2
   106    62    63    1
   107    62    61   ar
   108   100    98   ar
   109    59    61   ar
   110     3     2    1
   111    99    98   ar
   112    52    53    1
   113    53    54    1
   114    98    97    1
   115     2     1    1
   116     2     5    1
   117   116   115    1
   118     5     7    1
   119     5     6    1
   120    54    55    2
   121    97    94    1
   122   115   112    1
   123     6     8    1
   124    96    95    2
   125    95    94    1
   126    94    93    1
   127   112   113    1
   128   112   111    1
   129    65    64    1
   130    65    66    1
   131   113   114    2
   132    67    66    2
   133   111   107   am
   134   110   109    1
   135   107   108    2
   136   107   106    1
   137   109   106    1
   138   105   106    1
