@<TRIPOS>MOLECULE
tmp/4rpvA00.pdb
 178 166 0 0 0
SMALL
GASTEIGER

@<TRIPOS>ATOM
      1  N        -25.3320  -34.7160    3.2920 N.3    12  LEU12      -0.1231
      2  CA       -24.4590  -35.8300    3.6690 C.3    12  LEU12       0.1693
      3  C        -23.2190  -35.3350    4.3660 C.2    12  LEU12       0.2592
      4  O        -22.6820  -36.0020    5.2400 O.2    12  LEU12      -0.2718
      5  CB       -24.0240  -36.6090    2.4450 C.3    12  LEU12       0.0284
      6  CG       -25.0380  -37.5850    1.8850 C.3    12  LEU12       0.0019
      7  CD1      -24.5970  -38.1250    0.5240 C.3    12  LEU12       0.0001
      8  CD2      -25.1840  -38.6830    2.8970 C.3    12  LEU12       0.0001
      9  N        -22.7440  -34.1690    3.9610 N.am   13  GLY13      -0.1957
     10  CA       -21.5680  -33.6260    4.5970 C.3    13  GLY13       0.1869
     11  C        -21.2400  -32.2540    4.0710 C.2    13  GLY13       0.2309
     12  O        -21.8750  -31.7640    3.1430 O.2    13  GLY13      -0.2863
     13  N        -14.3290  -29.3060    1.1170 N.3    17  PHE17      -0.1241
     14  CA       -14.8260  -29.8110   -0.1450 C.3    17  PHE17       0.1605
     15  C        -16.1370  -29.1620   -0.5680 C.2    17  PHE17       0.2264
     16  O        -16.5930  -29.3330   -1.7100 O.2    17  PHE17      -0.2867
     17  CB       -15.0870  -31.3020   -0.0490 C.3    17  PHE17       0.0534
     18  CG       -15.9220  -31.7040    1.1630 C.ar   17  PHE17      -0.0203
     19  CD1      -15.3430  -31.7480    2.4330 C.ar   17  PHE17      -0.0042
     20  CD2      -17.2550  -32.1120    1.0120 C.ar   17  PHE17      -0.0042
     21  CE1      -16.0750  -32.1900    3.5250 C.ar   17  PHE17      -0.0003
     22  CE2      -17.9850  -32.5540    2.1080 C.ar   17  PHE17      -0.0003
     23  CZ       -17.3960  -32.5960    3.3570 C.ar   17  PHE17      -0.0000
     24  N        -22.1430  -31.5600    0.5490 N.3    20  VAL20      -0.1245
     25  CA       -22.6060  -32.7000   -0.2340 C.3    20  VAL20       0.1561
     26  C        -23.9750  -33.1580    0.2220 C.2    20  VAL20       0.2260
     27  O        -24.1650  -33.4940    1.3850 O.2    20  VAL20      -0.2867
     28  CB       -21.6320  -33.8980   -0.1300 C.3    20  VAL20       0.0252
     29  CG1      -22.1590  -35.0510   -0.9540 C.3    20  VAL20       0.0019
     30  CG2      -20.2610  -33.5030   -0.6130 C.3    20  VAL20       0.0019
     31  N        -24.8970  -38.1010   -5.5620 N.3    33  ALA33      -0.1245
     32  CA       -24.3930  -37.1560   -4.5980 C.3    33  ALA33       0.1562
     33  C        -24.3900  -35.8470   -5.3480 C.2    33  ALA33       0.2260
     34  O        -24.0860  -35.8250   -6.5400 O.2    33  ALA33      -0.2867
     35  CB       -23.0020  -37.5270   -4.1890 C.3    33  ALA33       0.0290
     36  N        -22.6810  -32.2530   -5.1160 N.3    35  LYS35      -0.1245
     37  CA       -21.7040  -31.4270   -4.4410 C.3    35  LYS35       0.1561
     38  C        -21.7220  -29.9880   -4.8980 C.2    35  LYS35       0.2260
     39  O        -21.5720  -29.6850   -6.0790 O.2    35  LYS35      -0.2867
     40  CB       -20.3180  -32.0150   -4.6340 C.3    35  LYS35       0.0271
     41  CG       -19.2960  -31.2510   -3.8520 C.3    35  LYS35       0.0035
     42  CD       -18.0170  -31.9970   -3.6580 C.3    35  LYS35       0.0206
     43  CE       -16.8680  -31.5360   -4.4910 C.3    35  LYS35       0.1093
     44  NZ       -15.5960  -32.0850   -3.9150 N.3    35  LYS35      -0.1314
     45  N        -10.9500  -29.7670  -10.2820 N.3    57  GLU57      -0.1245
     46  CA       -11.5750  -30.9840   -9.8300 C.3    57  GLU57       0.1567
     47  C        -12.4310  -31.5630  -10.9300 C.2    57  GLU57       0.2260
     48  O        -12.4910  -32.7760  -11.1180 O.2    57  GLU57      -0.2867
     49  CB       -12.4170  -30.6860   -8.6100 C.3    57  GLU57       0.0388
     50  CG       -13.5790  -31.5850   -8.3300 C.3    57  GLU57       0.1160
     51  CD       -13.9970  -31.5190   -6.8760 C.2    57  GLU57       0.3649
     52  OE1      -14.1800  -30.3760   -6.3770 O.co2  57  GLU57      -0.2457
     53  OE2      -14.1310  -32.6120   -6.2470 O.co2  57  GLU57      -0.2457
     54  N        -15.2760  -43.0140   -7.9180 N.3    72  ILE72      -0.1245
     55  CA       -16.6370  -42.4900   -7.9770 C.3    72  ILE72       0.1561
     56  C        -16.5510  -41.6150   -9.2130 C.2    72  ILE72       0.2260
     57  O        -15.6420  -40.8080   -9.3070 O.2    72  ILE72      -0.2867
     58  CB       -16.9550  -41.5730   -6.7800 C.3    72  ILE72       0.0252
     59  CG1      -17.2360  -42.3970   -5.5430 C.3    72  ILE72       0.0019
     60  CG2      -18.1640  -40.7500   -7.0650 C.3    72  ILE72       0.0019
     61  CD1      -18.4120  -43.2680   -5.6710 C.3    72  ILE72       0.0001
     62  N        -22.3310  -36.5130   -8.6580 N.3    88  LEU88      -0.1231
     63  CA       -21.4460  -37.6790   -8.5390 C.3    88  LEU88       0.1693
     64  C        -22.2200  -38.9260   -8.1370 C.2    88  LEU88       0.2592
     65  O        -23.3070  -38.8280   -7.5760 O.2    88  LEU88      -0.2718
     66  CB       -20.3970  -37.4270   -7.4620 C.3    88  LEU88       0.0284
     67  CG       -19.3710  -36.3390   -7.7000 C.3    88  LEU88       0.0019
     68  CD1      -18.9460  -35.7440   -6.3880 C.3    88  LEU88       0.0001
     69  CD2      -18.2070  -36.9350   -8.4520 C.3    88  LEU88       0.0001
     70  N        -21.6400  -40.0930   -8.3950 N.am   89  GLU89      -0.1966
     71  CA       -22.2680  -41.3570   -8.0320 C.3    89  GLU89       0.1733
     72  C        -22.5270  -41.4410   -6.5400 C.2    89  GLU89       0.2616
     73  O        -21.9840  -40.6560   -5.7590 O.2    89  GLU89      -0.2715
     74  CB       -21.3670  -42.5120   -8.4020 C.3    89  GLU89       0.0429
     75  CG       -21.1630  -42.7720   -9.8510 C.3    89  GLU89       0.1163
     76  CD       -20.4790  -44.1020  -10.0630 C.2    89  GLU89       0.3649
     77  OE1      -19.2610  -44.1980   -9.7640 O.co2  89  GLU89      -0.2457
     78  OE2      -21.1680  -45.0540  -10.5070 O.co2  89  GLU89      -0.2457
     79  N        -23.3520  -42.4030   -6.1420 N.am   90  ARG90      -0.1964
     80  CA       -23.6460  -42.5930   -4.7270 C.3    90  ARG90       0.1714
     81  C        -23.9530  -44.0390   -4.3980 C.2    90  ARG90       0.2458
     82  O        -25.0670  -44.5180   -4.5960 O.2    90  ARG90      -0.2730
     83  CB       -24.8150  -41.7160   -4.2680 C.3    90  ARG90       0.0347
     84  CG       -24.7720  -41.9690   -2.7490 C.3    90  ARG90       0.0492
     85  CD       -25.6270  -40.8610   -2.1910 C.3    90  ARG90       0.2205
     86  NE       -26.9350  -40.8330   -2.8300 N.pl3  90  ARG90      -0.0865
     87  CZ       -27.9040  -41.6980   -2.5690 C.cat  90  ARG90       0.5346
     88  NH1      -27.7100  -42.6640   -1.6700 N.pl3  90  ARG90       0.1354
     89  NH2      -29.0640  -41.5910   -3.2050 N.pl3  90  ARG90       0.1354
     90  N        -22.9530  -44.7690   -3.9110 N.am   91  PRO91      -0.2727
     91  CA       -23.2100  -46.1650   -3.5700 C.3    91  PRO91       0.1402
     92  C        -24.3040  -46.1750   -2.5000 C.2    91  PRO91       0.2269
     93  O        -24.6100  -45.1440   -1.8810 O.2    91  PRO91      -0.2865
     94  CB       -21.8760  -46.6340   -2.9850 C.3    91  PRO91       0.0296
     95  CG       -20.8820  -45.7630   -3.6560 C.3    91  PRO91       0.0237
     96  CD       -21.5490  -44.4130   -3.6720 C.3    91  PRO91       0.0939
     97  N        -23.3940  -47.4310    1.6840 N.3    94  VAL94      -0.1231
     98  CA       -21.9910  -47.0610    1.5350 C.3    94  VAL94       0.1692
     99  C        -21.4280  -46.5180    2.8650 C.2    94  VAL94       0.2592
    100  O        -22.1730  -46.0260    3.7000 O.2    94  VAL94      -0.2718
    101  CB       -21.8680  -45.9980    0.4370 C.3    94  VAL94       0.0266
    102  CG1      -22.5790  -44.7480    0.8580 C.3    94  VAL94       0.0020
    103  CG2      -20.4320  -45.7180    0.1550 C.3    94  VAL94       0.0020
    104  N        -20.1220  -46.6280    3.0760 N.am   95  GLN95      -0.1966
    105  CA       -19.5040  -46.1150    4.3030 C.3    95  GLN95       0.1733
    106  C        -18.0460  -45.7810    3.9780 C.2    95  GLN95       0.2616
    107  O        -17.3930  -46.5410    3.2800 O.2    95  GLN95      -0.2715
    108  CB       -19.5900  -47.1560    5.4300 C.3    95  GLN95       0.0408
    109  CG       -18.8800  -46.6240    6.6830 C.3    95  GLN95       0.0908
    110  CD       -19.0370  -47.5160    7.9340 C.2    95  GLN95       0.2608
    111  OE1      -18.8210  -48.7290    7.8800 O.2    95  GLN95      -0.2717
    112  NE2      -19.3960  -46.9030    9.0670 N.am   95  GLN95      -0.0878
    113  N        -17.5220  -44.6500    4.4430 N.am   96  ASP96      -0.1971
    114  CA       -16.1430  -44.3560    4.1000 C.3    96  ASP96       0.1709
    115  C        -15.2060  -45.2020    4.9430 C.2    96  ASP96       0.2293
    116  O        -15.5790  -45.6820    6.0120 O.2    96  ASP96      -0.2864
    117  CB       -15.8420  -42.8550    4.2250 C.3    96  ASP96       0.1436
    118  CG       -15.8730  -42.3570    5.6400 C.2    96  ASP96       0.3671
    119  OD1      -16.2030  -41.1720    5.8300 O.co2  96  ASP96      -0.2456
    120  OD2      -15.5500  -43.1230    6.5610 O.co2  96  ASP96      -0.2456
    121  N        -14.7480  -44.1760    8.9160 N.3    99  ASP99      -0.1239
    122  CA       -15.7070  -44.6870    9.8630 C.3    99  ASP99       0.1674
    123  C        -15.6670  -46.1900    9.9820 C.2    99  ASP99       0.2266
    124  O        -15.9490  -46.7380   11.0430 O.2    99  ASP99      -0.2867
    125  CB       -17.0930  -44.2320    9.4780 C.3    99  ASP99       0.1410
    126  CG       -17.2290  -42.7450    9.5510 C.2    99  ASP99       0.3668
    127  OD1      -16.5960  -42.1600   10.4590 O.co2  99  ASP99      -0.2456
    128  OD2      -17.9620  -42.1660    8.7180 O.co2  99  ASP99      -0.2456
    129  N         -6.4580  -41.0700    1.4470 N.3   137  LYS137     -0.1245
    130  CA        -6.6280  -41.3890    2.8550 C.3   137  LYS137      0.1561
    131  C         -7.8990  -42.1870    3.0830 C.2   137  LYS137      0.2260
    132  O         -8.6420  -42.4500    2.1540 O.2   137  LYS137     -0.2867
    133  CB        -6.6370  -40.1090    3.6870 C.3   137  LYS137      0.0271
    134  CG        -7.5110  -38.9370    3.3160 C.3   137  LYS137      0.0035
    135  CD        -7.2540  -37.8580    4.3510 C.3   137  LYS137      0.0206
    136  CE        -8.1580  -36.7290    3.8990 C.3   137  LYS137      0.1093
    137  NZ        -8.1690  -35.6130    4.8710 N.3   137  LYS137     -0.1314
    138  N        -10.4330  -41.2120    4.6160 N.3   139  GLU139     -0.1231
    139  CA       -11.5840  -40.3270    4.5270 C.3   139  GLU139      0.1699
    140  C        -12.0190  -40.1390    3.0870 C.2   139  GLU139      0.2592
    141  O        -13.1810  -39.8620    2.8290 O.2   139  GLU139     -0.2718
    142  CB       -11.2610  -38.9640    5.0900 C.3   139  GLU139      0.0402
    143  CG       -11.1370  -38.7740    6.5510 C.3   139  GLU139      0.1161
    144  CD       -10.7960  -37.3400    6.8710 C.2   139  GLU139      0.3649
    145  OE1       -9.5860  -37.0190    6.9480 O.co2 139  GLU139     -0.2457
    146  OE2      -11.7440  -36.5280    7.0200 O.co2 139  GLU139     -0.2457
    147  N        -11.0910  -40.2830    2.1480 N.am  140  ASN140     -0.1974
    148  CA       -11.4390  -40.1090    0.7570 C.3   140  ASN140      0.1688
    149  C        -11.6050  -41.3800   -0.0250 C.2   140  ASN140      0.2292
    150  O        -11.3440  -41.4100   -1.2240 O.2   140  ASN140     -0.2864
    151  CB       -10.4250  -39.2220    0.0840 C.3   140  ASN140      0.1181
    152  CG       -10.4170  -37.8600    0.6740 C.2   140  ASN140      0.2629
    153  OD1      -11.4610  -37.3690    1.1020 O.2   140  ASN140     -0.2716
    154  ND2       -9.2520  -37.2250    0.7050 N.am  140  ASN140     -0.0877
    155  N        -14.5910  -44.4520   -0.2750 N.3   142  LEU142     -0.1245
    156  CA       -15.9000  -44.9710    0.1140 C.3   142  LEU142      0.1561
    157  C        -15.9640  -46.4710   -0.1110 C.2   142  LEU142      0.2260
    158  O        -15.3030  -46.9940   -0.9960 O.2   142  LEU142     -0.2867
    159  CB       -17.0030  -44.3040   -0.7060 C.3   142  LEU142      0.0270
    160  CG       -17.2220  -42.7860   -0.6450 C.3   142  LEU142      0.0019
    161  CD1      -18.2250  -42.4060   -1.7070 C.3   142  LEU142      0.0001
    162  CD2      -17.7310  -42.3580    0.7210 C.3   142  LEU142      0.0001
    163  N        -12.5670  -40.7580   -3.8560 N.3   153  ILE153     -0.1231
    164  CA       -13.3560  -39.5490   -3.9200 C.3   153  ILE153      0.1692
    165  C        -12.5130  -38.3680   -3.5140 C.2   153  ILE153      0.2592
    166  O        -11.4600  -38.5280   -2.9050 O.2   153  ILE153     -0.2718
    167  CB       -14.5850  -39.6040   -3.0030 C.3   153  ILE153      0.0266
    168  CG1      -14.1460  -39.7090   -1.5510 C.3   153  ILE153      0.0019
    169  CG2      -15.4530  -40.7910   -3.3630 C.3   153  ILE153      0.0020
    170  CD1      -15.2810  -39.6750   -0.5830 C.3   153  ILE153      0.0001
    171  N        -12.9880  -37.1870   -3.8940 N.am  154  ASP154     -0.1974
    172  CA       -12.3480  -35.9140   -3.6060 C.3   154  ASP154      0.1709
    173  C        -11.0470  -35.6540   -4.3530 C.2   154  ASP154      0.2293
    174  O         -9.9590  -35.9430   -3.8630 O.2   154  ASP154     -0.2864
    175  CB       -12.1210  -35.7690   -2.1100 C.3   154  ASP154      0.1436
    176  CG       -12.1840  -34.3300   -1.6580 C.2   154  ASP154      0.3671
    177  OD1      -12.3120  -33.4400   -2.5270 O.co2 154  ASP154     -0.2456
    178  OD2      -12.1070  -34.0880   -0.4350 O.co2 154  ASP154     -0.2456
@<TRIPOS>BOND
     1    48    47    2
     2    47    46    1
     3    78    76   ar
     4    45    46    1
     5    76    75    1
     6    76    77   ar
     7    75    74    1
     8    46    49    1
     9    57    56    2
    10    56    55    1
    11    62    63    1
    12    49    50    1
    13    63    64    1
    14    63    66    1
    15    69    67    1
    16    74    71    1
    17    70    64   am
    18    70    71    1
    19    50    51    1
    20    64    65    2
    21    71    72    1
    22    55    54    1
    23    55    58    1
    24    67    66    1
    25    67    68    1
    26    60    58    1
    27    51    52   ar
    28    51    53   ar
    29    58    59    1
    30    34    33    2
    31    72    79   am
    32    72    73    2
    33    79    80    1
    34    39    38    2
    35    61    59    1
    36    31    32    1
    37    33    32    1
    38    36    37    1
    39    38    37    1
    40    80    81    1
    41    80    83    1
    42    40    37    1
    43    40    41    1
    44    32    35    1
    45    82    81    2
    46    43    44    1
    47    43    42    1
    48    81    90   am
    49   173   174    2
    50   173   172    1
    51    83    84    1
    52   164   163    1
    53   164   165    1
    54   164   167    1
    55    90    96    1
    56    90    91    1
    57   171   172    1
    58   171   165   am
    59    41    42    1
    60    96    95    1
    61    95    94    1
    62   172   175    1
    63    91    94    1
    64    91    92    1
    65   165   166    2
    66   169   167    1
    67    89    87    1
    68   167   168    1
    69    86    87    2
    70    86    85    1
    71    84    85    1
    72    87    88    1
    73   177   176   ar
    74    92    93    2
    75   175   176    1
    76    16    15    2
    77   161   160    1
    78   176   178   ar
    79   168   170    1
    80   150   149    2
    81   158   157    2
    82    29    28    1
    83   159   160    1
    84   159   156    1
    85   160   162    1
    86    30    28    1
    87    15    14    1
    88   155   156    1
    89    25    28    1
    90    25    26    1
    91    25    24    1
    92    14    17    1
    93    14    13    1
    94   157   156    1
    95    17    18    1
    96   149   148    1
    97   151   152    1
    98   151   148    1
    99   103   101    1
   100    26    27    2
   101   101   102    1
   102   101    98    1
   103     7     6    1
   104   152   154   am
   105   152   153    2
   106   148   147    1
   107    20    18   ar
   108    20    22   ar
   109    18    19   ar
   110   129   130    1
   111    98    97    1
   112    98    99    1
   113     6     5    1
   114     6     8    1
   115    22    23   ar
   116   147   140   am
   117   132   131    2
   118    19    21   ar
   119     5     2    1
   120   141   140    2
   121   130   131    1
   122   130   133    1
   123    99   104   am
   124    99   100    2
   125   104   105    1
   126   140   139    1
   127    12    11    2
   128   107   106    2
   129     1     2    1
   130   134   133    1
   131   134   135    1
   132    23    21   ar
   133     2     3    1
   134   136   135    1
   135   136   137    1
   136     9     3   am
   137     9    10    1
   138   106   105    1
   139   106   113   am
   140    11    10    1
   141   114   117    1
   142   114   113    1
   143   114   115    1
   144   117   118    1
   145   105   108    1
   146     3     4    2
   147   139   138    1
   148   139   142    1
   149   115   116    2
   150   142   143    1
   151   108   109    1
   152   118   119   ar
   153   118   120   ar
   154   143   144    1
   155   109   110    1
   156   144   145   ar
   157   144   146   ar
   158   111   110    2
   159   110   112   am
   160   128   126   ar
   161   121   122    1
   162   125   126    1
   163   125   122    1
   164   126   127   ar
   165   122   123    1
   166   123   124    2
