@<TRIPOS>MOLECULE
tmp/4rpzA01.pdb
 127 120 0 0 0
SMALL
GASTEIGER

@<TRIPOS>ATOM
      1  N          2.0370   -3.6080   26.0360 N.3   140  ARG140     -0.1245
      2  CA         1.2250   -3.3530   24.8550 C.3   140  ARG140      0.1563
      3  C         -0.2310   -3.1830   25.2570 C.2   140  ARG140      0.2260
      4  O         -0.6180   -3.5210   26.3660 O.2   140  ARG140     -0.2867
      5  CB         1.3900   -4.4840   23.8430 C.3   140  ARG140      0.0307
      6  CG         2.8300   -4.6180   23.3620 C.3   140  ARG140      0.0489
      7  CD         2.9740   -5.5110   22.1360 C.3   140  ARG140      0.2205
      8  NE         2.3340   -4.9720   20.9330 N.pl3 140  ARG140     -0.0865
      9  CZ         2.7880   -3.9440   20.2090 C.cat 140  ARG140      0.5346
     10  NH1        3.8920   -3.2830   20.5580 N.pl3 140  ARG140      0.1354
     11  NH2        2.1200   -3.5500   19.1310 N.pl3 140  ARG140      0.1354
     12  N         -1.7830    4.2990   13.1770 N.3   170  GLY170     -0.1210
     13  CA        -0.7500    3.4230   13.7100 C.3   170  GLY170      0.1956
     14  C         -1.1190    1.9630   13.5460 C.2   170  GLY170      0.2612
     15  O         -1.8940    1.5970   12.6590 O.2   170  GLY170     -0.2717
     16  N         -0.5850    1.1330   14.4350 N.am  171  SER171     -0.1952
     17  CA        -0.7450   -0.3100   14.3330 C.3   171  SER171      0.1924
     18  C         -2.2050   -0.7070   14.4180 C.2   171  SER171      0.2314
     19  O         -2.6090   -1.7130   13.8320 O.2   171  SER171     -0.2863
     20  CB         0.0640   -1.0120   15.4280 C.3   171  SER171      0.2116
     21  OG        -0.3580   -0.5830   16.7040 O.3   171  SER171     -0.2180
     22  N         -3.7240   -0.6230   11.1690 N.3   174  ARG174     -0.1245
     23  CA        -3.1670   -1.7800   10.4590 C.3   174  ARG174      0.1563
     24  C         -3.7360   -3.1160   10.9520 C.2   174  ARG174      0.2260
     25  O         -3.3090   -4.1660   10.4810 O.2   174  ARG174     -0.2867
     26  CB        -1.6370   -1.7960   10.5530 C.3   174  ARG174      0.0307
     27  CG        -0.9910   -0.5790    9.9190 C.3   174  ARG174      0.0489
     28  CD         0.4620   -0.8100    9.5550 C.3   174  ARG174      0.2205
     29  NE         1.2380   -1.3310   10.6690 N.pl3 174  ARG174     -0.0865
     30  CZ         1.7400   -0.6090   11.6660 C.cat 174  ARG174      0.5346
     31  NH1        1.5560    0.7060   11.7360 N.pl3 174  ARG174      0.1354
     32  NH2        2.4480   -1.2160   12.6070 N.pl3 174  ARG174      0.1354
     33  N          1.2370   -0.5670   20.6380 N.3   180  GLY180     -0.1210
     34  CA         2.1940    0.0650   21.5290 C.3   180  GLY180      0.1956
     35  C          1.6160    1.3070   22.1710 C.2   180  GLY180      0.2611
     36  O          1.8470    1.5570   23.3450 O.2   180  GLY180     -0.2717
     37  N          0.9010    2.1090   21.3910 N.am  181  ASP181     -0.1973
     38  CA         0.2500    3.3010   21.9070 C.3   181  ASP181      0.1709
     39  C         -0.9840    3.6240   21.0530 C.2   181  ASP181      0.2293
     40  O         -1.3370    2.8360   20.1660 O.2   181  ASP181     -0.2864
     41  CB         1.2480    4.4700   21.9810 C.3   181  ASP181      0.1436
     42  CG         1.5480    5.0900   20.6280 C.2   181  ASP181      0.3671
     43  OD1        1.2690    4.4530   19.6170 O.co2 181  ASP181     -0.2456
     44  OD2        2.0570    6.2260   20.5640 O.co2 181  ASP181     -0.2456
     45  N         -2.5000    6.3580   18.3690 N.3   183  ASP183     -0.1239
     46  CA        -2.2180    7.4690   17.4550 C.3   183  ASP183      0.1674
     47  C         -3.4940    7.9880   16.8110 C.2   183  ASP183      0.2266
     48  O         -4.1990    7.2310   16.1460 O.2   183  ASP183     -0.2867
     49  CB        -1.2580    7.0090   16.3760 C.3   183  ASP183      0.1410
     50  CG         0.0100    6.4380   16.9530 C.2   183  ASP183      0.3668
     51  OD1        0.7230    7.2050   17.6230 O.co2 183  ASP183     -0.2456
     52  OD2        0.2660    5.2240   16.7610 O.co2 183  ASP183     -0.2456
     53  N         -0.6790    9.9250   21.0260 N.3   247  ASP247     -0.1239
     54  CA        -0.2390   10.9640   20.0820 C.3   247  ASP247      0.1674
     55  C         -1.4560   11.4710   19.2830 C.2   247  ASP247      0.2266
     56  O         -2.2470   10.6780   18.7520 O.2   247  ASP247     -0.2867
     57  CB         0.8370   10.4360   19.1180 C.3   247  ASP247      0.1410
     58  CG         2.1180    9.9850   19.8240 C.2   247  ASP247      0.3668
     59  OD1        2.7000   10.8080   20.5850 O.co2 247  ASP247     -0.2456
     60  OD2        2.5560    8.8110   19.5950 O.co2 247  ASP247     -0.2456
     61  N          0.8780    8.6150    6.3010 N.3   262  TYR262     -0.1227
     62  CA         1.9990    8.7550    7.2260 C.3   262  TYR262      0.1736
     63  C          1.6700    8.0900    8.5640 C.2   262  TYR262      0.2595
     64  O          2.4470    7.2720    9.0660 O.2   262  TYR262     -0.2718
     65  CB         2.3770   10.2160    7.4410 C.3   262  TYR262      0.0548
     66  CG         2.9870   10.4920    8.7990 C.ar  262  TYR262     -0.0200
     67  CD1        4.2590   10.0180    9.1310 C.ar  262  TYR262     -0.0009
     68  CD2        2.2910   11.2200    9.7530 C.ar  262  TYR262     -0.0009
     69  CE1        4.8110   10.2630   10.3750 C.ar  262  TYR262      0.0417
     70  CE2        2.8370   11.4720   10.9960 C.ar  262  TYR262      0.0417
     71  CZ         4.0940   10.9890   11.3060 C.ar  262  TYR262      0.1957
     72  OH         4.6380   11.2420   12.5500 O.3   262  TYR262     -0.2866
     73  N          0.5080    8.4260    9.1160 N.am  263  PHE263     -0.1962
     74  CA         0.2060    8.0510   10.4850 C.3   263  PHE263      0.1771
     75  C         -0.2080    6.5890   10.6190 C.2   263  PHE263      0.2620
     76  O         -0.1940    6.0580   11.7240 O.2   263  PHE263     -0.2715
     77  CB        -0.8600    9.0000   11.0870 C.3   263  PHE263      0.0574
     78  CG        -0.5720    9.4640   12.5060 C.ar  263  PHE263     -0.0200
     79  CD1        0.7350    9.4980   13.0290 C.ar  263  PHE263     -0.0042
     80  CD2       -1.6140    9.9250   13.3080 C.ar  263  PHE263     -0.0042
     81  CE1        0.9750    9.9520   14.3270 C.ar  263  PHE263     -0.0003
     82  CE2       -1.3770   10.3750   14.5990 C.ar  263  PHE263     -0.0003
     83  CZ        -0.0870   10.3890   15.1110 C.ar  263  PHE263     -0.0000
     84  N         -0.5850    5.9380    9.5160 N.am  264  THR264     -0.1937
     85  CA        -0.8880    4.5070    9.5460 C.3   264  THR264      0.2028
     86  C          0.3950    3.6630    9.5200 C.2   264  THR264      0.2643
     87  O          0.4330    2.5800   10.1010 O.2   264  THR264     -0.2714
     88  CB        -1.8210    4.0960    8.3930 C.3   264  THR264      0.1808
     89  OG1       -3.0840    4.7450    8.5540 O.3   264  THR264     -0.2208
     90  CG2       -2.0320    2.6010    8.3700 C.3   264  THR264      0.0379
     91  N          1.4300    4.1370    8.8350 N.am  265  GLY265     -0.1939
     92  CA         2.7170    3.4310    8.8190 C.3   265  GLY265      0.2014
     93  C          2.6890    2.0720    8.1200 C.2   265  GLY265      0.2640
     94  O          1.9000    1.8710    7.1920 O.2   265  GLY265     -0.2714
     95  N          3.5240    1.1170    8.5380 N.am  266  SER266     -0.1935
     96  CA         4.4710    1.2200    9.6600 C.3   266  SER266      0.2055
     97  C          5.5860    2.2200    9.3920 C.2   266  SER266      0.2643
     98  O          5.6400    2.8340    8.3270 O.2   266  SER266     -0.2714
     99  CB         5.0830   -0.1620    9.9570 C.3   266  SER266      0.2130
    100  OG         5.9540   -0.5730    8.9070 O.3   266  SER266     -0.2179
    101  N          6.4860    2.3820   10.3560 N.am  267  ASP267     -0.1971
    102  CA         7.5830    3.3500   10.1960 C.3   267  ASP267      0.1709
    103  C          8.5390    2.9920    9.0560 C.2   267  ASP267      0.2293
    104  O          8.9650    3.8680    8.3030 O.2   267  ASP267     -0.2864
    105  CB         8.3490    3.5530   11.5120 C.3   267  ASP267      0.1436
    106  CG         9.1050    2.3170   11.9710 C.2   267  ASP267      0.3671
    107  OD1        8.7100    1.1850   11.6230 O.co2 267  ASP267     -0.2456
    108  OD2       10.1060    2.4910   12.6980 O.co2 267  ASP267     -0.2456
    109  N          6.8200    3.2550    5.6960 N.3   270  ASN270     -0.1240
    110  CA         6.8740    4.6760    5.3320 C.3   270  ASN270      0.1653
    111  C          8.1870    5.1030    4.7210 C.2   270  ASN270      0.2266
    112  O          8.1850    5.7620    3.6990 O.2   270  ASN270     -0.2867
    113  CB         6.5980    5.5770    6.5470 C.3   270  ASN270      0.1155
    114  CG         5.1200    5.6890    6.8670 C.2   270  ASN270      0.2627
    115  OD1        4.2760    5.1010    6.1810 O.2   270  ASN270     -0.2716
    116  ND2        4.7970    6.4470    7.9150 N.am  270  ASN270     -0.0877
    117  N          8.7960    6.1730    0.8990 N.3   274  ARG274     -0.1245
    118  CA         9.4080    7.4510    0.5580 C.3   274  ARG274      0.1563
    119  C         10.7120    7.2720   -0.2270 C.2   274  ARG274      0.2260
    120  O         11.0320    8.0930   -1.0890 O.2   274  ARG274     -0.2867
    121  CB         9.6150    8.3000    1.8140 C.3   274  ARG274      0.0307
    122  CG         8.2900    8.6920    2.4490 C.3   274  ARG274      0.0489
    123  CD         8.4520    9.2930    3.8330 C.3   274  ARG274      0.2205
    124  NE         7.1480    9.5970    4.4310 N.pl3 274  ARG274     -0.0865
    125  CZ         6.8960   10.6180    5.2510 C.cat 274  ARG274      0.5346
    126  NH1        7.8490   11.4690    5.6010 N.pl3 274  ARG274      0.1354
    127  NH2        5.6750   10.7930    5.7330 N.pl3 274  ARG274      0.1354
@<TRIPOS>BOND
     1   120   119    2
     2   119   118    1
     3   118   117    1
     4   118   121    1
     5   121   122    1
     6   122   123    1
     7   112   111    2
     8   123   124    1
     9   124   125    2
    10   111   110    1
    11   125   126    1
    12   125   127    1
    13   110   109    1
    14   110   113    1
    15   115   114    2
    16    61    62    1
    17   113   114    1
    18   114   116   am
    19    94    93    2
    20    62    65    1
    21    62    63    1
    22    65    66    1
    23    93    95   am
    24    93    92    1
    25   104   103    2
    26    98    97    2
    27    90    88    1
    28    88    89    1
    29    88    85    1
    30    95    96    1
    31    63    64    2
    32    63    73   am
    33    66    67   ar
    34    66    68   ar
    35    92    91    1
    36    91    86   am
    37   100    99    1
    38   103   102    1
    39    73    74    1
    40    67    69   ar
    41    97    96    1
    42    97   101   am
    43    84    85    1
    44    84    75   am
    45    86    85    1
    46    86    87    2
    47    28    27    1
    48    28    29    1
    49    96    99    1
    50    68    70   ar
    51    27    26    1
    52   102   101    1
    53   102   105    1
    54    69    71   ar
    55    23    26    1
    56    23    24    1
    57    23    22    1
    58    25    24    2
    59    74    75    1
    60    74    77    1
    61    75    76    2
    62    29    30    2
    63    70    71   ar
    64    77    78    1
    65    71    72    1
    66   105   106    1
    67   107   106   ar
    68    30    31    1
    69    30    32    1
    70   106   108   ar
    71    78    79   ar
    72    78    80   ar
    73    15    14    2
    74    79    81   ar
    75    12    13    1
    76    80    82   ar
    77    14    13    1
    78    14    16   am
    79    19    18    2
    80    81    83   ar
    81    17    18    1
    82    17    16    1
    83    17    20    1
    84    82    83   ar
    85    20    21    1
    86    48    47    2
    87    49    50    1
    88    49    46    1
    89    52    50   ar
    90    47    46    1
    91    50    51   ar
    92    46    45    1
    93    56    55    2
    94    57    58    1
    95    57    54    1
    96    11     9    1
    97    55    54    1
    98    60    58   ar
    99    43    42   ar
   100    58    59   ar
   101    54    53    1
   102    40    39    2
   103     9    10    1
   104     9     8    2
   105    44    42   ar
   106    42    41    1
   107    33    34    1
   108     8     7    1
   109    39    38    1
   110    37    38    1
   111    37    35   am
   112    34    35    1
   113    38    41    1
   114     7     6    1
   115    35    36    2
   116     6     5    1
   117     5     2    1
   118     2     3    1
   119     2     1    1
   120     3     4    2
