@<TRIPOS>MOLECULE
tmp/4rq2A00.pdb
 76 70 0 0 0
SMALL
GASTEIGER

@<TRIPOS>ATOM
      1  N         44.9990   -3.4560   51.5330 N.3   141  ARG141     -0.1245
      2  CA        45.7000   -3.2120   52.7930 C.3   141  ARG141      0.1563
      3  C         47.1790   -3.0690   52.5120 C.2   141  ARG141      0.2260
      4  O         47.6970   -3.6450   51.5600 O.2   141  ARG141     -0.2867
      5  CB        45.4290   -4.3430   53.7840 C.3   141  ARG141      0.0307
      6  CG        43.9870   -4.3540   54.2650 C.3   141  ARG141      0.0489
      7  CD        43.7770   -5.0430   55.6020 C.3   141  ARG141      0.2205
      8  NE        44.5620   -4.4530   56.7000 N.pl3 141  ARG141     -0.0865
      9  CZ        44.1000   -3.6360   57.6470 C.cat 141  ARG141      0.5346
     10  NH1       42.8250   -3.2650   57.6820 N.pl3 141  ARG141      0.1354
     11  NH2       44.9280   -3.1830   58.5860 N.pl3 141  ARG141      0.1354
     12  N         48.4520    5.1830   64.1740 N.3   171  GLY171     -0.1210
     13  CA        47.4620    4.2250   63.7070 C.3   171  GLY171      0.1956
     14  C         47.8710    2.8090   64.0240 C.2   171  GLY171      0.2612
     15  O         48.6960    2.5890   64.9250 O.2   171  GLY171     -0.2717
     16  N         47.3400    1.8740   63.2180 N.am  172  SER172     -0.1952
     17  CA        47.6030    0.4330   63.3380 C.3   172  SER172      0.1924
     18  C         49.0730    0.0920   63.2880 C.2   172  SER172      0.2314
     19  O         49.5290   -0.8280   63.9820 O.2   172  SER172     -0.2863
     20  CB        46.8290   -0.3680   62.2680 C.3   172  SER172      0.2116
     21  OG        46.9340    0.2060   60.9670 O.3   172  SER172     -0.2180
     22  N         50.4440    0.4080   66.6360 N.3   175  ARG175     -0.1245
     23  CA        49.9640   -0.7370   67.4260 C.3   175  ARG175      0.1563
     24  C         50.4930   -2.0780   66.9080 C.2   175  ARG175      0.2260
     25  O         50.0570   -3.1200   67.3810 O.2   175  ARG175     -0.2867
     26  CB        48.4450   -0.8010   67.4730 C.3   175  ARG175      0.0307
     27  CG        47.7480    0.5270   67.6160 C.3   175  ARG175      0.0489
     28  CD        46.2920    0.3200   67.9820 C.3   175  ARG175      0.2205
     29  NE        45.4770   -0.2570   66.9140 N.pl3 175  ARG175     -0.0865
     30  CZ        44.9510    0.4270   65.8950 C.cat 175  ARG175      0.5346
     31  NH1       45.1570    1.7350   65.7440 N.pl3 175  ARG175      0.1354
     32  NH2       44.1990   -0.1990   65.0120 N.pl3 175  ARG175      0.1354
     33  N         48.2230   -2.4250   57.4360 N.3   180  SER180     -0.1202
     34  CA        47.4770   -1.2250   57.7940 C.3   180  SER180      0.2020
     35  C         46.5770   -0.7790   56.6510 C.2   180  SER180      0.2619
     36  O         46.8780   -1.0080   55.4850 O.2   180  SER180     -0.2717
     37  CB        48.4260   -0.0970   58.1380 C.3   180  SER180      0.2103
     38  OG        49.2680   -0.4630   59.2060 O.3   180  SER180     -0.2182
     39  N         45.4630   -0.1600   57.0060 N.am  181  GLY181     -0.1942
     40  CA        44.5750    0.4600   56.0320 C.3   181  GLY181      0.2014
     41  C         45.2420    1.6240   55.3260 C.2   181  GLY181      0.2638
     42  O         45.1440    1.7780   54.1080 O.2   181  GLY181     -0.2714
     43  N         45.9470    2.4400   56.0910 N.am  182  ASP182     -0.1971
     44  CA        46.5660    3.6160   55.5440 C.3   182  ASP182      0.1709
     45  C         47.7660    3.9990   56.4000 C.2   182  ASP182      0.2293
     46  O         48.2070    3.2080   57.2560 O.2   182  ASP182     -0.2864
     47  CB        45.5160    4.7430   55.3890 C.3   182  ASP182      0.1436
     48  CG        45.1750    5.4350   56.6740 C.2   182  ASP182      0.3671
     49  OD1       45.2400    4.8080   57.7660 O.co2 182  ASP182     -0.2456
     50  OD2       44.8220    6.6370   56.5980 O.co2 182  ASP182     -0.2456
     51  N         49.0570    7.0690   58.8850 N.3   184  ASP184     -0.1239
     52  CA        48.7890    8.2490   59.7080 C.3   184  ASP184      0.1674
     53  C         50.0570    8.7580   60.3780 C.2   184  ASP184      0.2266
     54  O         50.7270    8.0530   61.1390 O.2   184  ASP184     -0.2867
     55  CB        47.7430    7.8790   60.7410 C.3   184  ASP184      0.1410
     56  CG        46.5420    7.1590   60.1020 C.2   184  ASP184      0.3668
     57  OD1       45.8670    7.7730   59.2230 O.co2 184  ASP184     -0.2456
     58  OD2       46.3280    5.9770   60.4560 O.co2 184  ASP184     -0.2456
     59  N         44.9460    5.1290   68.3910 N.3   266  GLY266     -0.1210
     60  CA        43.7120    4.3540   68.4220 C.3   266  GLY266      0.1956
     61  C         43.8480    3.0660   69.2350 C.2   266  GLY266      0.2613
     62  O         44.6300    3.0230   70.2130 O.2   266  GLY266     -0.2717
     63  N         43.0880    2.0130   68.8810 N.am  267  SER267     -0.1938
     64  CA        42.0520    2.0260   67.8320 C.3   267  SER267      0.2055
     65  C         40.9970    3.0810   68.0560 C.2   267  SER267      0.2643
     66  O         40.9120    3.6450   69.1420 O.2   267  SER267     -0.2714
     67  CB        41.3470    0.6630   67.7540 C.3   267  SER267      0.2130
     68  OG        40.5760    0.4280   68.9210 O.3   267  SER267     -0.2179
     69  N         40.1760    3.3180   67.0330 N.am  268  ASP268     -0.1971
     70  CA        39.0400    4.2600   67.1420 C.3   268  ASP268      0.1709
     71  C         38.1060    3.9160   68.2990 C.2   268  ASP268      0.2293
     72  O         37.5800    4.8030   68.9540 O.2   268  ASP268     -0.2864
     73  CB        38.2310    4.2960   65.8430 C.3   268  ASP268      0.1436
     74  CG        37.6910    2.9080   65.4330 C.2   268  ASP268      0.3671
     75  OD1       38.1570    1.8550   65.9560 O.co2 268  ASP268     -0.2456
     76  OD2       36.7990    2.8720   64.5660 O.co2 268  ASP268     -0.2456
@<TRIPOS>BOND
     1     1     2    1
     2     4     3    2
     3     3     2    1
     4     2     5    1
     5     5     6    1
     6    42    41    2
     7     6     7    1
     8    41    40    1
     9    41    43   am
    10    47    44    1
    11    47    48    1
    12    36    35    2
    13    44    43    1
    14    44    45    1
    15     7     8    1
    16    40    39    1
    17    45    46    2
    18    50    48   ar
    19    35    39   am
    20    35    34    1
    21    48    49   ar
    22     8     9    2
    23    33    34    1
    24     9    10    1
    25     9    11    1
    26    34    37    1
    27    37    38    1
    28    51    52    1
    29    57    56   ar
    30    52    53    1
    31    52    55    1
    32    56    58   ar
    33    56    55    1
    34    53    54    2
    35    21    20    1
    36    20    17    1
    37    16    17    1
    38    16    14   am
    39    18    17    1
    40    18    19    2
    41    13    14    1
    42    13    12    1
    43    14    15    2
    44    76    74   ar
    45    32    30    1
    46    74    73    1
    47    74    75   ar
    48    31    30    1
    49    73    70    1
    50    30    29    2
    51    22    23    1
    52    24    25    2
    53    24    23    1
    54    29    28    1
    55    69    70    1
    56    69    65   am
    57    70    71    1
    58    23    26    1
    59    26    27    1
    60    27    28    1
    61    67    64    1
    62    67    68    1
    63    64    65    1
    64    64    63    1
    65    65    66    2
    66    71    72    2
    67    59    60    1
    68    60    61    1
    69    63    61   am
    70    61    62    2
