@<TRIPOS>MOLECULE
tmp/4rqeB00.pdb
 86 77 0 0 0
SMALL
GASTEIGER

@<TRIPOS>ATOM
      1  N         99.4390    3.0310  241.8520 N.3   255  THR255     -0.1218
      2  CA        98.0720    2.8270  241.3870 C.3   255  THR255      0.1862
      3  C         97.8920    1.3980  240.8830 C.2   255  THR255      0.2287
      4  O         98.8620    0.7190  240.5460 O.2   255  THR255     -0.2866
      5  CB        97.7110    3.7930  240.2330 C.3   255  THR255      0.1770
      6  OG1       98.3180    5.0730  240.4540 O.3   255  THR255     -0.2211
      7  CG2       96.1990    3.9590  240.1130 C.3   255  THR255      0.0375
      8  N         96.5410    1.0360  238.1910 N.3   257  GLU257     -0.1245
      9  CA        96.6730    1.3140  236.7610 C.3   257  GLU257      0.1567
     10  C         97.8420    0.5840  236.1160 C.2   257  GLU257      0.2260
     11  O         97.7040   -0.0080  235.0480 O.2   257  GLU257     -0.2867
     12  CB        96.8210    2.8190  236.5270 C.3   257  GLU257      0.0388
     13  CG        97.6620    3.0530  235.2700 C.3   257  GLU257      0.1160
     14  CD        98.0570    4.4830  235.1070 C.2   257  GLU257      0.3649
     15  OE1       98.3570    5.0720  236.2460 O.co2 257  GLU257     -0.2457
     16  OE2       98.0520    5.0210  234.0170 O.co2 257  GLU257     -0.2457
     17  N        102.6230    6.0010  247.3920 N.3   286  ARG286     -0.1245
     18  CA       103.2190    7.1820  246.7810 C.3   286  ARG286      0.1563
     19  C        104.1590    7.8850  247.7520 C.2   286  ARG286      0.2260
     20  O        103.8120    8.1060  248.9110 O.2   286  ARG286     -0.2867
     21  CB       102.1330    8.1510  246.3070 C.3   286  ARG286      0.0307
     22  CG       101.1100    7.5250  245.3780 C.3   286  ARG286      0.0489
     23  CD       100.4330    8.5680  244.5080 C.3   286  ARG286      0.2205
     24  NE        99.4740    7.9610  243.5890 N.pl3 286  ARG286     -0.0865
     25  CZ        98.8830    8.6070  242.5900 C.cat 286  ARG286      0.5346
     26  NH1       99.1540    9.8870  242.3710 N.pl3 286  ARG286      0.1354
     27  NH2       98.0230    7.9720  241.8060 N.pl3 286  ARG286      0.1354
     28  N         92.8150    1.7770  247.2770 N.3   307  LYS307     -0.1245
     29  CA        92.2000    2.5730  246.2220 C.3   307  LYS307      0.1561
     30  C         91.6890    1.7180  245.0660 C.2   307  LYS307      0.2260
     31  O         92.4730    1.0880  244.3580 O.2   307  LYS307     -0.2867
     32  CB        93.2110    3.5930  245.6980 C.3   307  LYS307      0.0271
     33  CG        92.6080    4.6910  244.8480 C.3   307  LYS307      0.0035
     34  CD        93.6830    5.4950  244.1360 C.3   307  LYS307      0.0206
     35  CE        94.3960    4.6490  243.0980 C.3   307  LYS307      0.1093
     36  NZ        93.4440    4.0520  242.1210 N.3   307  LYS307     -0.1314
     37  N         90.1040    1.2640  241.3830 N.3   309  GLU309     -0.1245
     38  CA        90.2120    2.0270  240.1440 C.3   309  GLU309      0.1567
     39  C         89.5230    1.3490  238.9670 C.2   309  GLU309      0.2260
     40  O         89.5580    0.1260  238.8300 O.2   309  GLU309     -0.2867
     41  CB        91.6840    2.2550  239.8020 C.3   309  GLU309      0.0388
     42  CG        91.9220    3.0930  238.5550 C.3   309  GLU309      0.1160
     43  CD        93.3540    2.9830  238.0620 C.2   309  GLU309      0.3649
     44  OE1       93.9510    1.8980  238.2240 O.co2 309  GLU309     -0.2457
     45  OE2       93.8900    3.9750  237.5290 O.co2 309  GLU309     -0.2457
     46  N         92.1800   14.7010  230.7610 N.3   360  LYS360     -0.1245
     47  CA        92.1450   14.3190  232.1660 C.3   360  LYS360      0.1561
     48  C         91.0890   15.1150  232.9270 C.2   360  LYS360      0.2260
     49  O         91.3570   16.2450  233.3500 O.2   360  LYS360     -0.2867
     50  CB        93.5350   14.4940  232.8120 C.3   360  LYS360      0.0271
     51  CG        93.6470   13.8690  234.2050 C.3   360  LYS360      0.0035
     52  CD        95.0100   14.0430  234.8430 C.3   360  LYS360      0.0206
     53  CE        95.1280   13.2360  236.1170 C.3   360  LYS360      0.1093
     54  NZ        96.3650   13.6110  236.8460 N.3   360  LYS360     -0.1314
     55  N         90.1630   10.9010  239.3650 N.3   378  SER378     -0.1217
     56  CA        91.0890   11.3610  238.3470 C.3   378  SER378      0.1889
     57  C         90.9820   10.5060  237.1010 C.2   378  SER378      0.2288
     58  O         91.8090    9.6220  236.8750 O.2   378  SER378     -0.2866
     59  CB        92.5170   11.2680  238.8780 C.3   378  SER378      0.2089
     60  OG        93.3520   12.3280  238.4510 O.3   378  SER378     -0.2183
     61  N         91.2860    9.4890  233.2400 N.3   380  SER380     -0.1217
     62  CA        92.2880    9.7490  232.2110 C.3   380  SER380      0.1889
     63  C         92.1190    8.8350  231.0010 C.2   380  SER380      0.2288
     64  O         91.8410    7.6420  231.1380 O.2   380  SER380     -0.2866
     65  CB        93.6960    9.5850  232.7860 C.3   380  SER380      0.2089
     66  OG        93.9330   10.5200  233.8230 O.3   380  SER380     -0.2183
     67  N         91.8840    4.8870  232.3030 N.3   405  ASN405     -0.1225
     68  CA        91.9420    4.6290  233.7380 C.3   405  ASN405      0.1785
     69  C         91.2930    5.7470  234.5530 C.2   405  ASN405      0.2597
     70  O         91.4500    6.9260  234.2390 O.2   405  ASN405     -0.2718
     71  CB        93.3860    4.3830  234.1980 C.3   405  ASN405      0.1169
     72  CG        94.2580    5.6270  234.1160 C.2   405  ASN405      0.2627
     73  OD1       94.9950    5.9380  235.0500 O.2   405  ASN405     -0.2716
     74  ND2       94.1870    6.3360  232.9960 N.am  405  ASN405     -0.0877
     75  N         90.5600    5.3660  235.5950 N.am  406  ALA406     -0.1966
     76  CA        89.8340    6.3260  236.4190 C.3   406  ALA406      0.1728
     77  C         89.5580    5.7530  237.8030 C.2   406  ALA406      0.2616
     78  O         88.9470    4.6960  237.9280 O.2   406  ALA406     -0.2715
     79  CB        88.5290    6.7120  235.7460 C.3   406  ALA406      0.0334
     80  N         90.0010    6.4540  238.8410 N.am  407  THR407     -0.1951
     81  CA        89.8120    5.9800  240.2060 C.3   407  THR407      0.1897
     82  C         88.3460    5.9070  240.5810 C.2   407  THR407      0.2313
     83  O         87.6380    6.9100  240.5390 O.2   407  THR407     -0.2863
     84  CB        90.4490    6.9170  241.2200 C.3   407  THR407      0.1794
     85  OG1       91.8120    7.1630  240.8680 O.3   407  THR407     -0.2208
     86  CG2       90.3960    6.3070  242.6080 C.3   407  THR407      0.0378
@<TRIPOS>BOND
     1    46    47    1
     2    63    64    2
     3    63    62    1
     4    47    50    1
     5    47    48    1
     6    62    65    1
     7    62    61    1
     8    67    68    1
     9    65    66    1
    10    50    51    1
    11    48    49    2
    12    74    72   am
    13    68    71    1
    14    68    69    1
    15    16    14   ar
    16    72    71    1
    17    72    73    2
    18    51    52    1
    19    70    69    2
    20    69    75   am
    21    52    53    1
    22    11    10    2
    23    14    13    1
    24    14    15   ar
    25    13    12    1
    26    75    76    1
    27    79    76    1
    28    10     9    1
    29    53    54    1
    30    76    77    1
    31    12     9    1
    32     9     8    1
    33    58    57    2
    34    57    56    1
    35    45    43   ar
    36    77    78    2
    37    77    80   am
    38    43    44   ar
    39    43    42    1
    40    56    59    1
    41    56    55    1
    42    60    59    1
    43    42    41    1
    44    40    39    2
    45    80    81    1
    46    39    38    1
    47    41    38    1
    48     7     5    1
    49    38    37    1
    50    81    82    1
    51    81    84    1
    52     5     6    1
    53     5     2    1
    54    83    82    2
    55     4     3    2
    56    85    84    1
    57     3     2    1
    58    84    86    1
    59     2     1    1
    60    27    25    1
    61    36    35    1
    62    26    25    1
    63    25    24    2
    64    35    34    1
    65    24    23    1
    66    34    33    1
    67    31    30    2
    68    23    22    1
    69    33    32    1
    70    30    29    1
    71    22    21    1
    72    32    29    1
    73    29    28    1
    74    21    18    1
    75    18    17    1
    76    18    19    1
    77    19    20    2
