@<TRIPOS>MOLECULE
tmp/4rqeB01.pdb
 144 135 0 0 0
SMALL
GASTEIGER

@<TRIPOS>ATOM
      1  N        102.6230    6.0010  247.3920 N.3   286  ARG286     -0.1245
      2  CA       103.2190    7.1820  246.7810 C.3   286  ARG286      0.1563
      3  C        104.1590    7.8850  247.7520 C.2   286  ARG286      0.2260
      4  O        103.8120    8.1060  248.9110 O.2   286  ARG286     -0.2867
      5  CB       102.1330    8.1510  246.3070 C.3   286  ARG286      0.0307
      6  CG       101.1100    7.5250  245.3780 C.3   286  ARG286      0.0489
      7  CD       100.4330    8.5680  244.5080 C.3   286  ARG286      0.2205
      8  NE        99.4740    7.9610  243.5890 N.pl3 286  ARG286     -0.0865
      9  CZ        98.8830    8.6070  242.5900 C.cat 286  ARG286      0.5346
     10  NH1       99.1540    9.8870  242.3710 N.pl3 286  ARG286      0.1354
     11  NH2       98.0230    7.9720  241.8060 N.pl3 286  ARG286      0.1354
     12  N        105.1440   10.9600  247.4480 N.3   288  GLU288     -0.1245
     13  CA       104.6280   12.3200  247.5730 C.3   288  GLU288      0.1567
     14  C        105.7200   13.2810  248.0400 C.2   288  GLU288      0.2260
     15  O        105.5630   13.9790  249.0410 O.2   288  GLU288     -0.2867
     16  CB       103.4250   12.3640  248.5200 C.3   288  GLU288      0.0388
     17  CG       102.2800   13.2330  248.0230 C.3   288  GLU288      0.1160
     18  CD       101.6220   12.6710  246.7760 C.2   288  GLU288      0.3649
     19  OE1      101.3600   11.4510  246.7390 O.co2 288  GLU288     -0.2457
     20  OE2      101.3720   13.4480  245.8310 O.co2 288  GLU288     -0.2457
     21  N        105.3390   17.3890  247.6270 N.3   291  SER291     -0.1217
     22  CA       104.6380   18.1590  248.6440 C.3   291  SER291      0.1889
     23  C        105.3660   18.0930  249.9840 C.2   291  SER291      0.2288
     24  O        105.9800   17.0810  250.3200 O.2   291  SER291     -0.2866
     25  CB       103.2010   17.6580  248.8000 C.3   291  SER291      0.2089
     26  OG       103.1770   16.3080  249.2290 O.3   291  SER291     -0.2183
     27  N         94.5060   13.0950  254.2700 N.3   300  PHE300     -0.1227
     28  CA        94.0630   13.2800  252.8940 C.3   300  PHE300      0.1736
     29  C         95.1670   12.8840  251.9200 C.2   300  PHE300      0.2595
     30  O         94.9440   12.1010  250.9970 O.2   300  PHE300     -0.2718
     31  CB        93.6430   14.7310  252.6590 C.3   300  PHE300      0.0547
     32  CG        93.1610   15.0030  251.2640 C.ar  300  PHE300     -0.0202
     33  CD1       91.8590   14.7060  250.8990 C.ar  300  PHE300     -0.0042
     34  CD2       94.0080   15.5570  250.3190 C.ar  300  PHE300     -0.0042
     35  CE1       91.4120   14.9530  249.6170 C.ar  300  PHE300     -0.0003
     36  CE2       93.5670   15.8080  249.0350 C.ar  300  PHE300     -0.0003
     37  CZ        92.2680   15.5050  248.6830 C.ar  300  PHE300     -0.0000
     38  N         96.3580   13.4330  252.1350 N.am  301  ARG301     -0.1966
     39  CA        97.5140   13.1150  251.3060 C.3   301  ARG301      0.1729
     40  C         98.5510   12.3390  252.1120 C.2   301  ARG301      0.2616
     41  O         99.2930   12.9190  252.9050 O.2   301  ARG301     -0.2715
     42  CB        98.1360   14.3940  250.7400 C.3   301  ARG301      0.0348
     43  CG        99.0410   14.1360  249.5640 C.3   301  ARG301      0.0492
     44  CD        99.3980   15.4490  248.8900 C.3   301  ARG301      0.2205
     45  NE        98.2680   16.0810  248.2050 N.pl3 301  ARG301     -0.0865
     46  CZ        98.4040   17.2480  247.5710 C.cat 301  ARG301      0.5346
     47  NH1       99.5700   17.8920  247.5830 N.pl3 301  ARG301      0.1354
     48  NH2       97.4010   17.8250  246.9350 N.pl3 301  ARG301      0.1354
     49  N         98.5960   11.0260  251.9080 N.am  302  VAL302     -0.1977
     50  CA        99.5220   10.1700  252.6410 C.3   302  VAL302      0.1596
     51  C        100.3270    9.2600  251.7180 C.2   302  VAL302      0.2287
     52  O        100.1260    9.2560  250.5030 O.2   302  VAL302     -0.2864
     53  CB        98.7910    9.3120  253.6920 C.3   302  VAL302      0.0276
     54  CG1       98.8580    9.9740  255.0600 C.3   302  VAL302      0.0022
     55  CG2       97.3490    9.0670  253.2680 C.3   302  VAL302      0.0022
     56  N         97.6770    3.8080  251.1420 N.3   305  PHE305     -0.1241
     57  CA        96.2170    3.7850  251.1900 C.3   305  PHE305      0.1605
     58  C         95.6730    2.7410  250.2210 C.2   305  PHE305      0.2264
     59  O         96.3640    2.3300  249.2900 O.2   305  PHE305     -0.2867
     60  CB        95.6440    5.1540  250.8160 C.3   305  PHE305      0.0534
     61  CG        96.0310    5.6170  249.4400 C.ar  305  PHE305     -0.0203
     62  CD1       95.2010    5.3860  248.3540 C.ar  305  PHE305     -0.0042
     63  CD2       97.2260    6.2820  249.2320 C.ar  305  PHE305     -0.0042
     64  CE1       95.5590    5.8100  247.0890 C.ar  305  PHE305     -0.0003
     65  CE2       97.5890    6.7080  247.9690 C.ar  305  PHE305     -0.0003
     66  CZ        96.7540    6.4730  246.8970 C.ar  305  PHE305     -0.0000
     67  N         92.8150    1.7770  247.2770 N.3   307  LYS307     -0.1245
     68  CA        92.2000    2.5730  246.2220 C.3   307  LYS307      0.1561
     69  C         91.6890    1.7180  245.0660 C.2   307  LYS307      0.2260
     70  O         92.4730    1.0880  244.3580 O.2   307  LYS307     -0.2867
     71  CB        93.2110    3.5930  245.6980 C.3   307  LYS307      0.0271
     72  CG        92.6080    4.6910  244.8480 C.3   307  LYS307      0.0035
     73  CD        93.6830    5.4950  244.1360 C.3   307  LYS307      0.0206
     74  CE        94.3960    4.6490  243.0980 C.3   307  LYS307      0.1093
     75  NZ        93.4440    4.0520  242.1210 N.3   307  LYS307     -0.1314
     76  N         92.1800   14.7010  230.7610 N.3   360  LYS360     -0.1245
     77  CA        92.1450   14.3190  232.1660 C.3   360  LYS360      0.1561
     78  C         91.0890   15.1150  232.9270 C.2   360  LYS360      0.2260
     79  O         91.3570   16.2450  233.3500 O.2   360  LYS360     -0.2867
     80  CB        93.5350   14.4940  232.8120 C.3   360  LYS360      0.0271
     81  CG        93.6470   13.8690  234.2050 C.3   360  LYS360      0.0035
     82  CD        95.0100   14.0430  234.8430 C.3   360  LYS360      0.0206
     83  CE        95.1280   13.2360  236.1170 C.3   360  LYS360      0.1093
     84  NZ        96.3650   13.6110  236.8460 N.3   360  LYS360     -0.1314
     85  N         90.5880   16.9930  245.4310 N.3   375  GLU375     -0.1231
     86  CA        90.6720   15.9920  244.3800 C.3   375  GLU375      0.1699
     87  C         90.5570   14.5780  244.9370 C.2   375  GLU375      0.2592
     88  O         91.4000   14.1340  245.7200 O.2   375  GLU375     -0.2718
     89  CB        91.9780   16.1450  243.6090 C.3   375  GLU375      0.0402
     90  CG        92.0640   15.2580  242.3950 C.3   375  GLU375      0.1161
     91  CD        93.2240   15.6230  241.5010 C.2   375  GLU375      0.3649
     92  OE1       93.9800   16.5520  241.8530 O.co2 375  GLU375     -0.2457
     93  OE2       93.3800   14.9850  240.4420 O.co2 375  GLU375     -0.2457
     94  N         89.5030   13.8800  244.5190 N.am  376  LEU376     -0.1966
     95  CA        89.2350   12.5110  244.9540 C.3   376  LEU376      0.1728
     96  C         89.3210   11.5030  243.8190 C.2   376  LEU376      0.2616
     97  O         89.7180   10.3580  244.0290 O.2   376  LEU376     -0.2715
     98  CB        87.8410   12.4100  245.5660 C.3   376  LEU376      0.0311
     99  CG        87.5160   13.2180  246.8170 C.3   376  LEU376      0.0022
    100  CD1       86.1580   12.7640  247.3600 C.3   376  LEU376      0.0001
    101  CD2       88.6330   13.0740  247.8520 C.3   376  LEU376      0.0001
    102  N         88.9090   11.9330  242.6280 N.am  377  VAL377     -0.1963
    103  CA        88.8540   11.0830  241.4350 C.3   377  VAL377      0.1727
    104  C         89.7560   11.6980  240.3500 C.2   377  VAL377      0.2616
    105  O         90.0820   12.8790  240.4210 O.2   377  VAL377     -0.2715
    106  CB        87.3980   10.9590  240.9140 C.3   377  VAL377      0.0290
    107  CG1       87.3080    9.9680  239.7690 C.3   377  VAL377      0.0023
    108  CG2       86.4540   10.5420  242.0380 C.3   377  VAL377      0.0023
    109  N         90.1630   10.9010  239.3650 N.am  378  SER378     -0.1950
    110  CA        91.0890   11.3610  238.3470 C.3   378  SER378      0.1924
    111  C         90.9820   10.5060  237.1010 C.2   378  SER378      0.2314
    112  O         91.8090    9.6220  236.8750 O.2   378  SER378     -0.2863
    113  CB        92.5170   11.2680  238.8780 C.3   378  SER378      0.2116
    114  OG        93.3520   12.3280  238.4510 O.3   378  SER378     -0.2180
    115  N         90.0010    6.4540  238.8410 N.3   407  THR407     -0.1218
    116  CA        89.8120    5.9800  240.2060 C.3   407  THR407      0.1862
    117  C         88.3460    5.9070  240.5810 C.2   407  THR407      0.2287
    118  O         87.6380    6.9100  240.5390 O.2   407  THR407     -0.2866
    119  CB        90.4490    6.9170  241.2200 C.3   407  THR407      0.1770
    120  OG1       91.8120    7.1630  240.8680 O.3   407  THR407     -0.2211
    121  CG2       90.3960    6.3070  242.6080 C.3   407  THR407      0.0375
    122  N         89.1600    6.4630  246.3500 N.3   410  ALA410     -0.1245
    123  CA        90.2880    6.4850  247.2730 C.3   410  ALA410      0.1562
    124  C         89.7480    6.3160  248.6860 C.2   410  ALA410      0.2260
    125  O         89.1130    7.2200  249.2250 O.2   410  ALA410     -0.2867
    126  CB        91.0500    7.7850  247.1510 C.3   410  ALA410      0.0290
    127  N         90.7390    6.4490  251.6550 N.3   412  THR412     -0.1203
    128  CA        91.1610    7.2760  252.7820 C.3   412  THR412      0.1994
    129  C         90.6890    8.7120  252.6210 C.2   412  THR412      0.2617
    130  O         90.3530    9.3860  253.5950 O.2   412  THR412     -0.2717
    131  CB        92.6880    7.2790  252.9270 C.3   412  THR412      0.1784
    132  OG1       93.1800    5.9380  252.8340 O.3   412  THR412     -0.2211
    133  CG2       93.0960    7.8790  254.2650 C.3   412  THR412      0.0376
    134  N         90.6810    9.1750  251.3770 N.am  413  ARG413     -0.1979
    135  CA        90.2160   10.5150  251.0580 C.3   413  ARG413      0.1597
    136  C         88.6990   10.5860  251.1420 C.2   413  ARG413      0.2287
    137  O         88.1430   11.5160  251.7270 O.2   413  ARG413     -0.2864
    138  CB        90.6770   10.9090  249.6600 C.3   413  ARG413      0.0334
    139  CG        92.0960   11.4300  249.5930 C.3   413  ARG413      0.0492
    140  CD        92.4240   11.9590  248.2090 C.3   413  ARG413      0.2205
    141  NE        93.6930   12.6810  248.1850 N.pl3 413  ARG413     -0.0865
    142  CZ        94.2510   13.1600  247.0780 C.cat 413  ARG413      0.5346
    143  NH1       93.6490   12.9880  245.9100 N.pl3 413  ARG413      0.1354
    144  NH2       95.4090   13.8080  247.1340 N.pl3 413  ARG413      0.1354
@<TRIPOS>BOND
     1    76    77    1
     2    77    80    1
     3    77    78    1
     4    80    81    1
     5    78    79    2
     6    81    82    1
     7    82    83    1
     8    83    84    1
     9   112   111    2
    10   111   110    1
    11   110   113    1
    12   110   109    1
    13   114   113    1
    14   115   116    1
    15   109   104   am
    16   107   106    1
    17   116   117    1
    18   116   119    1
    19   104   105    2
    20   104   103    1
    21    93    91   ar
    22   118   117    2
    23   120   119    1
    24   106   103    1
    25   106   108    1
    26   119   121    1
    27   103   102    1
    28    91    92   ar
    29    91    90    1
    30    11     9    1
    31    75    74    1
    32    10     9    1
    33    90    89    1
    34     9     8    2
    35   102    96   am
    36    74    73    1
    37     8     7    1
    38    89    86    1
    39    96    97    2
    40    96    95    1
    41    73    72    1
    42    70    69    2
    43    86    87    1
    44    86    85    1
    45     7     6    1
    46    94    87   am
    47    94    95    1
    48    72    71    1
    49    87    88    2
    50    95    98    1
    51    69    68    1
    52     6     5    1
    53    98    99    1
    54    71    68    1
    55    20    18   ar
    56   143   142    1
    57    68    67    1
    58     5     2    1
    59   122   123    1
    60    19    18   ar
    61    18    17    1
    62     2     1    1
    63     2     3    1
    64    99   100    1
    65    99   101    1
    66    66    64   ar
    67    66    65   ar
    68    48    46    1
    69   142   144    1
    70   142   141    2
    71    64    62   ar
    72   126   123    1
    73   123   124    1
    74    12    13    1
    75    46    47    1
    76    46    45    2
    77    13    14    1
    78    13    16    1
    79    21    22    1
    80     3     4    2
    81    65    63   ar
    82    17    16    1
    83    14    15    2
    84   141   140    1
    85    45    44    1
    86   140   139    1
    87    62    61   ar
    88    22    25    1
    89    22    23    1
    90    37    36   ar
    91    37    35   ar
    92   124   125    2
    93    25    26    1
    94    44    43    1
    95    36    34   ar
    96    63    61   ar
    97    59    58    2
    98    61    60    1
    99    43    42    1
   100   139   138    1
   101    35    33   ar
   102   138   135    1
   103    23    24    2
   104    58    57    1
   105    34    32   ar
   106    52    51    2
   107    42    39    1
   108    60    57    1
   109    33    32   ar
   110    30    29    2
   111   135   136    1
   112   135   134    1
   113    56    57    1
   114   136   137    2
   115    32    31    1
   116    39    40    1
   117    39    38    1
   118   134   129   am
   119   127   128    1
   120    51    50    1
   121    49    40   am
   122    49    50    1
   123    29    38   am
   124    29    28    1
   125    40    41    2
   126   129   128    1
   127   129   130    2
   128    50    53    1
   129    31    28    1
   130   128   131    1
   131   132   131    1
   132    28    27    1
   133   131   133    1
   134    55    53    1
   135    53    54    1
