@<TRIPOS>MOLECULE
tmp/4rqiC00.pdb
 188 177 0 0 0
SMALL
GASTEIGER

@<TRIPOS>ATOM
      1  N        -13.8120   -8.1510   -5.9850 N.3    37  ARG37      -0.1231
      2  CA       -15.0910   -8.3990   -5.3220 C.3    37  ARG37       0.1694
      3  C        -14.9260   -8.7700   -3.8480 C.2    37  ARG37       0.2592
      4  O        -15.6850   -8.3090   -2.9930 O.2    37  ARG37      -0.2718
      5  CB       -15.8510   -9.5200   -6.0310 C.3    37  ARG37       0.0321
      6  CG       -17.1560   -9.9060   -5.3500 C.3    37  ARG37       0.0489
      7  CD       -17.5790  -11.3160   -5.7090 C.3    37  ARG37       0.2205
      8  NE       -16.6800  -12.2940   -5.1030 N.pl3  37  ARG37      -0.0865
      9  CZ       -16.6700  -13.5930   -5.3860 C.cat  37  ARG37       0.5346
     10  NH1      -17.5180  -14.0940   -6.2730 N.pl3  37  ARG37       0.1354
     11  NH2      -15.8090  -14.3930   -4.7760 N.pl3  37  ARG37       0.1354
     12  N        -13.9270   -9.5990   -3.5570 N.am   38  ASP38      -0.1974
     13  CA       -13.6970  -10.0760   -2.1980 C.3    38  ASP38       0.1709
     14  C        -13.2140   -8.9590   -1.2750 C.2    38  ASP38       0.2293
     15  O        -13.4790   -8.9840   -0.0730 O.2    38  ASP38      -0.2864
     16  CB       -12.6920  -11.2350   -2.1960 C.3    38  ASP38       0.1436
     17  CG       -13.2320  -12.4930   -2.8690 C.2    38  ASP38       0.3671
     18  OD1      -14.4610  -12.5980   -3.0710 O.co2  38  ASP38      -0.2456
     19  OD2      -12.4150  -13.3830   -3.1860 O.co2  38  ASP38      -0.2456
     20  N        -14.1770   -5.7780   -1.6000 N.3    40  MET40      -0.1230
     21  CA       -15.3920   -5.0170   -1.3470 C.3    40  MET40       0.1702
     22  C        -16.2800   -5.7350   -0.3310 C.2    40  MET40       0.2592
     23  O        -16.9720   -5.0960    0.4610 O.2    40  MET40      -0.2718
     24  CB       -16.1520   -4.7820   -2.6550 C.3    40  MET40       0.0401
     25  CG       -15.3330   -4.0570   -3.7110 C.3    40  MET40       0.0596
     26  SD       -16.1770   -3.8500   -5.2950 S.3    40  MET40      -0.1393
     27  CE       -17.5170   -2.7590   -4.8140 C.3    40  MET40       0.0692
     28  N        -16.2640   -7.0640   -0.3690 N.am   41  GLN41      -0.1979
     29  CA       -17.0260   -7.8710    0.5800 C.3    41  GLN41       0.1601
     30  C        -16.5500   -7.6580    2.0150 C.2    41  GLN41       0.2287
     31  O        -17.3540   -7.5480    2.9420 O.2    41  GLN41      -0.2864
     32  CB       -16.9320   -9.3540    0.2110 C.3    41  GLN41       0.0394
     33  CG       -17.6990  -10.2750    1.1500 C.3    41  GLN41       0.0908
     34  CD       -19.2040  -10.1540    0.9890 C.2    41  GLN41       0.2608
     35  OE1      -19.7440  -10.3640   -0.0980 O.2    41  GLN41      -0.2717
     36  NE2      -19.8880   -9.8120    2.0740 N.am   41  GLN41      -0.0878
     37  N        -17.7740   -4.3750    3.5360 N.3    44  LEU44      -0.1231
     38  CA       -19.1950   -4.2200    3.8430 C.3    44  LEU44       0.1693
     39  C        -19.4840   -4.1890    5.3400 C.2    44  LEU44       0.2591
     40  O        -20.4880   -3.6180    5.7720 O.2    44  LEU44      -0.2718
     41  CB       -20.0000   -5.3560    3.1990 C.3    44  LEU44       0.0284
     42  CG       -20.1360   -5.3810    1.6760 C.3    44  LEU44       0.0019
     43  CD1      -20.7210   -6.6980    1.1900 C.3    44  LEU44       0.0001
     44  CD2      -21.0080   -4.2360    1.2320 C.3    44  LEU44       0.0001
     45  N        -18.5980   -4.7900    6.1290 N.am   45  VAL45      -0.1980
     46  CA       -18.7990   -4.8580    7.5690 C.3    45  VAL45       0.1595
     47  C        -18.3040   -3.5920    8.2550 C.2    45  VAL45       0.2287
     48  O        -18.5780   -3.3710    9.4360 O.2    45  VAL45      -0.2864
     49  CB       -18.0890   -6.0820    8.1820 C.3    45  VAL45       0.0276
     50  CG1      -18.6330   -7.3610    7.5750 C.3    45  VAL45       0.0022
     51  CG2      -16.5890   -5.9950    7.9600 C.3    45  VAL45       0.0022
     52  N        -25.5070    2.0600   -2.0220 N.3    55  SER55      -0.1217
     53  CA       -26.4870    0.9800   -2.0810 C.3    55  SER55       0.1889
     54  C        -26.7290    0.5710   -3.5300 C.2    55  SER55       0.2288
     55  O        -26.7100   -0.6160   -3.8620 O.2    55  SER55      -0.2866
     56  CB       -27.7990    1.3960   -1.4160 C.3    55  SER55       0.2089
     57  OG       -28.7430    0.3390   -1.4530 O.3    55  SER55      -0.2183
     58  N        -23.7280   -1.2750   -4.8050 N.3    58  LEU58      -0.1231
     59  CA       -23.6310   -2.6580   -4.3520 C.3    58  LEU58       0.1693
     60  C        -24.5570   -3.6070   -5.1090 C.2    58  LEU58       0.2591
     61  O        -24.2200   -4.7750   -5.3060 O.2    58  LEU58      -0.2718
     62  CB       -23.9140   -2.7380   -2.8510 C.3    58  LEU58       0.0284
     63  CG       -22.8490   -2.1020   -1.9540 C.3    58  LEU58       0.0019
     64  CD1      -23.2860   -2.0850   -0.4990 C.3    58  LEU58       0.0001
     65  CD2      -21.5250   -2.8350   -2.1080 C.3    58  LEU58       0.0001
     66  N        -25.7210   -3.1140   -5.5230 N.am   59  ARG59      -0.1980
     67  CA       -26.6570   -3.9320   -6.2930 C.3    59  ARG59       0.1597
     68  C        -26.0610   -4.3460   -7.6360 C.2    59  ARG59       0.2287
     69  O        -26.1670   -5.5090   -8.0380 O.2    59  ARG59      -0.2864
     70  CB       -27.9740   -3.1840   -6.5060 C.3    59  ARG59       0.0334
     71  CG       -28.7410   -2.8960   -5.2260 C.3    59  ARG59       0.0492
     72  CD       -29.1220   -4.1880   -4.5340 C.3    59  ARG59       0.2205
     73  NE       -29.9030   -3.9640   -3.3220 N.pl3  59  ARG59      -0.0865
     74  CZ       -30.0420   -4.8640   -2.3550 C.cat  59  ARG59       0.5346
     75  NH1      -29.4450   -6.0410   -2.4600 N.pl3  59  ARG59       0.1354
     76  NH2      -30.7710   -4.5890   -1.2830 N.pl3  59  ARG59       0.1354
     77  N        -22.9130   -4.4860   -8.3160 N.3    61  MET61      -0.1230
     78  CA       -21.8300   -5.3890   -7.9510 C.3    61  MET61       0.1702
     79  C        -22.3740   -6.7770   -7.6330 C.2    61  MET61       0.2592
     80  O        -21.7360   -7.7870   -7.9300 O.2    61  MET61      -0.2718
     81  CB       -21.0570   -4.8380   -6.7530 C.3    61  MET61       0.0401
     82  CG       -19.6500   -5.3890   -6.5960 C.3    61  MET61       0.0596
     83  SD       -18.5920   -5.1490   -8.0400 S.3    61  MET61      -0.1393
     84  CE       -17.3380   -6.3920   -7.7210 C.3    61  MET61       0.0692
     85  N        -23.5560   -6.8150   -7.0230 N.am   62  GLN62      -0.1979
     86  CA       -24.2230   -8.0760   -6.7250 C.3    62  GLN62       0.1601
     87  C        -24.6520   -8.7870   -7.9960 C.2    62  GLN62       0.2287
     88  O        -24.5180  -10.0050   -8.1120 O.2    62  GLN62      -0.2864
     89  CB       -25.4470   -7.8480   -5.8360 C.3    62  GLN62       0.0394
     90  CG       -25.1570   -7.7170   -4.3510 C.3    62  GLN62       0.0908
     91  CD       -26.4250   -7.5370   -3.5380 C.2    62  GLN62       0.2608
     92  OE1      -27.1950   -6.6050   -3.7660 O.2    62  GLN62      -0.2717
     93  NE2      -26.6550   -8.4410   -2.5940 N.am   62  GLN62      -0.0878
     94  N        -21.6080  -10.1010   -9.8310 N.3    65  SER65      -0.1202
     95  CA       -21.0110  -11.1990   -9.0830 C.3    65  SER65       0.2020
     96  C        -21.7040  -12.5250   -9.3700 C.2    65  SER65       0.2618
     97  O        -21.0430  -13.5480   -9.5400 O.2    65  SER65      -0.2717
     98  CB       -21.0500  -10.9020   -7.5820 C.3    65  SER65       0.2103
     99  OG       -20.1130   -9.8970   -7.2400 O.3    65  SER65      -0.2182
    100  N        -23.0320  -12.5050   -9.4180 N.am   66  ARG66      -0.1979
    101  CA       -23.8020  -13.7160   -9.6700 C.3    66  ARG66       0.1597
    102  C        -23.6710  -14.1460  -11.1270 C.2    66  ARG66       0.2287
    103  O        -23.6410  -15.3380  -11.4320 O.2    66  ARG66      -0.2864
    104  CB       -25.2730  -13.5030   -9.3000 C.3    66  ARG66       0.0334
    105  CG       -25.5500  -13.6370   -7.8080 C.3    66  ARG66       0.0492
    106  CD       -26.4250  -12.5110   -7.2840 C.3    66  ARG66       0.2205
    107  NE       -26.5590  -12.5750   -5.8310 N.pl3  66  ARG66      -0.0865
    108  CZ       -25.6890  -12.0330   -4.9850 C.cat  66  ARG66       0.5346
    109  NH1      -24.6330  -11.3800   -5.4500 N.pl3  66  ARG66       0.1354
    110  NH2      -25.8740  -12.1360   -3.6770 N.pl3  66  ARG66       0.1354
    111  N        -20.2790  -15.8920  -11.7730 N.3    69  GLU69      -0.1245
    112  CA       -20.2630  -17.2700  -11.2940 C.3    69  GLU69       0.1567
    113  C        -21.4050  -18.0760  -11.9040 C.2    69  GLU69       0.2260
    114  O        -21.6960  -19.1870  -11.4580 O.2    69  GLU69      -0.2867
    115  CB       -20.3660  -17.3090   -9.7660 C.3    69  GLU69       0.0388
    116  CG       -19.2410  -16.5980   -9.0270 C.3    69  GLU69       0.1160
    117  CD       -18.2420  -17.5700   -8.4260 C.2    69  GLU69       0.3649
    118  OE1      -18.3320  -18.7810   -8.7260 O.co2  69  GLU69      -0.2457
    119  OE2      -17.3750  -17.1270   -7.6450 O.co2  69  GLU69      -0.2457
    120  N        -22.8090  -25.4690   -8.8520 N.3    74  ASP74      -0.1225
    121  CA       -22.6120  -25.9600   -7.4890 C.3    74  ASP74       0.1805
    122  C        -22.5900  -24.7650   -6.5520 C.2    74  ASP74       0.2598
    123  O        -22.5890  -24.9110   -5.3290 O.2    74  ASP74      -0.2718
    124  CB       -21.3060  -26.7440   -7.3350 C.3    74  ASP74       0.1424
    125  CG       -21.2730  -28.0190   -8.1530 C.2    74  ASP74       0.3668
    126  OD1      -22.1550  -28.8840   -7.9770 O.co2  74  ASP74      -0.2456
    127  OD2      -20.3290  -28.1620   -8.9620 O.co2  74  ASP74      -0.2456
    128  N        -22.5880  -23.5760   -7.1440 N.am   75  CYS75      -0.1956
    129  CA       -22.5320  -22.3450   -6.3760 C.3    75  CYS75       0.1843
    130  C        -23.9270  -21.8280   -6.0600 C.2    75  CYS75       0.2626
    131  O        -24.8410  -21.9250   -6.8810 O.2    75  CYS75      -0.2714
    132  CB       -21.7320  -21.2870   -7.1410 C.3    75  CYS75       0.0997
    133  SG       -21.6090  -19.6990   -6.3180 S.3    75  CYS75      -0.0797
    134  N        -24.0800  -21.2750   -4.8610 N.am   76  SER76      -0.1936
    135  CA       -25.3500  -20.7030   -4.4370 C.3    76  SER76       0.2055
    136  C        -25.1210  -19.3670   -3.7400 C.2    76  SER76       0.2643
    137  O        -24.2180  -19.2340   -2.9130 O.2    76  SER76      -0.2714
    138  CB       -26.0970  -21.6690   -3.5140 C.3    76  SER76       0.2130
    139  OG       -27.3170  -21.1090   -3.0710 O.3    76  SER76      -0.2179
    140  N        -25.9450  -18.3820   -4.0780 N.am   77  PHE77      -0.1959
    141  CA       -25.8080  -17.0430   -3.5240 C.3    77  PHE77       0.1771
    142  C        -26.9210  -16.7520   -2.5300 C.2    77  PHE77       0.2620
    143  O        -26.8330  -15.8270   -1.7230 O.2    77  PHE77      -0.2715
    144  CB       -25.8230  -16.0040   -4.6410 C.3    77  PHE77       0.0574
    145  CG       -24.5120  -15.8640   -5.3520 C.ar   77  PHE77      -0.0200
    146  CD1      -24.1510  -16.7460   -6.3620 C.ar   77  PHE77      -0.0042
    147  CD2      -23.6370  -14.8450   -5.0100 C.ar   77  PHE77      -0.0042
    148  CE1      -22.9400  -16.6100   -7.0210 C.ar   77  PHE77      -0.0003
    149  CE2      -22.4250  -14.7040   -5.6610 C.ar   77  PHE77      -0.0003
    150  CZ       -22.0750  -15.5880   -6.6670 C.ar   77  PHE77      -0.0000
    151  N        -27.9750  -17.5520   -2.6070 N.am   78  ASP78      -0.1957
    152  CA       -29.1020  -17.4500   -1.6930 C.3    78  ASP78       0.1840
    153  C        -29.2010  -18.6430   -0.7540 C.2    78  ASP78       0.2621
    154  O        -28.6980  -19.7260   -1.0530 O.2    78  ASP78      -0.2715
    155  CB       -30.4110  -17.3090   -2.4720 C.3    78  ASP78       0.1450
    156  CG       -30.4580  -16.0500   -3.3090 C.2    78  ASP78       0.3671
    157  OD1      -29.8150  -16.0280   -4.3760 O.co2  78  ASP78      -0.2456
    158  OD2      -31.1400  -15.0860   -2.9040 O.co2  78  ASP78      -0.2456
    159  N        -29.7610  -18.3950    0.4250 N.am   79  MET79      -0.1977
    160  CA       -30.0210  -19.4270    1.4210 C.3    79  MET79       0.1605
    161  C        -31.5080  -19.3020    1.7720 C.2    79  MET79       0.2287
    162  O        -31.8480  -18.4910    2.6320 O.2    79  MET79      -0.2864
    163  CB       -29.1210  -19.2560    2.6480 C.3    79  MET79       0.0413
    164  CG       -28.9140  -17.8040    3.0770 C.3    79  MET79       0.0598
    165  SD       -27.9090  -17.6330    4.5670 S.3    79  MET79      -0.1393
    166  CE       -26.2970  -18.0980    3.9440 C.3    79  MET79       0.0692
    167  N        -30.3830  -22.5920   -0.4650 N.3    81  ALA81      -0.1245
    168  CA       -29.3180  -22.9350   -1.3970 C.3    81  ALA81       0.1562
    169  C        -29.8370  -23.5370   -2.6980 C.2    81  ALA81       0.2260
    170  O        -29.0860  -24.2020   -3.4130 O.2    81  ALA81      -0.2867
    171  CB       -28.3490  -23.8980   -0.7380 C.3    81  ALA81       0.0290
    172  N        -34.3660   -5.8170   -7.8280 N.3    95  MET95      -0.1245
    173  CA       -34.0190   -4.8470   -6.7950 C.3    95  MET95       0.1570
    174  C        -33.4460   -3.5900   -7.4430 C.2    95  MET95       0.2261
    175  O        -33.7160   -2.4730   -7.0010 O.2    95  MET95      -0.2867
    176  CB       -33.0030   -5.4200   -5.7980 C.3    95  MET95       0.0387
    177  CG       -33.4830   -6.5890   -4.9430 C.3    95  MET95       0.0595
    178  SD       -32.2110   -7.0820   -3.7490 S.3    95  MET95      -0.1393
    179  CE       -32.4680   -8.8550   -3.6610 C.3    95  MET95       0.0692
    180  N        -34.7200    0.1930   -6.9510 N.3    99  GLU99      -0.1245
    181  CA       -33.8150    1.1780   -6.3670 C.3    99  GLU99       0.1567
    182  C        -33.3570    2.2550   -7.3520 C.2    99  GLU99       0.2260
    183  O        -33.0310    3.3700   -6.9460 O.2    99  GLU99      -0.2867
    184  CB       -32.5950    0.4650   -5.7790 C.3    99  GLU99       0.0388
    185  CG       -32.9300   -0.4730   -4.6210 C.3    99  GLU99       0.1160
    186  CD       -31.6960   -0.9660   -3.8830 C.2    99  GLU99       0.3649
    187  OE1      -30.6750   -0.2450   -3.8690 O.co2  99  GLU99      -0.2457
    188  OE2      -31.7480   -2.0800   -3.3200 O.co2  99  GLU99      -0.2457
@<TRIPOS>BOND
     1   113   114    2
     2   113   112    1
     3   111   112    1
     4   103   102    2
     5   112   115    1
     6   102   101    1
     7    94    95    1
     8   115   116    1
     9   101   100    1
    10   101   104    1
    11    97    96    2
    12   100    96   am
    13    96    95    1
    14   104   105    1
    15    95    98    1
    16   116   117    1
    17   127   125   ar
    18   120   121    1
    19   118   117   ar
    20   117   119   ar
    21    77    78    1
    22   125   126   ar
    23   125   124    1
    24    88    87    2
    25    83    84    1
    26    83    82    1
    27    69    68    2
    28    87    86    1
    29    78    79    1
    30    78    81    1
    31    80    79    2
    32   172   173    1
    33   105   106    1
    34    68    67    1
    35    79    85   am
    36    98    99    1
    37   121   124    1
    38   121   122    1
    39   174   175    2
    40   174   173    1
    41   182   183    2
    42   182   181    1
    43   106   107    1
    44   128   122   am
    45   128   129    1
    46   132   129    1
    47   132   133    1
    48    85    86    1
    49   148   150   ar
    50   148   146   ar
    51   180   181    1
    52   131   130    2
    53   173   176    1
    54    81    82    1
    55    86    89    1
    56   150   149   ar
    57   122   123    2
    58    70    67    1
    59    70    71    1
    60   129   130    1
    61   181   184    1
    62   146   145   ar
    63    67    66    1
    64    10     9    1
    65   130   134   am
    66     5     6    1
    67     5     2    1
    68     1     2    1
    69    89    90    1
    70   107   108    2
    71   176   177    1
    72   184   185    1
    73     7     6    1
    74     7     8    1
    75   149   147   ar
    76    66    60   am
    77   109   108    1
    78     9     8    2
    79     9    11    1
    80   145   147   ar
    81   145   144    1
    82     2     3    1
    83    61    60    2
    84    26    27    1
    85    26    25    1
    86    71    72    1
    87    60    59    1
    88   108   110    1
    89   177   178    1
    90   134   135    1
    91    58    59    1
    92   144   141    1
    93   185   186    1
    94    72    73    1
    95   135   136    1
    96   135   138    1
    97   157   156   ar
    98    59    62    1
    99    90    91    1
   100   140   136   am
   101   140   141    1
   102   186   187   ar
   103   186   188   ar
   104    55    54    2
   105     3    12   am
   106     3     4    2
   107    92    91    2
   108   178   179    1
   109   136   137    2
   110    25    24    1
   111    12    13    1
   112    91    93   am
   113    54    53    1
   114   141   142    1
   115   138   139    1
   116   170   169    2
   117    73    74    2
   118   156   158   ar
   119   156   155    1
   120    19    17   ar
   121    18    17   ar
   122    17    16    1
   123    62    63    1
   124   169   168    1
   125    24    21    1
   126   151   142   am
   127   151   152    1
   128   142   143    2
   129   155   152    1
   130    75    74    1
   131    74    76    1
   132    13    16    1
   133    13    14    1
   134    65    63    1
   135    53    52    1
   136    53    56    1
   137    63    64    1
   138   152   153    1
   139    20    21    1
   140    57    56    1
   141   168   171    1
   142   168   167    1
   143    21    22    1
   144    14    15    2
   145   154   153    2
   146   153   159   am
   147    28    22   am
   148    28    29    1
   149    22    23    2
   150    35    34    2
   151    32    29    1
   152    32    33    1
   153   159   160    1
   154    29    30    1
   155    34    33    1
   156    34    36   am
   157    43    42    1
   158    44    42    1
   159   160   161    1
   160   160   163    1
   161    42    41    1
   162   161   162    2
   163    30    31    2
   164   163   164    1
   165   164   165    1
   166    41    38    1
   167    37    38    1
   168    38    39    1
   169   166   165    1
   170    39    40    2
   171    39    45   am
   172    45    46    1
   173    46    49    1
   174    46    47    1
   175    50    49    1
   176    51    49    1
   177    47    48    2
