@<TRIPOS>MOLECULE
tmp/4rqkA02.pdb
 89 84 0 0 0
SMALL
GASTEIGER

@<TRIPOS>ATOM
      1  N        -22.5210   -9.8060   -2.5150 N.3    95  LEU95      -0.1245
      2  CA       -23.8530  -10.1740   -2.9740 C.3    95  LEU95       0.1561
      3  C        -23.8190  -11.4080   -3.8770 C.2    95  LEU95       0.2260
      4  O        -24.7160  -12.2460   -3.8220 O.2    95  LEU95      -0.2867
      5  CB       -24.4930   -9.0050   -3.7090 C.3    95  LEU95       0.0270
      6  CG       -25.8730   -9.2750   -4.2900 C.3    95  LEU95       0.0019
      7  CD1      -26.8480   -9.6330   -3.1980 C.3    95  LEU95       0.0001
      8  CD2      -26.3480   -8.0580   -5.0730 C.3    95  LEU95       0.0001
      9  N        -23.8070  -14.4430   -1.7140 N.3    98  ILE98      -0.1231
     10  CA       -25.1100  -14.6270   -1.0930 C.3    98  ILE98       0.1692
     11  C        -26.0760  -15.2890   -2.0750 C.2    98  ILE98       0.2591
     12  O        -26.8120  -16.2000   -1.7110 O.2    98  ILE98      -0.2718
     13  CB       -25.7120  -13.2810   -0.6080 C.3    98  ILE98       0.0266
     14  CG1      -24.8320  -12.6580    0.4840 C.3    98  ILE98       0.0019
     15  CG2      -27.1160  -13.5040   -0.0540 C.3    98  ILE98       0.0020
     16  CD1      -25.1720  -11.2140    0.8350 C.3    98  ILE98       0.0001
     17  N        -26.0890  -14.8200   -3.3180 N.am   99  ARG99      -0.1980
     18  CA       -27.0080  -15.3740   -4.3140 C.3    99  ARG99       0.1597
     19  C        -26.6720  -16.8080   -4.6710 C.2    99  ARG99       0.2287
     20  O        -27.5610  -17.6520   -4.8490 O.2    99  ARG99      -0.2864
     21  CB       -26.9950  -14.5150   -5.5700 C.3    99  ARG99       0.0334
     22  CG       -27.7050  -13.2100   -5.3830 C.3    99  ARG99       0.0492
     23  CD       -27.4580  -12.2760   -6.5370 C.3    99  ARG99       0.2205
     24  NE       -28.3630  -11.1360   -6.4820 N.pl3  99  ARG99      -0.0865
     25  CZ       -28.3050  -10.0950   -7.3050 C.cat  99  ARG99       0.5346
     26  NH1      -27.3730  -10.0440   -8.2520 N.pl3  99  ARG99       0.1354
     27  NH2      -29.1770   -9.1020   -7.1760 N.pl3  99  ARG99       0.1354
     28  N        -26.8930  -18.9000   -1.0670 N.3   102  GLY102     -0.1225
     29  CA       -28.2450  -18.8220   -0.5480 C.3   102  GLY102      0.1811
     30  C        -28.3070  -18.4750    0.9220 C.2   102  GLY102      0.2280
     31  O        -29.0710  -17.6020    1.3160 O.2   102  GLY102     -0.2866
     32  N        -23.6060   -5.2610   -2.1890 N.3   136  GLU136     -0.1245
     33  CA       -22.9940   -4.8510   -3.4530 C.3   136  GLU136      0.1567
     34  C        -21.7940   -3.9390   -3.2420 C.2   136  GLU136      0.2260
     35  O        -20.9880   -3.7780   -4.1530 O.2   136  GLU136     -0.2867
     36  CB       -23.9970   -4.1150   -4.3570 C.3   136  GLU136      0.0388
     37  CG       -25.1160   -4.9660   -4.8740 C.3   136  GLU136      0.1160
     38  CD       -26.3810   -4.1600   -5.1470 C.2   136  GLU136      0.3649
     39  OE1      -27.4720   -4.5660   -4.6740 O.co2 136  GLU136     -0.2457
     40  OE2      -26.2790   -3.1220   -5.8390 O.co2 136  GLU136     -0.2457
     41  N        -33.5680   -0.9500    0.3490 N.3   173  GLN173     -0.1231
     42  CA       -33.6330   -2.1230    1.2080 C.3   173  GLN173      0.1698
     43  C        -32.8760   -1.9520    2.5200 C.2   173  GLN173      0.2592
     44  O        -33.1820   -2.6290    3.4940 O.2   173  GLN173     -0.2718
     45  CB       -33.0960   -3.3530    0.4680 C.3   173  GLN173      0.0381
     46  CG       -34.0250   -3.8700   -0.6040 C.3   173  GLN173      0.0905
     47  CD       -33.8090   -3.2180   -1.9660 C.2   173  GLN173      0.2608
     48  OE1      -33.0620   -2.2350   -2.1110 O.2   173  GLN173     -0.2717
     49  NE2      -34.4680   -3.7750   -2.9830 N.am  173  GLN173     -0.0878
     50  N        -31.8960   -1.0470    2.5340 N.am  174  TYR174     -0.1976
     51  CA       -31.0060   -0.8690    3.6750 C.3   174  TYR174      0.1639
     52  C        -31.1100    0.5040    4.3370 C.2   174  TYR174      0.2290
     53  O        -30.3700    0.7720    5.2940 O.2   174  TYR174     -0.2864
     54  CB       -29.5420   -1.1140    3.2450 C.3   174  TYR174      0.0560
     55  CG       -29.3910   -2.4210    2.4990 C.ar  174  TYR174     -0.0198
     56  CD1      -29.2230   -3.6260    3.1820 C.ar  174  TYR174     -0.0009
     57  CD2      -29.4630   -2.4600    1.1230 C.ar  174  TYR174     -0.0009
     58  CE1      -29.1400   -4.8240    2.5070 C.ar  174  TYR174      0.0417
     59  CE2      -29.3810   -3.6600    0.4420 C.ar  174  TYR174      0.0417
     60  CZ       -29.2230   -4.8340    1.1350 C.ar  174  TYR174      0.1957
     61  OH       -29.1430   -6.0080    0.4230 O.3   174  TYR174     -0.2866
     62  N        -29.5760  -10.9220    5.9560 N.3   200  GLN200     -0.1245
     63  CA       -29.4700  -11.3860    4.5750 C.3   200  GLN200      0.1566
     64  C        -28.4520  -12.5270    4.4190 C.2   200  GLN200      0.2260
     65  O        -28.6590  -13.4410    3.6210 O.2   200  GLN200     -0.2867
     66  CB       -29.1020  -10.2120    3.6620 C.3   200  GLN200      0.0367
     67  CG       -29.0350  -10.5750    2.1990 C.3   200  GLN200      0.0905
     68  CD       -28.9770   -9.3580    1.2980 C.2   200  GLN200      0.2608
     69  OE1      -28.7680   -8.2430    1.7580 O.2   200  GLN200     -0.2717
     70  NE2      -29.1790   -9.5660    0.0020 N.am  200  GLN200     -0.0878
     71  N        -30.8790  -15.0840    3.0590 N.3   204  GLY204     -0.1210
     72  CA       -30.7630  -15.0270    1.6020 C.3   204  GLY204      0.1956
     73  C        -31.2800  -13.7350    0.9900 C.2   204  GLY204      0.2612
     74  O        -30.7170  -13.2060    0.0480 O.2   204  GLY204     -0.2717
     75  N        -32.3630  -13.2280    1.5560 N.am  205  LEU205     -0.1966
     76  CA       -32.9520  -11.9660    1.1510 C.3   205  LEU205      0.1713
     77  C        -32.8930  -11.0240    2.3260 C.2   205  LEU205      0.2458
     78  O        -32.9450  -11.4630    3.4630 O.2   205  LEU205     -0.2730
     79  CB       -34.4040  -12.1460    0.7180 C.3   205  LEU205      0.0310
     80  CG       -34.7260  -13.0970   -0.4270 C.3   205  LEU205      0.0022
     81  CD1      -36.2130  -13.1320   -0.6880 C.3   205  LEU205      0.0001
     82  CD2      -33.9910  -12.6780   -1.6630 C.3   205  LEU205      0.0001
     83  N        -32.8220   -9.7190    2.0580 N.am  206  PRO206     -0.2727
     84  CA       -32.8400   -8.7780    3.1830 C.3   206  PRO206      0.1402
     85  C        -34.2190   -8.7420    3.8440 C.2   206  PRO206      0.2269
     86  O        -35.1630   -9.2950    3.3060 O.2   206  PRO206     -0.2865
     87  CB       -32.4860   -7.4490    2.5330 C.3   206  PRO206      0.0296
     88  CG       -32.9540   -7.5800    1.1110 C.3   206  PRO206      0.0237
     89  CD       -32.7640   -9.0370    0.7530 C.3   206  PRO206      0.0939
@<TRIPOS>BOND
     1    26    25    1
     2    25    27    1
     3    25    24    2
     4    23    24    1
     5    23    22    1
     6    40    38   ar
     7    21    22    1
     8    21    18    1
     9    38    37    1
    10    38    39   ar
    11     8     6    1
    12    37    36    1
    13    20    19    2
    14    19    18    1
    15    36    33    1
    16    18    17    1
    17     6     5    1
    18     6     7    1
    19    35    34    2
    20     3     4    2
    21     3     2    1
    22     5     2    1
    23    33    34    1
    24    33    32    1
    25    17    11   am
    26    49    47   am
    27     2     1    1
    28    48    47    2
    29    11    12    2
    30    11    10    1
    31    47    46    1
    32     9    10    1
    33    82    80    1
    34    10    13    1
    35    28    29    1
    36    81    80    1
    37    13    15    1
    38    13    14    1
    39    46    45    1
    40    29    30    1
    41    80    79    1
    42    70    68   am
    43    74    73    2
    44    41    42    1
    45    61    60    1
    46    59    57   ar
    47    59    60   ar
    48    45    42    1
    49    14    16    1
    50    79    76    1
    51    89    88    1
    52    89    83    1
    53    30    31    2
    54    73    75   am
    55    73    72    1
    56    88    87    1
    57    57    55   ar
    58    60    58   ar
    59    76    75    1
    60    76    77    1
    61    42    43    1
    62    68    69    2
    63    68    67    1
    64    72    71    1
    65    83    77   am
    66    83    84    1
    67    67    66    1
    68    77    78    2
    69    55    56   ar
    70    55    54    1
    71    58    56   ar
    72    43    50   am
    73    43    44    2
    74    87    84    1
    75    50    51    1
    76    84    85    1
    77    54    51    1
    78    86    85    2
    79    65    64    2
    80    66    63    1
    81    51    52    1
    82    52    53    2
    83    64    63    1
    84    63    62    1
