@<TRIPOS>MOLECULE
tmp/4rqkA01.pdb
 124 119 0 0 0
SMALL
GASTEIGER

@<TRIPOS>ATOM
      1  N          2.7740   12.3570  -10.9960 N.3     3  LYS3       -0.1245
      2  CA         1.3590   12.1310  -11.3000 C.3     3  LYS3        0.1561
      3  C          1.2730   11.1200  -12.4250 C.2     3  LYS3        0.2260
      4  O          1.9870   11.2180  -13.4310 O.2     3  LYS3       -0.2867
      5  CB         0.6160   13.4080  -11.7080 C.3     3  LYS3        0.0271
      6  CG         0.4340   14.4640  -10.6240 C.3     3  LYS3        0.0035
      7  CD        -0.3470   13.9790   -9.4020 C.3     3  LYS3        0.0206
      8  CE        -1.8240   13.7340   -9.6950 C.3     3  LYS3        0.1093
      9  NZ        -2.5990   13.5300   -8.4260 N.3     3  LYS3       -0.1314
     10  N        -16.0070   13.8290  -17.6510 N.3    42  LYS42      -0.1245
     11  CA       -16.1960   15.1560  -17.0830 C.3    42  LYS42       0.1561
     12  C        -17.4910   15.8040  -17.5710 C.2    42  LYS42       0.2260
     13  O        -18.2350   16.4000  -16.7870 O.2    42  LYS42      -0.2867
     14  CB       -15.0090   16.0560  -17.4250 C.3    42  LYS42       0.0271
     15  CG       -13.7360   15.7410  -16.6580 C.3    42  LYS42       0.0035
     16  CD       -12.6090   16.6430  -17.1040 C.3    42  LYS42       0.0206
     17  CE       -11.4040   16.5060  -16.2210 C.3    42  LYS42       0.1093
     18  NZ       -10.2350   17.2290  -16.7840 N.3    42  LYS42      -0.1314
     19  N        -20.5550   14.1350  -15.7850 N.3    45  ILE45      -0.1231
     20  CA       -20.7660   14.4900  -14.3830 C.3    45  ILE45       0.1692
     21  C        -21.0890   15.9880  -14.2090 C.2    45  ILE45       0.2591
     22  O        -21.8160   16.3540  -13.2840 O.2    45  ILE45      -0.2718
     23  CB       -19.5510   14.1030  -13.5020 C.3    45  ILE45       0.0266
     24  CG1      -18.2770   14.8380  -13.9270 C.3    45  ILE45       0.0019
     25  CG2      -19.3490   12.5860  -13.5360 C.3    45  ILE45       0.0020
     26  CD1      -17.0830   14.6010  -12.9720 C.3    45  ILE45       0.0001
     27  N        -20.5620   16.8420  -15.0850 N.am   46  ILE46      -0.1980
     28  CA       -20.8870   18.2670  -15.0370 C.3    46  ILE46       0.1595
     29  C        -22.3430   18.4540  -15.4260 C.2    46  ILE46       0.2287
     30  O        -23.0700   19.2260  -14.8030 O.2    46  ILE46      -0.2864
     31  CB       -19.9890   19.1140  -15.9740 C.3    46  ILE46       0.0276
     32  CG1      -18.5970   19.2580  -15.3650 C.3    46  ILE46       0.0022
     33  CG2      -20.6090   20.5120  -16.2160 C.3    46  ILE46       0.0022
     34  CD1      -17.5930   19.9740  -16.2480 C.3    46  ILE46       0.0001
     35  N        -20.6920   16.3520   -9.7200 N.3    51  VAL51      -0.1245
     36  CA       -19.3400   16.7200   -9.2970 C.3    51  VAL51       0.1561
     37  C        -19.1620   16.5990   -7.7800 C.2    51  VAL51       0.2260
     38  O        -18.1310   16.0900   -7.3290 O.2    51  VAL51      -0.2867
     39  CB       -18.9670   18.1410   -9.7560 C.3    51  VAL51       0.0252
     40  CG1      -17.6400   18.5780   -9.1430 C.3    51  VAL51       0.0019
     41  CG2      -18.8700   18.1870  -11.2830 C.3    51  VAL51       0.0019
     42  N        -18.2020   13.1120   -6.7570 N.3    54  VAL54      -0.1231
     43  CA       -16.8480   12.7380   -7.1280 C.3    54  VAL54       0.1692
     44  C        -15.8390   13.3130   -6.1400 C.2    54  VAL54       0.2592
     45  O        -14.9010   12.6290   -5.7070 O.2    54  VAL54      -0.2718
     46  CB       -16.5400   13.2130   -8.5560 C.3    54  VAL54       0.0266
     47  CG1      -15.1030   12.9460   -8.9150 C.3    54  VAL54       0.0020
     48  CG2      -17.4670   12.5190   -9.5240 C.3    54  VAL54       0.0020
     49  N        -16.0270   14.5710   -5.7750 N.am   55  THR55      -0.1953
     50  CA       -15.1170   15.2000   -4.8240 C.3    55  THR55       0.1897
     51  C        -15.3090   14.5640   -3.4460 C.2    55  THR55       0.2313
     52  O        -14.3450   14.3760   -2.7250 O.2    55  THR55      -0.2863
     53  CB       -15.3180   16.7260   -4.7530 C.3    55  THR55       0.1794
     54  OG1      -16.6290   17.0290   -4.2700 O.3    55  THR55      -0.2208
     55  CG2      -15.1460   17.3310   -6.1170 C.3    55  THR55       0.0378
     56  N        -13.3640   11.2060   -3.3670 N.3    58  ARG58      -0.1245
     57  CA       -11.9260   11.3760   -3.2140 C.3    58  ARG58       0.1563
     58  C        -11.5740   11.8170   -1.8000 C.2    58  ARG58       0.2260
     59  O        -10.6380   11.2870   -1.1930 O.2    58  ARG58      -0.2867
     60  CB       -11.3680   12.3950   -4.1980 C.3    58  ARG58       0.0307
     61  CG        -9.8690   12.6170   -4.0210 C.3    58  ARG58       0.0489
     62  CD        -9.3030   13.6410   -4.9830 C.3    58  ARG58       0.2205
     63  NE        -7.9030   13.9170   -4.6660 N.pl3  58  ARG58      -0.0865
     64  CZ        -7.0340   14.4760   -5.5010 C.cat  58  ARG58       0.5346
     65  NH1       -7.4110   14.8230   -6.7230 N.pl3  58  ARG58       0.1354
     66  NH2       -5.7810   14.6760   -5.1170 N.pl3  58  ARG58       0.1354
     67  N         -4.9760    9.5370   -7.9560 N.3    75  THR75      -0.1203
     68  CA        -5.9500   10.0950   -8.8710 C.3    75  THR75       0.1994
     69  C         -5.2230   10.8720   -9.9740 C.2    75  THR75       0.2618
     70  O         -4.1390   11.4140   -9.7630 O.2    75  THR75      -0.2717
     71  CB        -6.9270   11.0410   -8.1530 C.3    75  THR75       0.1784
     72  OG1       -6.1880   12.0570   -7.4760 O.3    75  THR75      -0.2211
     73  CG2       -7.7740   10.2970   -7.1380 C.3    75  THR75       0.0376
     74  N         -5.8300   10.9390  -11.1450 N.am   76  PHE76      -0.1961
     75  CA        -5.3460   11.8370  -12.1810 C.3    76  PHE76       0.1771
     76  C         -6.4850   12.1430  -13.1380 C.2    76  PHE76       0.2619
     77  O         -7.5990   11.6260  -12.9920 O.2    76  PHE76      -0.2715
     78  CB        -4.1190   11.2490  -12.9060 C.3    76  PHE76       0.0574
     79  CG        -4.3370    9.8920  -13.5220 C.ar   76  PHE76      -0.0200
     80  CD1       -4.8120    9.7680  -14.8150 C.ar   76  PHE76      -0.0042
     81  CD2       -4.0380    8.7410  -12.8190 C.ar   76  PHE76      -0.0042
     82  CE1       -5.0040    8.5210  -15.3830 C.ar   76  PHE76      -0.0003
     83  CE2       -4.2230    7.4810  -13.3890 C.ar   76  PHE76      -0.0003
     84  CZ        -4.7010    7.3750  -14.6680 C.ar   76  PHE76      -0.0000
     85  N         -6.2130   13.0030  -14.1040 N.am   77  GLN77      -0.1977
     86  CA        -7.2340   13.3860  -15.0610 C.3    77  GLN77       0.1601
     87  C         -6.6010   13.7220  -16.3880 C.2    77  GLN77       0.2287
     88  O         -5.4010   13.9860  -16.4580 O.2    77  GLN77      -0.2864
     89  CB        -8.0340   14.5740  -14.5310 C.3    77  GLN77       0.0394
     90  CG        -7.1970   15.8300  -14.2980 C.3    77  GLN77       0.0908
     91  CD        -8.0220   16.9810  -13.7590 C.2    77  GLN77       0.2608
     92  OE1       -8.9170   17.4950  -14.4350 O.2    77  GLN77      -0.2717
     93  NE2       -7.7360   17.3830  -12.5290 N.am   77  GLN77      -0.0878
     94  N        -11.8810   11.7920  -15.4540 N.3    82  LEU82      -0.1231
     95  CA       -11.2970   11.6440  -14.1110 C.3    82  LEU82       0.1693
     96  C        -10.9880   10.1770  -13.8610 C.2    82  LEU82       0.2592
     97  O        -11.7870    9.3020  -14.2180 O.2    82  LEU82      -0.2718
     98  CB       -12.2560   12.1450  -13.0290 C.3    82  LEU82       0.0284
     99  CG       -12.7090   13.5940  -13.1070 C.3    82  LEU82       0.0019
    100  CD1      -13.8370   13.8060  -12.1400 C.3    82  LEU82       0.0001
    101  CD2      -11.5660   14.5350  -12.8130 C.3    82  LEU82       0.0001
    102  N         -9.8500    9.9170  -13.2180 N.am   83  TYR83      -0.1962
    103  CA        -9.4110    8.5610  -12.9120 C.3    83  TYR83       0.1771
    104  C         -9.0930    8.3760  -11.4250 C.2    83  TYR83       0.2619
    105  O         -8.3280    9.1360  -10.8520 O.2    83  TYR83      -0.2715
    106  CB        -8.1720    8.2010  -13.7170 C.3    83  TYR83       0.0574
    107  CG        -8.2780    8.3290  -15.2220 C.ar   83  TYR83      -0.0198
    108  CD1       -8.1880    9.5660  -15.8480 C.ar   83  TYR83      -0.0009
    109  CD2       -8.4000    7.1990  -16.0240 C.ar   83  TYR83      -0.0009
    110  CE1       -8.2490    9.6820  -17.2370 C.ar   83  TYR83       0.0417
    111  CE2       -8.4620    7.3010  -17.4050 C.ar   83  TYR83       0.0417
    112  CZ        -8.3870    8.5480  -18.0050 C.ar   83  TYR83       0.1957
    113  OH        -8.4320    8.6560  -19.3770 O.3    83  TYR83      -0.2866
    114  N         -9.6890    7.3570  -10.8210 N.am   84  PHE84      -0.1974
    115  CA        -9.3510    6.9120   -9.4630 C.3    84  PHE84       0.1639
    116  C         -8.5990    5.5970   -9.5450 C.2    84  PHE84       0.2290
    117  O         -9.1480    4.6200  -10.0540 O.2    84  PHE84      -0.2864
    118  CB       -10.5830    6.6290   -8.6000 C.3    84  PHE84       0.0560
    119  CG       -11.4380    7.8030   -8.2680 C.ar   84  PHE84      -0.0200
    120  CD1      -12.4190    8.2430   -9.1470 C.ar   84  PHE84      -0.0042
    121  CD2      -11.3410    8.4000   -7.0250 C.ar   84  PHE84      -0.0042
    122  CE1      -13.2440    9.2960   -8.8020 C.ar   84  PHE84      -0.0003
    123  CE2      -12.1700    9.4460   -6.6720 C.ar   84  PHE84      -0.0003
    124  CZ       -13.1110    9.8990   -7.5620 C.ar   84  PHE84      -0.0000
@<TRIPOS>BOND
     1   113   112    1
     2   112   111   ar
     3   112   110   ar
     4    10    11    1
     5    12    11    1
     6    12    13    2
     7    14    11    1
     8    14    15    1
     9   111   109   ar
    10   110   108   ar
    11    16    15    1
    12    16    17    1
    13    18    17    1
    14    88    87    2
    15    87    86    1
    16    34    32    1
    17    33    31    1
    18   109   107   ar
    19    31    32    1
    20    31    28    1
    21   108   107   ar
    22    19    20    1
    23    94    95    1
    24    29    28    1
    25    29    30    2
    26    82    80   ar
    27    82    84   ar
    28   107   106    1
    29    27    28    1
    30    27    21   am
    31    86    89    1
    32    86    85    1
    33    80    79   ar
    34    84    83   ar
    35    89    90    1
    36    92    91    2
    37    20    21    1
    38    20    23    1
    39    90    91    1
    40    97    96    2
    41    21    22    2
    42    95    96    1
    43    95    98    1
    44    85    76   am
    45    24    23    1
    46    24    26    1
    47    96   102   am
    48    91    93   am
    49   106   103    1
    50    25    23    1
    51    79    78    1
    52    79    81   ar
    53     4     3    2
    54    83    81   ar
    55   102   103    1
    56    76    77    2
    57    76    75    1
    58    99    98    1
    59    99   101    1
    60    99   100    1
    61   103   104    1
    62    78    75    1
    63     3     2    1
    64    75    74    1
    65     5     2    1
    66     5     6    1
    67   104   105    2
    68   104   114   am
    69     2     1    1
    70    41    39    1
    71    74    69   am
    72   114   115    1
    73     6     7    1
    74   117   116    2
    75    69    70    2
    76    69    68    1
    77    39    36    1
    78    39    40    1
    79    35    36    1
    80     8     7    1
    81     8     9    1
    82   116   115    1
    83    48    46    1
    84   115   118    1
    85    36    37    1
    86   120   122   ar
    87   120   119   ar
    88    47    46    1
    89    68    71    1
    90    68    67    1
    91   122   124   ar
    92   118   119    1
    93    46    43    1
    94   119   121   ar
    95    71    72    1
    96    71    73    1
    97    37    38    2
    98   124   123   ar
    99    43    42    1
   100    43    44    1
   101   121   123   ar
   102    65    64    1
   103    44    49   am
   104    44    45    2
   105    55    53    1
   106    49    50    1
   107    64    66    1
   108    64    63    2
   109    62    63    1
   110    62    61    1
   111    50    53    1
   112    50    51    1
   113    53    54    1
   114    60    61    1
   115    60    57    1
   116    51    52    2
   117    56    57    1
   118    57    58    1
   119    58    59    2
