@<TRIPOS>MOLECULE
tmp/4rqlA02.pdb
 160 155 0 0 0
SMALL
GASTEIGER

@<TRIPOS>ATOM
      1  N          6.0610   23.4690   27.8250 N.3   149  ALA149     -0.1245
      2  CA         6.6640   23.7980   29.1260 C.3   149  ALA149      0.1562
      3  C          7.9010   22.9740   29.3980 C.2   149  ALA149      0.2260
      4  O          8.9080   23.5480   29.8590 O.2   149  ALA149     -0.2867
      5  CB         5.6500   23.6090   30.2600 C.3   149  ALA149      0.0290
      6  N         11.5150   24.1620   30.6530 N.3   153  CYS153     -0.1235
      7  CA        11.9880   23.5640   31.8810 C.3   153  CYS153      0.1677
      8  C         13.3560   22.8810   31.7430 C.2   153  CYS153      0.2270
      9  O         14.2180   23.0110   32.6220 O.2   153  CYS153     -0.2867
     10  CB        10.9810   22.5740   32.3900 C.3   153  CYS153      0.0956
     11  SG         9.5190   23.4060   32.9840 S.3   153  CYS153     -0.0801
     12  N         15.3560   24.9430   34.3280 N.3   157  PHE157     -0.1241
     13  CA        15.4900   24.2020   35.5470 C.3   157  PHE157      0.1605
     14  C         16.2980   22.9470   35.4050 C.2   157  PHE157      0.2264
     15  O         16.4760   22.2790   36.3930 O.2   157  PHE157     -0.2867
     16  CB        14.1150   23.7490   36.0520 C.3   157  PHE157      0.0534
     17  CG        13.1830   24.8580   36.3410 C.ar  157  PHE157     -0.0203
     18  CD1       13.4500   25.7640   37.3630 C.ar  157  PHE157     -0.0042
     19  CD2       12.0110   24.9950   35.6110 C.ar  157  PHE157     -0.0042
     20  CE1       12.5500   26.7980   37.6500 C.ar  157  PHE157     -0.0003
     21  CE2       11.1180   26.0470   35.8860 C.ar  157  PHE157     -0.0003
     22  CZ        11.4010   26.9490   36.9110 C.ar  157  PHE157     -0.0000
     23  N          9.1140   17.6360   33.8710 N.3   161  PHE161     -0.1241
     24  CA         8.0930   17.1160   34.7530 C.3   161  PHE161      0.1605
     25  C          7.2610   16.0870   34.0450 C.2   161  PHE161      0.2264
     26  O          7.1120   16.1570   32.8280 O.2   161  PHE161     -0.2867
     27  CB         7.1820   18.2510   35.1930 C.3   161  PHE161      0.0534
     28  CG         7.8740   19.2270   36.0900 C.ar  161  PHE161     -0.0203
     29  CD1        8.5700   20.3160   35.5620 C.ar  161  PHE161     -0.0042
     30  CD2        7.9280   19.0110   37.4650 C.ar  161  PHE161     -0.0042
     31  CE1        9.2570   21.2070   36.4140 C.ar  161  PHE161     -0.0003
     32  CE2        8.6170   19.9090   38.3250 C.ar  161  PHE161     -0.0003
     33  CZ         9.2740   20.9880   37.7990 C.ar  161  PHE161     -0.0000
     34  N          1.9650   14.4530   37.0140 N.3   165  ASP165     -0.1239
     35  CA         2.3480   15.2700   38.1550 C.3   165  ASP165      0.1674
     36  C          1.3160   16.4220   38.3490 C.2   165  ASP165      0.2266
     37  O          1.3420   17.4560   37.6300 O.2   165  ASP165     -0.2867
     38  CB         3.7370   15.8630   37.8940 C.3   165  ASP165      0.1410
     39  CG         4.2400   16.7470   39.0420 C.2   165  ASP165      0.3668
     40  OD1        3.3670   17.2120   39.8990 O.co2 165  ASP165     -0.2456
     41  OD2        5.5220   16.9770   39.0700 O.co2 165  ASP165     -0.2456
     42  N          1.0850   18.7260   40.6990 N.3   167  GLU167     -0.1231
     43  CA         1.7110   20.0520   40.9320 C.3   167  GLU167      0.1699
     44  C          2.2170   20.7780   39.6650 C.2   167  GLU167      0.2592
     45  O          2.1670   22.0290   39.5640 O.2   167  GLU167     -0.2718
     46  CB         2.8680   19.9230   41.8950 C.3   167  GLU167      0.0402
     47  CG         2.4240   19.3510   43.3040 C.3   167  GLU167      0.1161
     48  CD         3.6310   18.8420   44.1660 C.2   167  GLU167      0.3649
     49  OE1        4.4470   18.0050   43.6540 O.co2 167  GLU167     -0.2457
     50  OE2        3.7660   19.2840   45.3540 O.co2 167  GLU167     -0.2457
     51  N          2.7550   20.0120   38.7210 N.am  168  PHE168     -0.1976
     52  CA         3.2210   20.5840   37.4940 C.3   168  PHE168      0.1639
     53  C          1.9740   21.0950   36.8260 C.2   168  PHE168      0.2290
     54  O          1.9530   22.2420   36.3770 O.2   168  PHE168     -0.2864
     55  CB         3.9010   19.5060   36.6930 C.3   168  PHE168      0.0560
     56  CG         4.2200   19.8760   35.2620 C.ar  168  PHE168     -0.0200
     57  CD1        4.9790   21.0200   34.9510 C.ar  168  PHE168     -0.0042
     58  CD2        3.8890   18.9850   34.2300 C.ar  168  PHE168     -0.0042
     59  CE1        5.3050   21.3030   33.6110 C.ar  168  PHE168     -0.0003
     60  CE2        4.2390   19.2490   32.8910 C.ar  168  PHE168     -0.0003
     61  CZ         4.9480   20.4010   32.5740 C.ar  168  PHE168     -0.0000
     62  N         -0.8420   22.0030   38.1470 N.3   170  LYS170     -0.1231
     63  CA        -1.3480   23.1710   38.7720 C.3   170  LYS170      0.1693
     64  C         -0.6900   24.4690   38.1740 C.2   170  LYS170      0.2592
     65  O         -1.3670   25.4450   37.9610 O.2   170  LYS170     -0.2718
     66  CB        -1.1740   23.0390   40.2730 C.3   170  LYS170      0.0285
     67  CG        -1.8600   24.0680   41.1370 C.3   170  LYS170      0.0035
     68  CD        -1.3110   23.9290   42.5770 C.3   170  LYS170      0.0206
     69  CE        -1.9790   24.9210   43.5360 C.3   170  LYS170      0.1093
     70  NZ        -0.9970   25.2930   44.6430 N.3   170  LYS170     -0.1314
     71  N          0.5990   24.4870   37.9140 N.am  171  MET171     -0.1965
     72  CA         1.2070   25.6820   37.3520 C.3   171  MET171      0.1736
     73  C          0.7920   25.9430   35.9080 C.2   171  MET171      0.2616
     74  O          0.6030   27.1140   35.5370 O.2   171  MET171     -0.2715
     75  CB         2.7200   25.6400   37.4730 C.3   171  MET171      0.0427
     76  CG         3.1480   25.4700   38.9470 C.3   171  MET171      0.0599
     77  SD         3.0150   27.0770   39.8360 S.3   171  MET171     -0.1393
     78  CE         2.7170   26.4920   41.5180 C.3   171  MET171      0.0692
     79  N          0.6320   24.8660   35.1310 N.am  172  LEU172     -0.1977
     80  CA         0.0770   24.9360   33.7860 C.3   172  LEU172      0.1596
     81  C         -1.3190   25.5280   33.8300 C.2   172  LEU172      0.2287
     82  O         -1.6200   26.3910   33.0180 O.2   172  LEU172     -0.2864
     83  CB         0.0590   23.6080   33.0850 C.3   172  LEU172      0.0297
     84  CG         1.4350   22.9640   32.9560 C.3   172  LEU172      0.0022
     85  CD1        1.3180   21.5990   32.2090 C.3   172  LEU172      0.0001
     86  CD2        2.4770   23.8870   32.2830 C.3   172  LEU172      0.0001
     87  N         -0.9420   29.2980   34.1800 N.3   175  PHE175     -0.1241
     88  CA        -0.5340   29.9970   32.9280 C.3   175  PHE175      0.1605
     89  C         -1.7530   30.0620   32.0020 C.2   175  PHE175      0.2264
     90  O         -2.0310   31.1340   31.4490 O.2   175  PHE175     -0.2867
     91  CB         0.6400   29.3050   32.1990 C.3   175  PHE175      0.0534
     92  CG         2.0130   29.5600   32.8240 C.ar  175  PHE175     -0.0203
     93  CD1        2.5510   30.8400   32.8740 C.ar  175  PHE175     -0.0042
     94  CD2        2.7770   28.5320   33.2690 C.ar  175  PHE175     -0.0042
     95  CE1        3.8360   31.0770   33.4080 C.ar  175  PHE175     -0.0003
     96  CE2        4.0670   28.7450   33.8210 C.ar  175  PHE175     -0.0003
     97  CZ         4.5990   30.0070   33.8780 C.ar  175  PHE175     -0.0000
     98  N          1.7310   33.3860   42.5370 N.3   213  GLU213     -0.1231
     99  CA         1.8120   31.9630   42.8260 C.3   213  GLU213      0.1699
    100  C          2.8530   31.2570   41.9310 C.2   213  GLU213      0.2592
    101  O          3.7040   30.5110   42.4550 O.2   213  GLU213     -0.2718
    102  CB         0.4390   31.3340   42.6640 C.3   213  GLU213      0.0402
    103  CG         0.2160   30.0820   43.4470 C.3   213  GLU213      0.1161
    104  CD        -1.2200   29.5610   43.3730 C.2   213  GLU213      0.3649
    105  OE1       -1.3800   28.3060   43.5220 O.co2 213  GLU213     -0.2457
    106  OE2       -2.1720   30.3830   43.1910 O.co2 213  GLU213     -0.2457
    107  N          2.8580   31.5020   40.6150 N.am  214  ILE214     -0.1980
    108  CA         3.9840   30.9970   39.7930 C.3   214  ILE214      0.1595
    109  C          5.3540   31.5530   40.2920 C.2   214  ILE214      0.2287
    110  O          6.3600   30.8510   40.3350 O.2   214  ILE214     -0.2864
    111  CB         3.8280   31.3740   38.3000 C.3   214  ILE214      0.0276
    112  CG1        2.5910   30.7100   37.7060 C.3   214  ILE214      0.0022
    113  CG2        5.0890   30.9470   37.4980 C.3   214  ILE214      0.0022
    114  CD1        1.9500   31.5630   36.5390 C.3   214  ILE214      0.0001
    115  N          6.2640   32.4210   43.3170 N.3   216  ALA216     -0.1231
    116  CA         6.6640   31.7140   44.5560 C.3   216  ALA216      0.1694
    117  C          7.3590   30.3870   44.2100 C.2   216  ALA216      0.2592
    118  O          8.4410   30.0730   44.8010 O.2   216  ALA216     -0.2718
    119  CB         5.4340   31.4780   45.5000 C.3   216  ALA216      0.0304
    120  N          6.8160   29.6270   43.2400 N.am  217  TYR217     -0.1962
    121  CA         7.5600   28.4210   42.8010 C.3   217  TYR217      0.1771
    122  C          9.0060   28.7390   42.3110 C.2   217  TYR217      0.2619
    123  O          9.9870   28.0970   42.7080 O.2   217  TYR217     -0.2715
    124  CB         6.8070   27.5540   41.7690 C.3   217  TYR217      0.0574
    125  CG         7.6940   26.3800   41.3540 C.ar  217  TYR217     -0.0198
    126  CD1        7.8690   25.2550   42.2090 C.ar  217  TYR217     -0.0009
    127  CD2        8.4600   26.4320   40.1730 C.ar  217  TYR217     -0.0009
    128  CE1        8.7700   24.2080   41.8680 C.ar  217  TYR217      0.0417
    129  CE2        9.3500   25.3850   39.8350 C.ar  217  TYR217      0.0417
    130  CZ         9.4920   24.2760   40.6780 C.ar  217  TYR217      0.1957
    131  OH        10.3640   23.2650   40.3150 O.3   217  TYR217     -0.2866
    132  N          9.1400   29.7440   41.4530 N.am  218  ILE218     -0.1977
    133  CA        10.4210   30.0860   40.8760 C.3   218  ILE218      0.1596
    134  C         11.4040   30.5180   41.9450 C.2   218  ILE218      0.2287
    135  O         12.6010   30.1750   41.8570 O.2   218  ILE218     -0.2864
    136  CB        10.2400   31.1960   39.8110 C.3   218  ILE218      0.0276
    137  CG1        9.5230   30.5860   38.5780 C.3   218  ILE218      0.0022
    138  CG2       11.5940   31.8880   39.4310 C.3   218  ILE218      0.0022
    139  CD1        9.1200   31.5840   37.4710 C.3   218  ILE218      0.0001
    140  N         11.5240   29.7860   45.1400 N.3   220  HIS220     -0.1241
    141  CA        11.9820   28.5370   45.7890 C.3   220  HIS220      0.1621
    142  C         12.9460   27.6970   44.9530 C.2   220  HIS220      0.2264
    143  O         13.8590   27.1050   45.5150 O.2   220  HIS220     -0.2867
    144  CB        10.7950   27.6370   46.2040 C.3   220  HIS220      0.0745
    145  CG        11.1930   26.4500   47.0370 C.ar  220  HIS220      0.0817
    146  ND1       11.2440   25.1650   46.5330 N.ar  220  HIS220     -0.2268
    147  CD2       11.5790   26.3590   48.3350 C.ar  220  HIS220      0.1154
    148  CE1       11.6310   24.3310   47.4840 C.ar  220  HIS220      0.1986
    149  NE2       11.8450   25.0330   48.5870 N.ar  220  HIS220     -0.2212
    150  N          9.0910   31.2550   30.8330 N.3   269  PHE269     -0.1241
    151  CA         8.1370   30.2090   31.0650 C.3   269  PHE269      0.1605
    152  C          6.8010   30.4630   30.4730 C.2   269  PHE269      0.2264
    153  O          6.2620   29.6460   29.8360 O.2   269  PHE269     -0.2867
    154  CB         8.0150   29.8710   32.5360 C.3   269  PHE269      0.0534
    155  CG         8.7940   28.7310   32.8920 C.ar  269  PHE269     -0.0203
    156  CD1        8.5160   27.5420   32.3210 C.ar  269  PHE269     -0.0042
    157  CD2        9.8860   28.8430   33.6710 C.ar  269  PHE269     -0.0042
    158  CE1        9.2540   26.4900   32.5740 C.ar  269  PHE269     -0.0003
    159  CE2       10.6190   27.7970   33.9460 C.ar  269  PHE269     -0.0003
    160  CZ        10.3250   26.6070   33.3730 C.ar  269  PHE269     -0.0000
@<TRIPOS>BOND
     1     1     2    1
     2     2     3    1
     3     2     5    1
     4     3     4    2
     5   153   152    2
     6   152   151    1
     7     6     7    1
     8   150   151    1
     9   151   154    1
    10    90    89    2
    11     8     7    1
    12     8     9    2
    13     7    10    1
    14    89    88    1
    15    91    92    1
    16    91    88    1
    17    85    84    1
    18    86    84    1
    19   156   158   ar
    20   156   155   ar
    21    10    11    1
    22   154   155    1
    23   158   160   ar
    24    61    60   ar
    25    61    59   ar
    26    92    93   ar
    27    92    94   ar
    28    26    25    2
    29    93    95   ar
    30    60    58   ar
    31   155   157   ar
    32    88    87    1
    33    84    83    1
    34    82    81    2
    35    83    80    1
    36    94    96   ar
    37   160   159   ar
    38    95    97   ar
    39    59    57   ar
    40   157   159   ar
    41    80    81    1
    42    80    79    1
    43    96    97   ar
    44    23    24    1
    45    25    24    1
    46    58    56   ar
    47    12    13    1
    48    24    27    1
    49    57    56   ar
    50    79    73   am
    51    27    28    1
    52    56    55    1
    53    14    13    1
    54    14    15    2
    55    74    73    2
    56    13    16    1
    57    29    28   ar
    58    29    31   ar
    59    19    21   ar
    60    19    17   ar
    61    21    22   ar
    62    73    72    1
    63    16    17    1
    64    28    30   ar
    65    17    18   ar
    66    54    53    2
    67    31    33   ar
    68   114   112    1
    69    55    52    1
    70    53    52    1
    71    22    20   ar
    72    34    35    1
    73    72    75    1
    74    72    71    1
    75    18    20   ar
    76    30    32   ar
    77   139   137    1
    78    75    76    1
    79    52    51    1
    80   113   111    1
    81    37    36    2
    82   112   111    1
    83    33    32   ar
    84    38    35    1
    85    38    39    1
    86    71    64   am
    87    65    64    2
    88    62    63    1
    89    35    36    1
    90    64    63    1
    91   111   108    1
    92   137   136    1
    93    51    44   am
    94    63    66    1
    95    76    77    1
    96    39    41   ar
    97    39    40   ar
    98   138   136    1
    99    45    44    2
   100    44    43    1
   101   108   109    1
   102   108   107    1
   103   136   133    1
   104   129   127   ar
   105   129   130   ar
   106    77    78    1
   107   127   125   ar
   108    66    67    1
   109   109   110    2
   110   131   130    1
   111   107   100   am
   112   130   128   ar
   113    42    43    1
   114   133   132    1
   115   133   134    1
   116    43    46    1
   117    67    68    1
   118   125   124    1
   119   125   126   ar
   120   132   122   am
   121   124   121    1
   122   135   134    2
   123   128   126   ar
   124    46    47    1
   125   100   101    2
   126   100    99    1
   127   122   123    2
   128   122   121    1
   129    98    99    1
   130    68    69    1
   131   102    99    1
   132   102   103    1
   133   121   120    1
   134   106   104   ar
   135   120   117   am
   136    47    48    1
   137   115   116    1
   138   104   103    1
   139   104   105   ar
   140    69    70    1
   141    49    48   ar
   142    48    50   ar
   143   117   116    1
   144   117   118    2
   145   116   119    1
   146   142   143    2
   147   142   141    1
   148   140   141    1
   149   141   144    1
   150   144   145    1
   151   146   145   ar
   152   146   148   ar
   153   145   147   ar
   154   148   149   ar
   155   147   149   ar
