@<TRIPOS>MOLECULE
tmp/4rqlA03.pdb
 87 81 0 0 0
SMALL
GASTEIGER

@<TRIPOS>ATOM
      1  N        -13.8450   55.5540   23.4310 N.3    16  LEU16      -0.1231
      2  CA       -14.6890   54.3990   23.8350 C.3    16  LEU16       0.1693
      3  C        -15.9460   54.2670   23.0320 C.2    16  LEU16       0.2591
      4  O        -16.3280   53.1390   22.6120 O.2    16  LEU16      -0.2718
      5  CB       -15.0380   54.4140   25.3300 C.3    16  LEU16       0.0284
      6  CG       -16.0340   53.3540   25.8340 C.3    16  LEU16       0.0019
      7  CD1      -15.5100   51.9180   25.7310 C.3    16  LEU16       0.0001
      8  CD2      -16.5770   53.6450   27.2570 C.3    16  LEU16       0.0001
      9  N        -16.6300   55.4010   22.8430 N.am   17  LEU17      -0.1980
     10  CA       -17.9450   55.3640   22.2100 C.3    17  LEU17       0.1596
     11  C        -17.8990   55.0560   20.7220 C.2    17  LEU17       0.2287
     12  O        -18.9250   54.7210   20.1420 O.2    17  LEU17      -0.2864
     13  CB       -18.7440   56.6420   22.5100 C.3    17  LEU17       0.0297
     14  CG       -18.9180   56.9240   24.0350 C.3    17  LEU17       0.0022
     15  CD1      -19.7340   58.1760   24.2130 C.3    17  LEU17       0.0001
     16  CD2      -19.5740   55.7670   24.8180 C.3    17  LEU17       0.0001
     17  N        -15.8990   52.5120   19.6610 N.3    19  MET19      -0.1230
     18  CA       -15.3630   51.1430   19.6010 C.3    19  MET19       0.1702
     19  C        -16.4120   50.1220   19.2350 C.2    19  MET19       0.2592
     20  O        -17.6300   50.3770   19.3510 O.2    19  MET19      -0.2718
     21  CB       -14.6760   50.7200   20.9250 C.3    19  MET19       0.0401
     22  CG       -13.6020   51.6230   21.3510 C.3    19  MET19       0.0596
     23  SD       -12.0080   51.5290   20.5550 S.3    19  MET19      -0.1393
     24  CE       -11.2790   50.1110   21.3640 C.3    19  MET19       0.0692
     25  N        -15.9330   48.9500   18.8300 N.am   20  ASP20      -0.1960
     26  CA       -16.8010   47.8100   18.5630 C.3    20  ASP20       0.1840
     27  C        -16.8380   46.9300   19.8140 C.2    20  ASP20       0.2621
     28  O        -15.7790   46.6170   20.3740 O.2    20  ASP20      -0.2715
     29  CB       -16.2340   47.0080   17.3780 C.3    20  ASP20       0.1450
     30  CG       -17.2050   45.9550   16.8450 C.2    20  ASP20       0.3671
     31  OD1      -17.5690   44.9990   17.5550 O.co2  20  ASP20      -0.2456
     32  OD2      -17.6070   46.0890   15.6760 O.co2  20  ASP20      -0.2456
     33  N        -18.0500   46.5060   20.2050 N.am   21  ARG21      -0.1977
     34  CA       -18.2800   45.6010   21.3620 C.3    21  ARG21       0.1597
     35  C        -17.4790   44.3270   21.2390 C.2    21  ARG21       0.2287
     36  O        -17.0510   43.7660   22.2500 O.2    21  ARG21      -0.2864
     37  CB       -19.7620   45.1930   21.4680 C.3    21  ARG21       0.0334
     38  CG       -20.7400   46.3590   21.5860 C.3    21  ARG21       0.0492
     39  CD       -20.7620   46.8830   23.0150 C.3    21  ARG21       0.2205
     40  NE       -21.5890   48.0810   23.1190 N.pl3  21  ARG21      -0.0865
     41  CZ       -21.3040   49.3360   22.9050 C.cat  21  ARG21       0.5346
     42  NH1      -20.1300   49.8140   22.5460 N.pl3  21  ARG21       0.1354
     43  NH2      -22.3000   50.2270   23.0370 N.pl3  21  ARG21       0.1354
     44  N        -14.5430   43.7240   20.5420 N.3    23  GLY23      -0.1210
     45  CA       -13.1030   43.8210   20.8850 C.3    23  GLY23       0.1956
     46  C        -12.2490   44.8970   20.2680 C.2    23  GLY23       0.2611
     47  O        -12.6400   45.5750   19.3100 O.2    23  GLY23      -0.2717
     48  N        -11.0480   45.0320   20.8070 N.am   24  LEU24      -0.1979
     49  CA       -10.0380   45.9200   20.2780 C.3    24  LEU24       0.1596
     50  C         -9.7100   45.6570   18.8100 C.2    24  LEU24       0.2287
     51  O         -9.6700   46.5730   18.0140 O.2    24  LEU24      -0.2864
     52  CB        -8.7320   45.8400   21.1220 C.3    24  LEU24       0.0297
     53  CG        -8.9000   46.1960   22.6250 C.3    24  LEU24       0.0022
     54  CD1       -7.5950   46.0130   23.4910 C.3    24  LEU24       0.0001
     55  CD2       -9.5050   47.6080   22.8240 C.3    24  LEU24       0.0001
     56  N        -12.7150   40.0630   27.3000 N.3   185  VAL185     -0.1245
     57  CA       -13.2880   41.3900   27.1330 C.3   185  VAL185      0.1561
     58  C        -12.8840   42.3120   28.3250 C.2   185  VAL185      0.2260
     59  O        -12.3880   43.4450   28.1210 O.2   185  VAL185     -0.2867
     60  CB       -14.7930   41.2230   26.8420 C.3   185  VAL185      0.0252
     61  CG1      -15.6540   42.5580   27.1000 C.3   185  VAL185      0.0019
     62  CG2      -14.9250   40.5950   25.3830 C.3   185  VAL185      0.0019
     63  N         -9.5480   43.5920   27.9460 N.3   188  GLN188     -0.1231
     64  CA        -9.4000   44.5740   26.8480 C.3   188  GLN188      0.1698
     65  C         -9.8520   45.9340   27.3630 C.2   188  GLN188      0.2592
     66  O         -9.1730   46.9350   27.2170 O.2   188  GLN188     -0.2718
     67  CB       -10.1980   44.1000   25.6180 C.3   188  GLN188      0.0381
     68  CG        -9.4670   42.9350   24.8920 C.3   188  GLN188      0.0905
     69  CD       -10.3420   42.3110   23.8500 C.2   188  GLN188      0.2608
     70  OE1      -10.6440   42.9480   22.8580 O.2   188  GLN188     -0.2717
     71  NE2      -10.8140   41.0920   24.0880 N.am  188  GLN188     -0.0878
     72  N        -10.9760   45.9260   28.0500 N.am  189  LEU189     -0.1980
     73  CA       -11.4900   47.1150   28.7290 C.3   189  LEU189      0.1596
     74  C        -10.4540   47.6580   29.7150 C.2   189  LEU189      0.2287
     75  O        -10.2520   48.8840   29.8090 O.2   189  LEU189     -0.2864
     76  CB       -12.7370   46.7280   29.5030 C.3   189  LEU189      0.0297
     77  CG       -13.5830   47.9020   30.0190 C.3   189  LEU189      0.0022
     78  CD1      -14.0660   48.7130   28.7720 C.3   189  LEU189      0.0001
     79  CD2      -14.7480   47.4400   30.9100 C.3   189  LEU189      0.0001
     80  N         -8.0240   49.9780   28.3810 N.3   192  LEU192     -0.1245
     81  CA        -8.4570   51.3680   28.2560 C.3   192  LEU192      0.1561
     82  C         -8.4520   52.1120   29.6260 C.2   192  LEU192      0.2260
     83  O         -7.9410   53.2380   29.7430 O.2   192  LEU192     -0.2867
     84  CB        -9.8740   51.4110   27.6580 C.3   192  LEU192      0.0270
     85  CG        -9.9900   51.2320   26.1360 C.3   192  LEU192      0.0019
     86  CD1       -9.3180   49.9690   25.6030 C.3   192  LEU192      0.0001
     87  CD2      -11.4410   51.1700   25.8250 C.3   192  LEU192      0.0001
@<TRIPOS>BOND
     1    32    30   ar
     2    30    29    1
     3    30    31   ar
     4    29    26    1
     5    51    50    2
     6    26    25    1
     7    26    27    1
     8    50    49    1
     9    25    19   am
    10    19    20    2
    11    19    18    1
    12    47    46    2
    13    18    17    1
    14    18    21    1
    15    27    33   am
    16    27    28    2
    17    12    11    2
    18    33    34    1
    19    46    48   am
    20    46    45    1
    21    49    48    1
    22    49    52    1
    23    44    45    1
    24    23    22    1
    25    23    24    1
    26    11    10    1
    27    21    22    1
    28    52    53    1
    29    35    34    1
    30    35    36    2
    31    34    37    1
    32    37    38    1
    33    38    39    1
    34    10    13    1
    35    10     9    1
    36    13    14    1
    37    42    41    1
    38     4     3    2
    39    53    55    1
    40    53    54    1
    41     9     3   am
    42    70    69    2
    43    41    43    1
    44    41    40    2
    45    39    40    1
    46     3     2    1
    47     1     2    1
    48     2     5    1
    49    69    71   am
    50    69    68    1
    51    14    15    1
    52    14    16    1
    53    68    67    1
    54     5     6    1
    55    62    60    1
    56    86    85    1
    57    67    64    1
    58     7     6    1
    59    87    85    1
    60     6     8    1
    61    85    84    1
    62    60    61    1
    63    60    57    1
    64    64    65    1
    65    64    63    1
    66    57    56    1
    67    57    58    1
    68    66    65    2
    69    65    72   am
    70    84    81    1
    71    72    73    1
    72    59    58    2
    73    81    80    1
    74    81    82    1
    75    73    76    1
    76    73    74    1
    77    78    77    1
    78    76    77    1
    79    82    83    2
    80    74    75    2
    81    77    79    1
