@<TRIPOS>MOLECULE
tmp/4rqlA01.pdb
 92 90 0 0 0
SMALL
GASTEIGER

@<TRIPOS>ATOM
      1  N        -11.8020   61.8630   29.0510 N.3    12  LEU12      -0.1231
      2  CA       -12.0500   60.7190   29.9360 C.3    12  LEU12       0.1693
      3  C        -12.3060   59.4020   29.2190 C.2    12  LEU12       0.2591
      4  O        -11.7840   58.4070   29.5620 O.2    12  LEU12      -0.2718
      5  CB       -13.1530   60.9790   30.9820 C.3    12  LEU12       0.0284
      6  CG       -13.4770   62.3600   31.4660 C.3    12  LEU12       0.0019
      7  CD1      -14.9620   62.7240   31.3710 C.3    12  LEU12       0.0001
      8  CD2      -12.9710   62.4900   32.8680 C.3    12  LEU12       0.0001
      9  N        -13.1500   59.4150   28.2310 N.am   13  LEU13      -0.1980
     10  CA       -13.5080   58.2050   27.5830 C.3    13  LEU13       0.1596
     11  C        -12.6870   57.8790   26.3380 C.2    13  LEU13       0.2287
     12  O        -12.8050   56.8230   25.8400 O.2    13  LEU13      -0.2864
     13  CB       -14.9900   58.2210   27.2800 C.3    13  LEU13       0.0297
     14  CG       -15.9730   58.4890   28.3990 C.3    13  LEU13       0.0022
     15  CD1      -17.2830   58.6190   27.7860 C.3    13  LEU13       0.0001
     16  CD2      -16.0200   57.4570   29.3960 C.3    13  LEU13       0.0001
     17  N        -13.8450   55.5540   23.4310 N.3    16  LEU16      -0.1245
     18  CA       -14.6890   54.3990   23.8350 C.3    16  LEU16       0.1561
     19  C        -15.9460   54.2670   23.0320 C.2    16  LEU16       0.2260
     20  O        -16.3280   53.1390   22.6120 O.2    16  LEU16      -0.2867
     21  CB       -15.0380   54.4140   25.3300 C.3    16  LEU16       0.0270
     22  CG       -16.0340   53.3540   25.8340 C.3    16  LEU16       0.0019
     23  CD1      -15.5100   51.9180   25.7310 C.3    16  LEU16       0.0001
     24  CD2      -16.5770   53.6450   27.2570 C.3    16  LEU16       0.0001
     25  N         -7.2800   57.3880   28.4840 N.3    45  PRO45      -0.2116
     26  CA        -6.4310   58.5900   28.4710 C.3    45  PRO45       0.1372
     27  C         -5.1530   58.5140   27.6110 C.2    45  PRO45       0.2244
     28  O         -4.3790   59.4590   27.6300 O.2    45  PRO45      -0.2868
     29  CB        -6.0240   58.7360   29.9450 C.3    45  PRO45       0.0268
     30  CG        -6.0030   57.2540   30.4790 C.3    45  PRO45       0.0207
     31  CD        -7.1050   56.5660   29.7120 C.3    45  PRO45       0.0892
     32  N        -10.9760   45.9260   28.0500 N.3   189  LEU189     -0.1245
     33  CA       -11.4900   47.1150   28.7290 C.3   189  LEU189      0.1561
     34  C        -10.4540   47.6580   29.7150 C.2   189  LEU189      0.2260
     35  O        -10.2520   48.8840   29.8090 O.2   189  LEU189     -0.2867
     36  CB       -12.7370   46.7280   29.5030 C.3   189  LEU189      0.0270
     37  CG       -13.5830   47.9020   30.0190 C.3   189  LEU189      0.0019
     38  CD1      -14.0660   48.7130   28.7720 C.3   189  LEU189      0.0001
     39  CD2      -14.7480   47.4400   30.9100 C.3   189  LEU189      0.0001
     40  N         -9.0100   51.4720   30.6540 N.3   193  PHE193     -0.1241
     41  CA        -9.3220   52.2110   31.8890 C.3   193  PHE193      0.1605
     42  C         -8.7010   51.6350   33.1500 C.2   193  PHE193      0.2264
     43  O         -9.3210   51.6700   34.2500 O.2   193  PHE193     -0.2867
     44  CB       -10.8450   52.2710   32.0390 C.3   193  PHE193      0.0534
     45  CG       -11.5310   52.9790   30.9000 C.ar  193  PHE193     -0.0203
     46  CD1      -11.3080   54.3390   30.6660 C.ar  193  PHE193     -0.0042
     47  CD2      -12.3930   52.2840   30.0750 C.ar  193  PHE193     -0.0042
     48  CE1      -11.9560   54.9910   29.6060 C.ar  193  PHE193     -0.0003
     49  CE2      -13.0580   52.9330   29.0170 C.ar  193  PHE193     -0.0003
     50  CZ       -12.8230   54.2570   28.7740 C.ar  193  PHE193     -0.0000
     51  N         -6.5560   52.6800   35.1240 N.3   195  GLY195     -0.1210
     52  CA        -6.4710   53.6960   36.1920 C.3   195  GLY195      0.1956
     53  C         -7.7430   53.7660   37.0500 C.2   195  GLY195      0.2612
     54  O         -7.6760   53.9520   38.2760 O.2   195  GLY195     -0.2717
     55  N         -8.8900   53.5410   36.4440 N.am  196  PHE196     -0.1962
     56  CA       -10.1350   53.5410   37.1780 C.3   196  PHE196      0.1771
     57  C        -10.5340   52.1490   37.6850 C.2   196  PHE196      0.2619
     58  O        -10.9560   52.0030   38.8370 O.2   196  PHE196     -0.2715
     59  CB       -11.2190   54.1510   36.3150 C.3   196  PHE196      0.0574
     60  CG       -12.5930   54.1030   36.9150 C.ar  196  PHE196     -0.0200
     61  CD1      -13.0640   55.1610   37.7190 C.ar  196  PHE196     -0.0042
     62  CD2      -13.4700   53.0720   36.5980 C.ar  196  PHE196     -0.0042
     63  CE1      -14.4060   55.1440   38.2480 C.ar  196  PHE196     -0.0003
     64  CE2      -14.8000   53.0300   37.1380 C.ar  196  PHE196     -0.0003
     65  CZ       -15.2580   54.0690   37.9670 C.ar  196  PHE196     -0.0000
     66  N        -10.3800   51.1180   36.8610 N.am  197  LEU197     -0.1963
     67  CA       -10.9010   49.8180   37.2070 C.3   197  LEU197      0.1728
     68  C        -10.0220   49.1260   38.2570 C.2   197  LEU197      0.2616
     69  O        -10.4630   48.1830   38.9100 O.2   197  LEU197     -0.2715
     70  CB       -11.0320   48.9260   35.9490 C.3   197  LEU197      0.0311
     71  CG       -12.1480   49.3460   34.9680 C.3   197  LEU197      0.0022
     72  CD1      -12.0070   48.5280   33.6810 C.3   197  LEU197      0.0001
     73  CD2      -13.5970   49.1720   35.5550 C.3   197  LEU197      0.0001
     74  N         -8.8010   49.5780   38.4060 N.am  198  LYS198     -0.1963
     75  CA        -7.9530   48.8870   39.3360 C.3   198  LYS198      0.1728
     76  C         -8.4060   49.0080   40.8350 C.2   198  LYS198      0.2616
     77  O         -7.9460   48.2340   41.6840 O.2   198  LYS198     -0.2715
     78  CB        -6.5080   49.3540   39.1870 C.3   198  LYS198      0.0311
     79  CG        -6.2690   50.6520   39.9540 C.3   198  LYS198      0.0038
     80  CD        -4.9320   51.2460   39.6480 C.3   198  LYS198      0.0206
     81  CE        -4.9240   52.6630   40.1490 C.3   198  LYS198      0.1093
     82  NZ        -3.8770   53.4180   39.4020 N.3   198  LYS198     -0.1314
     83  N         -9.2590   49.9820   41.1570 N.am  199  HIS199     -0.1973
     84  CA        -9.7470   50.1670   42.5440 C.3   199  HIS199      0.1656
     85  C        -10.8560   49.1770   42.8600 C.2   199  HIS199      0.2291
     86  O        -11.3110   49.1080   43.9840 O.2   199  HIS199     -0.2864
     87  CB       -10.2730   51.5930   42.7740 C.3   199  HIS199      0.0771
     88  CG        -9.2840   52.6530   42.4160 C.ar  199  HIS199      0.0820
     89  ND1       -8.1200   52.8520   43.1340 N.ar  199  HIS199     -0.2267
     90  CD2       -9.2530   53.5420   41.3870 C.ar  199  HIS199      0.1154
     91  CE1       -7.4170   53.8240   42.5660 C.ar  199  HIS199      0.1986
     92  NE2       -8.0900   54.2710   41.5130 N.ar  199  HIS199     -0.2212
@<TRIPOS>BOND
     1    20    19    2
     2    19    18    1
     3    17    18    1
     4    18    21    1
     5    21    22    1
     6    23    22    1
     7    22    24    1
     8    12    11    2
     9    11    10    1
    10    13    10    1
    11    13    14    1
    12    10     9    1
    13    27    28    2
    14    27    26    1
    15    15    14    1
    16    32    33    1
    17     9     3   am
    18    14    16    1
    19    26    25    1
    20    26    29    1
    21    25    31    1
    22    33    36    1
    23    33    34    1
    24    38    37    1
    25    50    49   ar
    26    50    48   ar
    27    49    47   ar
    28     1     2    1
    29     3     4    2
    30     3     2    1
    31    36    37    1
    32    48    46   ar
    33    31    30    1
    34    34    35    2
    35     2     5    1
    36    29    30    1
    37    37    39    1
    38    47    45   ar
    39    40    41    1
    40    46    45   ar
    41    45    44    1
    42     5     6    1
    43     7     6    1
    44     6     8    1
    45    41    44    1
    46    41    42    1
    47    42    43    2
    48    72    71    1
    49    71    73    1
    50    71    70    1
    51    51    52    1
    52    70    67    1
    53    52    53    1
    54    59    60    1
    55    59    56    1
    56    55    53   am
    57    55    56    1
    58    62    60   ar
    59    62    64   ar
    60    66    67    1
    61    66    57   am
    62    60    61   ar
    63    53    54    2
    64    64    65   ar
    65    56    57    1
    66    67    68    1
    67    57    58    2
    68    61    63   ar
    69    65    63   ar
    70    68    74   am
    71    68    69    2
    72    74    75    1
    73    78    75    1
    74    78    79    1
    75    75    76    1
    76    82    81    1
    77    80    79    1
    78    80    81    1
    79    76    83   am
    80    76    77    2
    81    83    84    1
    82    90    92   ar
    83    90    88   ar
    84    92    91   ar
    85    88    87    1
    86    88    89   ar
    87    84    87    1
    88    84    85    1
    89    91    89   ar
    90    85    86    2
