@<TRIPOS>MOLECULE
tmp/4rqlA04.pdb
 118 111 0 0 0
SMALL
GASTEIGER

@<TRIPOS>ATOM
      1  N          1.2890   45.9180   28.8030 N.3    74  ILE74      -0.1245
      2  CA        -0.0190   45.2640   28.8260 C.3    74  ILE74       0.1561
      3  C         -0.6010   45.5420   30.2100 C.2    74  ILE74       0.2260
      4  O         -0.0480   45.0550   31.2120 O.2    74  ILE74      -0.2867
      5  CB         0.0490   43.7980   28.4800 C.3    74  ILE74       0.0252
      6  CG1        0.5860   43.6860   27.0700 C.3    74  ILE74       0.0019
      7  CG2       -1.3440   43.1370   28.6190 C.3    74  ILE74       0.0019
      8  CD1        0.8490   42.3100   26.6410 C.3    74  ILE74       0.0001
      9  N         -1.0090   42.9780   33.1340 N.3    77  VAL77      -0.1245
     10  CA         0.0870   42.2690   33.7870 C.3    77  VAL77       0.1561
     11  C          1.1680   43.2510   34.1760 C.2    77  VAL77       0.2260
     12  O          2.0900   42.8850   34.8710 O.2    77  VAL77      -0.2867
     13  CB         0.7260   41.1220   32.9400 C.3    77  VAL77       0.0252
     14  CG1       -0.2870   40.0560   32.5990 C.3    77  VAL77       0.0019
     15  CG2        1.4570   41.6560   31.7150 C.3    77  VAL77       0.0019
     16  N          4.6280   42.6790   36.2990 N.3    81  PHE81      -0.1241
     17  CA         5.9700   42.6700   35.7560 C.3    81  PHE81       0.1605
     18  C          6.7010   43.9660   35.9970 C.2    81  PHE81       0.2264
     19  O          7.9060   43.9140   36.2340 O.2    81  PHE81      -0.2867
     20  CB         5.9790   42.3270   34.2890 C.3    81  PHE81       0.0534
     21  CG         5.6970   40.8730   34.0220 C.ar   81  PHE81      -0.0203
     22  CD1        6.7400   39.9250   34.0630 C.ar   81  PHE81      -0.0042
     23  CD2        4.4030   40.4540   33.6550 C.ar   81  PHE81      -0.0042
     24  CE1        6.4810   38.6070   33.8330 C.ar   81  PHE81      -0.0003
     25  CE2        4.1680   39.1120   33.3360 C.ar   81  PHE81      -0.0003
     26  CZ         5.2280   38.1920   33.4450 C.ar   81  PHE81      -0.0000
     27  N         10.8140   40.4270   28.4640 N.3    87  ILE87      -0.1231
     28  CA         9.6620   40.8210   27.6380 C.3    87  ILE87       0.1692
     29  C          9.2640   42.2980   27.8760 C.2    87  ILE87       0.2592
     30  O          9.0190   43.0900   26.9140 O.2    87  ILE87      -0.2718
     31  CB         8.4340   39.9320   27.9790 C.3    87  ILE87       0.0266
     32  CG1        8.6630   38.4670   27.5710 C.3    87  ILE87       0.0019
     33  CG2        7.2100   40.5030   27.2620 C.3    87  ILE87       0.0020
     34  CD1        7.4410   37.5300   28.0540 C.3    87  ILE87       0.0001
     35  N          9.2400   42.6750   29.1620 N.am   88  PHE88      -0.1976
     36  CA         8.7320   43.9820   29.5530 C.3    88  PHE88       0.1639
     37  C          9.7610   45.0420   29.8320 C.2    88  PHE88       0.2290
     38  O          9.4120   46.2060   30.1390 O.2    88  PHE88      -0.2864
     39  CB         7.7040   43.8380   30.6740 C.3    88  PHE88       0.0560
     40  CG         6.4540   43.1380   30.1900 C.ar   88  PHE88      -0.0200
     41  CD1        5.6630   43.7370   29.1720 C.ar   88  PHE88      -0.0042
     42  CD2        6.1300   41.8400   30.6270 C.ar   88  PHE88      -0.0042
     43  CE1        4.5300   43.0880   28.6660 C.ar   88  PHE88      -0.0003
     44  CE2        4.9760   41.1660   30.1330 C.ar   88  PHE88      -0.0003
     45  CZ         4.1850   41.7920   29.1540 C.ar   88  PHE88      -0.0000
     46  N         -3.7110   33.6520   30.6840 N.3   179  PHE179     -0.1241
     47  CA        -3.6370   34.0670   29.2690 C.3   179  PHE179      0.1605
     48  C         -5.0830   34.2670   28.8590 C.2   179  PHE179      0.2264
     49  O         -5.4190   35.2180   28.2180 O.2   179  PHE179     -0.2867
     50  CB        -2.8790   32.9950   28.4510 C.3   179  PHE179      0.0534
     51  CG        -2.5270   33.3850   27.0190 C.ar  179  PHE179     -0.0203
     52  CD1       -2.6760   32.4360   25.9690 C.ar  179  PHE179     -0.0042
     53  CD2       -2.0130   34.6520   26.7060 C.ar  179  PHE179     -0.0042
     54  CE1       -2.3190   32.7630   24.6210 C.ar  179  PHE179     -0.0003
     55  CE2       -1.6540   35.0010   25.3650 C.ar  179  PHE179     -0.0003
     56  CZ        -1.8050   34.0420   24.3160 C.ar  179  PHE179     -0.0000
     57  N         -6.2670   37.5670   30.5730 N.3   182  ILE182     -0.1245
     58  CA        -5.6570   38.7310   29.9290 C.3   182  ILE182      0.1561
     59  C         -6.4310   38.9910   28.5830 C.2   182  ILE182      0.2260
     60  O         -6.7060   40.1450   28.2210 O.2   182  ILE182     -0.2867
     61  CB        -4.1820   38.4270   29.6820 C.3   182  ILE182      0.0252
     62  CG1       -3.3720   38.4600   30.9930 C.3   182  ILE182      0.0019
     63  CG2       -3.5410   39.2940   28.5900 C.3   182  ILE182      0.0019
     64  CD1       -2.1080   37.5940   30.8400 C.3   182  ILE182      0.0001
     65  N          6.2690   31.6550   30.7310 N.3   270  PHE270     -0.1227
     66  CA         4.9750   32.0500   30.1920 C.3   270  PHE270      0.1736
     67  C          5.0370   31.9680   28.6770 C.2   270  PHE270      0.2595
     68  O          4.3940   31.1160   28.0640 O.2   270  PHE270     -0.2718
     69  CB         4.6200   33.4710   30.6320 C.3   270  PHE270      0.0547
     70  CG         3.1510   33.6860   30.8560 C.ar  270  PHE270     -0.0202
     71  CD1        2.2370   32.6880   30.5620 C.ar  270  PHE270     -0.0042
     72  CD2        2.6820   34.8870   31.3620 C.ar  270  PHE270     -0.0042
     73  CE1        0.8850   32.8830   30.7670 C.ar  270  PHE270     -0.0003
     74  CE2        1.3310   35.0890   31.5690 C.ar  270  PHE270     -0.0003
     75  CZ         0.4310   34.0850   31.2720 C.ar  270  PHE270     -0.0000
     76  N          5.8250   32.8530   28.0760 N.am  271  ALA271     -0.1980
     77  CA         6.0260   32.8260   26.6200 C.3   271  ALA271      0.1597
     78  C          6.3330   31.4100   26.0430 C.2   271  ALA271      0.2287
     79  O          5.7550   31.0140   25.0780 O.2   271  ALA271     -0.2864
     80  CB         7.0660   33.8270   26.2330 C.3   271  ALA271      0.0319
     81  N          2.6360   29.0850   26.6470 N.3   274  GLU274     -0.1231
     82  CA         1.2980   29.4640   26.1820 C.3   274  GLU274      0.1699
     83  C          1.2000   29.7470   24.6590 C.2   274  GLU274      0.2592
     84  O          0.1010   29.7040   24.0470 O.2   274  GLU274     -0.2718
     85  CB         0.7960   30.6660   26.9770 C.3   274  GLU274      0.0402
     86  CG         0.4770   30.3150   28.4580 C.3   274  GLU274      0.1161
     87  CD        -0.4950   29.1870   28.4830 C.2   274  GLU274      0.3649
     88  OE1       -1.4770   29.3470   27.7510 O.co2 274  GLU274     -0.2457
     89  OE2       -0.2630   28.1300   29.1180 O.co2 274  GLU274     -0.2457
     90  N          2.3230   30.1050   24.0500 N.am  275  THR275     -0.1953
     91  CA         2.3180   30.4630   22.6350 C.3   275  THR275      0.1897
     92  C          2.1870   29.2270   21.7580 C.2   275  THR275      0.2313
     93  O          1.2030   29.0510   21.0390 O.2   275  THR275     -0.2863
     94  CB         3.5960   31.2270   22.2410 C.3   275  THR275      0.1794
     95  OG1        4.7480   30.4750   22.6430 O.3   275  THR275     -0.2208
     96  CG2        3.6290   32.5920   22.9100 C.3   275  THR275      0.0378
     97  N         -1.0570   36.3710   18.3400 N.3   336  LEU336     -0.1245
     98  CA        -1.0590   37.7050   18.9860 C.3   336  LEU336      0.1561
     99  C         -1.4820   38.7200   17.9060 C.2   336  LEU336      0.2260
    100  O         -0.6360   39.2350   17.2120 O.2   336  LEU336     -0.2867
    101  CB         0.3810   38.0040   19.4970 C.3   336  LEU336      0.0270
    102  CG         0.8490   37.0010   20.5950 C.3   336  LEU336      0.0019
    103  CD1        2.3280   37.2640   20.9980 C.3   336  LEU336      0.0001
    104  CD2        0.0030   37.1590   21.8630 C.3   336  LEU336      0.0001
    105  N          2.7770   42.6250   20.6060 N.3   340  VAL340     -0.1245
    106  CA         2.9260   43.0380   21.9670 C.3   340  VAL340      0.1561
    107  C          3.2160   44.5600   21.8720 C.2   340  VAL340      0.2260
    108  O          3.9720   44.9670   20.9860 O.2   340  VAL340     -0.2867
    109  CB         4.1350   42.2430   22.6170 C.3   340  VAL340      0.0252
    110  CG1        4.4910   42.8190   24.0400 C.3   340  VAL340      0.0019
    111  CG2        3.8150   40.7360   22.6430 C.3   340  VAL340      0.0019
    112  N         -5.3890   40.3020   23.5370 N.3   450  VAL450     -0.1245
    113  CA        -3.9340   40.1990   23.3300 C.3   450  VAL450      0.1561
    114  C         -3.6130   38.8560   22.6490 C.2   450  VAL450      0.2260
    115  O         -2.7570   38.7940   21.7480 O.2   450  VAL450     -0.2867
    116  CB        -3.0820   40.2770   24.6730 C.3   450  VAL450      0.0252
    117  CG1       -1.6060   40.1000   24.3260 C.3   450  VAL450      0.0019
    118  CG2       -3.2230   41.6430   25.3230 C.3   450  VAL450      0.0019
@<TRIPOS>BOND
     1   100    99    2
     2    99    98    1
     3    97    98    1
     4    98   101    1
     5   101   102    1
     6   102   103    1
     7   102   104    1
     8   105   106    1
     9   108   107    2
    10    93    92    2
    11   115   114    2
    12    92    91    1
    13   107   106    1
    14   106   109    1
    15    94    91    1
    16    94    95    1
    17    94    96    1
    18   109   111    1
    19   109   110    1
    20    91    90    1
    21   114   113    1
    22   113   112    1
    23   113   116    1
    24    84    83    2
    25    90    83   am
    26    56    54   ar
    27    56    55   ar
    28   117   116    1
    29    54    52   ar
    30    83    82    1
    31   116   118    1
    32    79    78    2
    33    55    53   ar
    34    52    51   ar
    35    78    77    1
    36    82    81    1
    37    82    85    1
    38    80    77    1
    39    77    76    1
    40     8     6    1
    41    53    51   ar
    42    30    29    2
    43    85    86    1
    44    51    50    1
    45     6     5    1
    46    33    31    1
    47    32    31    1
    48    32    34    1
    49    28    29    1
    50    28    31    1
    51    28    27    1
    52    88    87   ar
    53    29    35   am
    54    68    67    2
    55    76    67   am
    56    49    48    2
    57    60    59    2
    58    50    47    1
    59    86    87    1
    60     5     7    1
    61     5     2    1
    62    87    89   ar
    63    59    58    1
    64    63    61    1
    65    43    45   ar
    66    43    41   ar
    67    67    66    1
    68     1     2    1
    69     2     3    1
    70    48    47    1
    71    45    44   ar
    72    35    36    1
    73    41    40   ar
    74    47    46    1
    75    36    37    1
    76    36    39    1
    77    61    58    1
    78    61    62    1
    79    37    38    2
    80    58    57    1
    81    44    42   ar
    82    40    42   ar
    83    40    39    1
    84    66    69    1
    85    66    65    1
    86     3     4    2
    87    71    73   ar
    88    71    70   ar
    89    69    70    1
    90    73    75   ar
    91    64    62    1
    92    70    72   ar
    93    75    74   ar
    94    72    74   ar
    95    15    13    1
    96    14    13    1
    97    13    10    1
    98     9    10    1
    99    25    26   ar
   100    25    23   ar
   101    26    24   ar
   102    23    21   ar
   103    10    11    1
   104    24    22   ar
   105    21    22   ar
   106    21    20    1
   107    11    12    2
   108    20    17    1
   109    17    18    1
   110    17    16    1
   111    18    19    2
