@<TRIPOS>MOLECULE
tmp/4rqsD03.pdb
 86 81 0 0 0
SMALL
GASTEIGER

@<TRIPOS>ATOM
      1  N        133.0440  -28.2980   26.4550 N.3   118  GLU118     -0.1231
      2  CA       131.9040  -27.4460   26.7820 C.3   118  GLU118      0.1699
      3  C        131.6960  -27.1500   28.2710 C.2   118  GLU118      0.2592
      4  O        131.7050  -25.9900   28.6810 O.2   118  GLU118     -0.2718
      5  CB       130.6200  -28.0380   26.1920 C.3   118  GLU118      0.0402
      6  CG       130.6580  -28.2240   24.6850 C.3   118  GLU118      0.1161
      7  CD       129.3750  -28.8190   24.1390 C.2   118  GLU118      0.3649
      8  OE1      129.3120  -29.0780   22.9190 O.co2 118  GLU118     -0.2457
      9  OE2      128.4300  -29.0260   24.9290 O.co2 118  GLU118     -0.2457
     10  N        131.5100  -28.1920   29.0770 N.am  119  GLU119     -0.1966
     11  CA       131.0830  -27.9910   30.4620 C.3   119  GLU119      0.1733
     12  C        132.1960  -27.8660   31.5050 C.2   119  GLU119      0.2616
     13  O        131.9460  -27.3880   32.6130 O.2   119  GLU119     -0.2715
     14  CB       130.1120  -29.1010   30.8800 C.3   119  GLU119      0.0429
     15  CG       130.7090  -30.4970   30.8320 C.3   119  GLU119      0.1163
     16  CD       129.7470  -31.5590   31.3280 C.2   119  GLU119      0.3649
     17  OE1      128.6080  -31.2040   31.7000 O.co2 119  GLU119     -0.2457
     18  OE2      130.1290  -32.7470   31.3480 O.co2 119  GLU119     -0.2457
     19  N        133.4160  -28.2550   31.1400 N.am  120  GLU120     -0.1963
     20  CA       134.5400  -28.2870   32.0820 C.3   120  GLU120      0.1733
     21  C        135.8250  -28.7770   31.4250 C.2   120  GLU120      0.2616
     22  O        135.8270  -29.1760   30.2620 O.2   120  GLU120     -0.2715
     23  CB       134.2240  -29.1750   33.2920 C.3   120  GLU120      0.0429
     24  CG       133.7950  -30.5900   32.9380 C.3   120  GLU120      0.1163
     25  CD       133.4280  -31.4070   34.1610 C.2   120  GLU120      0.3649
     26  OE1      134.2050  -31.3990   35.1390 O.co2 120  GLU120     -0.2457
     27  OE2      132.3590  -32.0530   34.1480 O.co2 120  GLU120     -0.2457
     28  N        136.9170  -28.7440   32.1830 N.am  121  ILE121     -0.1977
     29  CA       138.2010  -29.2460   31.7070 C.3   121  ILE121      0.1596
     30  C        138.2610  -30.7670   31.8280 C.2   121  ILE121      0.2287
     31  O        138.0430  -31.3200   32.9060 O.2   121  ILE121     -0.2864
     32  CB       139.3740  -28.6250   32.4870 C.3   121  ILE121      0.0276
     33  CG1      139.3530  -27.1010   32.3560 C.3   121  ILE121      0.0022
     34  CG2      140.7000  -29.1870   31.9960 C.3   121  ILE121      0.0022
     35  CD1      140.4980  -26.4100   33.0610 C.3   121  ILE121      0.0001
     36  N        138.0780  -25.7810   29.1910 N.3   140  ASN140     -0.1225
     37  CA       136.7590  -25.2130   28.9270 C.3   140  ASN140      0.1785
     38  C        136.8290  -23.7080   28.6830 C.2   140  ASN140      0.2597
     39  O        135.8140  -23.0610   28.4270 O.2   140  ASN140     -0.2718
     40  CB       135.7660  -25.5470   30.0490 C.3   140  ASN140      0.1169
     41  CG       135.9520  -24.6810   31.2860 C.2   140  ASN140      0.2627
     42  OD1      137.0660  -24.2750   31.6180 O.2   140  ASN140     -0.2716
     43  ND2      134.8470  -24.4010   31.9780 N.am  140  ASN140     -0.0877
     44  N        138.0380  -23.1620   28.7670 N.am  141  GLU141     -0.1979
     45  CA       138.2670  -21.7460   28.5100 C.3   141  GLU141      0.1602
     46  C        139.5670  -21.5520   27.7360 C.2   141  GLU141      0.2287
     47  O        140.6040  -22.1090   28.0980 O.2   141  GLU141     -0.2864
     48  CB       138.3110  -20.9640   29.8240 C.3   141  GLU141      0.0415
     49  CG       138.3430  -19.4530   29.6510 C.3   141  GLU141      0.1163
     50  CD       138.3960  -18.7150   30.9750 C.2   141  GLU141      0.3649
     51  OE1      138.8930  -19.2960   31.9620 O.co2 141  GLU141     -0.2457
     52  OE2      137.9330  -17.5560   31.0290 O.co2 141  GLU141     -0.2457
     53  N        145.2640  -19.5860   36.8540 N.3   162  ASN162     -0.1240
     54  CA       143.9600  -20.1670   37.1430 C.3   162  ASN162      0.1653
     55  C        143.7400  -21.4470   36.3420 C.2   162  ASN162      0.2266
     56  O        143.1730  -22.4200   36.8460 O.2   162  ASN162     -0.2867
     57  CB       142.8480  -19.1580   36.8490 C.3   162  ASN162      0.1155
     58  CG       141.4980  -19.6090   37.3710 C.2   162  ASN162      0.2627
     59  OD1      140.7650  -20.3290   36.6920 O.2   162  ASN162     -0.2716
     60  ND2      141.1600  -19.1840   38.5830 N.am  162  ASN162     -0.0877
     61  N        143.0300  -25.1550   37.8520 N.3   166  GLN166     -0.1245
     62  CA       141.8860  -26.0100   37.5370 C.3   166  GLN166      0.1566
     63  C        142.3380  -27.3680   36.9960 C.2   166  GLN166      0.2260
     64  O        141.7700  -28.4080   37.3460 O.2   166  GLN166     -0.2867
     65  CB       140.9460  -25.3240   36.5410 C.3   166  GLN166      0.0367
     66  CG       140.3930  -23.9900   37.0130 C.3   166  GLN166      0.0905
     67  CD       139.4850  -24.1170   38.2200 C.2   166  GLN166      0.2608
     68  OE1      139.4350  -23.2240   39.0610 O.2   166  GLN166     -0.2717
     69  NE2      138.7490  -25.2220   38.3040 N.am  166  GLN166     -0.0878
     70  N        143.3500  -29.3360   39.7800 N.3   169  ILE169     -0.1231
     71  CA       142.1580  -29.8330   40.4610 C.3   169  ILE169      0.1692
     72  C        141.6420  -31.1090   39.8000 C.2   169  ILE169      0.2591
     73  O        141.3310  -32.0870   40.4810 O.2   169  ILE169     -0.2718
     74  CB       141.0360  -28.7730   40.4960 C.3   169  ILE169      0.0266
     75  CG1      141.4430  -27.5990   41.3880 C.3   169  ILE169      0.0019
     76  CG2      139.7360  -29.3830   40.9980 C.3   169  ILE169      0.0020
     77  CD1      140.4120  -26.4940   41.4520 C.3   169  ILE169      0.0001
     78  N        141.5610  -31.0950   38.4720 N.am  170  LYS170     -0.1980
     79  CA       141.1320  -32.2740   37.7250 C.3   170  LYS170      0.1596
     80  C        142.0900  -33.4460   37.9390 C.2   170  LYS170      0.2287
     81  O        141.6660  -34.6010   38.0350 O.2   170  LYS170     -0.2864
     82  CB       141.0080  -31.9520   36.2340 C.3   170  LYS170      0.0298
     83  CG       139.9040  -30.9590   35.9100 C.3   170  LYS170      0.0038
     84  CD       138.5460  -31.4870   36.3470 C.3   170  LYS170      0.0206
     85  CE       137.4410  -30.4860   36.0480 C.3   170  LYS170      0.1093
     86  NZ       137.6550  -29.1930   36.7550 N.3   170  LYS170     -0.1314
@<TRIPOS>BOND
     1     8     7   ar
     2     7     6    1
     3     7     9   ar
     4     6     5    1
     5     5     2    1
     6     1     2    1
     7     2     3    1
     8    46    47    2
     9    46    45    1
    10     3     4    2
    11     3    10   am
    12    39    38    2
    13    45    44    1
    14    45    48    1
    15    38    44   am
    16    38    37    1
    17    37    36    1
    18    37    40    1
    19    10    11    1
    20    49    48    1
    21    49    50    1
    22    40    41    1
    23    22    21    2
    24    11    14    1
    25    11    12    1
    26    15    14    1
    27    15    16    1
    28    50    52   ar
    29    50    51   ar
    30    19    12   am
    31    19    20    1
    32    41    42    2
    33    41    43   am
    34    16    18   ar
    35    16    17   ar
    36    21    20    1
    37    21    28   am
    38    12    13    2
    39    29    30    1
    40    29    28    1
    41    29    32    1
    42    30    31    2
    43    34    32    1
    44    20    23    1
    45    33    32    1
    46    33    35    1
    47    24    23    1
    48    24    25    1
    49    27    25   ar
    50    25    26   ar
    51    83    82    1
    52    83    84    1
    53    85    84    1
    54    85    86    1
    55    82    79    1
    56    55    56    2
    57    55    54    1
    58    65    66    1
    59    65    62    1
    60    59    58    2
    61    57    54    1
    62    57    58    1
    63    53    54    1
    64    63    64    2
    65    63    62    1
    66    66    67    1
    67    58    60   am
    68    62    61    1
    69    79    80    1
    70    79    78    1
    71    80    81    2
    72    67    69   am
    73    67    68    2
    74    78    72   am
    75    70    71    1
    76    72    71    1
    77    72    73    2
    78    71    74    1
    79    74    76    1
    80    74    75    1
    81    75    77    1
