@<TRIPOS>MOLECULE
tmp/4rqsD06.pdb
 80 77 0 0 0
SMALL
GASTEIGER

@<TRIPOS>ATOM
      1  N        130.4320  -48.6200   21.4910 N.3     7  ASN7       -0.1240
      2  CA       131.7550  -48.4970   22.0940 C.3     7  ASN7        0.1653
      3  C        132.7070  -47.6530   21.2510 C.2     7  ASN7        0.2266
      4  O        132.9120  -47.9290   20.0690 O.2     7  ASN7       -0.2867
      5  CB       132.3700  -49.8810   22.3180 C.3     7  ASN7        0.1155
      6  CG       131.5270  -50.7600   23.2200 C.2     7  ASN7        0.2627
      7  OD1      130.8130  -50.2720   24.0960 O.2     7  ASN7       -0.2716
      8  ND2      131.6070  -52.0690   23.0100 N.am    7  ASN7       -0.0877
      9  N        133.2290  -37.1900   28.0030 N.3    84  PHE84      -0.1227
     10  CA       133.5460  -38.5470   27.5690 C.3    84  PHE84       0.1736
     11  C        135.0480  -38.8010   27.6820 C.2    84  PHE84       0.2595
     12  O        135.8500  -38.0750   27.0940 O.2    84  PHE84      -0.2718
     13  CB       133.0710  -38.7510   26.1280 C.3    84  PHE84       0.0547
     14  CG       133.3410  -40.1230   25.5810 C.ar   84  PHE84      -0.0202
     15  CD1      132.8800  -41.2510   26.2390 C.ar   84  PHE84      -0.0042
     16  CD2      134.0380  -40.2840   24.3940 C.ar   84  PHE84      -0.0042
     17  CE1      133.1220  -42.5150   25.7320 C.ar   84  PHE84      -0.0003
     18  CE2      134.2790  -41.5440   23.8800 C.ar   84  PHE84      -0.0003
     19  CZ       133.8230  -42.6610   24.5510 C.ar   84  PHE84      -0.0000
     20  N        135.4280  -39.8310   28.4360 N.am   85  ASN85      -0.1974
     21  CA       136.8450  -40.1080   28.6830 C.3    85  ASN85       0.1688
     22  C        137.6030  -40.6600   27.4740 C.2    85  ASN85       0.2292
     23  O        138.8230  -40.8200   27.5160 O.2    85  ASN85      -0.2864
     24  CB       137.0510  -40.9930   29.9240 C.3    85  ASN85       0.1181
     25  CG       136.3380  -42.3340   29.8290 C.2    85  ASN85       0.2629
     26  OD1      135.8500  -42.7250   28.7680 O.2    85  ASN85      -0.2716
     27  ND2      136.2790  -43.0470   30.9550 N.am   85  ASN85      -0.0877
     28  N        137.0580  -43.6380   25.8640 N.3    87  THR87      -0.1203
     29  CA       136.9380  -45.0810   25.6950 C.3    87  THR87       0.1994
     30  C        135.6200  -45.5970   26.2640 C.2    87  THR87       0.2618
     31  O        134.9520  -44.9020   27.0300 O.2    87  THR87      -0.2717
     32  CB       138.1040  -45.8300   26.3690 C.3    87  THR87       0.1784
     33  OG1      138.1990  -45.4300   27.7430 O.3    87  THR87      -0.2211
     34  CG2      139.4210  -45.5240   25.6640 C.3    87  THR87       0.0376
     35  N        135.2480  -46.8140   25.8770 N.am   88  GLY88      -0.1942
     36  CA       134.0410  -47.4450   26.3790 C.3    88  GLY88       0.1998
     37  C        132.7740  -47.1060   25.6150 C.2    88  GLY88       0.2480
     38  O        132.8200  -46.4130   24.5980 O.2    88  GLY88      -0.2729
     39  N        131.6270  -47.6010   26.1070 N.am   89  PRO89      -0.2726
     40  CA       130.3050  -47.4020   25.4950 C.3    89  PRO89       0.1402
     41  C        129.8230  -45.9570   25.5600 C.2    89  PRO89       0.2269
     42  O        130.2750  -45.1930   26.4110 O.2    89  PRO89      -0.2865
     43  CB       129.3920  -48.2870   26.3500 C.3    89  PRO89       0.0296
     44  CG       130.0830  -48.3650   27.6670 C.3    89  PRO89       0.0237
     45  CD       131.5430  -48.4050   27.3380 C.3    89  PRO89       0.0939
     46  N        143.5530  -40.1890   29.2440 N.3   125  SER125     -0.1202
     47  CA       144.7410  -41.0240   29.1030 C.3   125  SER125      0.2020
     48  C        144.3380  -42.4620   28.7980 C.2   125  SER125      0.2618
     49  O        143.3380  -42.9550   29.3220 O.2   125  SER125     -0.2717
     50  CB       145.5950  -40.9720   30.3710 C.3   125  SER125      0.2103
     51  OG       146.7420  -41.7940   30.2460 O.3   125  SER125     -0.2182
     52  N        145.1090  -43.1260   27.9420 N.am  126  GLU126     -0.1979
     53  CA       144.8480  -44.5200   27.5990 C.3   126  GLU126      0.1602
     54  C        144.9490  -45.3810   28.8510 C.2   126  GLU126      0.2287
     55  O        144.0490  -46.1620   29.1590 O.2   126  GLU126     -0.2864
     56  CB       145.8330  -45.0090   26.5360 C.3   126  GLU126      0.0415
     57  CG       145.5890  -46.4360   26.0730 C.3   126  GLU126      0.1163
     58  CD       146.5590  -46.8740   24.9930 C.2   126  GLU126      0.3649
     59  OE1      147.4680  -46.0880   24.6530 O.co2 126  GLU126     -0.2457
     60  OE2      146.4110  -48.0040   24.4830 O.co2 126  GLU126     -0.2457
     61  N        145.9580  -44.4470   32.8390 N.3   128  PHE128     -0.1241
     62  CA       146.3350  -43.3910   33.7750 C.3   128  PHE128      0.1605
     63  C        147.3990  -43.8540   34.7630 C.2   128  PHE128      0.2264
     64  O        148.1960  -43.0530   35.2500 O.2   128  PHE128     -0.2867
     65  CB       145.1090  -42.8580   34.5220 C.3   128  PHE128      0.0534
     66  CG       144.4350  -41.7030   33.8350 C.ar  128  PHE128     -0.0203
     67  CD1      144.9500  -40.4210   33.9440 C.ar  128  PHE128     -0.0042
     68  CD2      143.2860  -41.8960   33.0870 C.ar  128  PHE128     -0.0042
     69  CE1      144.3340  -39.3530   33.3180 C.ar  128  PHE128     -0.0003
     70  CE2      142.6640  -40.8320   32.4580 C.ar  128  PHE128     -0.0003
     71  CZ       143.1890  -39.5590   32.5740 C.ar  128  PHE128     -0.0000
     72  N        141.3600  -37.1910   39.3640 N.3   174  GLN174     -0.1245
     73  CA       141.7640  -38.4570   38.7600 C.3   174  GLN174      0.1566
     74  C        142.6910  -39.2920   39.6460 C.2   174  GLN174      0.2260
     75  O        142.4620  -40.4860   39.8430 O.2   174  GLN174     -0.2867
     76  CB       142.4180  -38.2170   37.3970 C.3   174  GLN174      0.0367
     77  CG       142.9390  -39.4790   36.7260 C.3   174  GLN174      0.0905
     78  CD       141.8370  -40.4690   36.3950 C.2   174  GLN174      0.2608
     79  OE1      140.6870  -40.0880   36.1770 O.2   174  GLN174     -0.2717
     80  NE2      142.1860  -41.7500   36.3590 N.am  174  GLN174     -0.0878
@<TRIPOS>BOND
     1     4     3    2
     2     3     2    1
     3     1     2    1
     4     2     5    1
     5     5     6    1
     6     8     6   am
     7     6     7    2
     8    18    16   ar
     9    18    19   ar
    10    16    14   ar
    11    60    58   ar
    12    19    17   ar
    13    38    37    2
    14    59    58   ar
    15    58    57    1
    16    40    41    1
    17    40    39    1
    18    40    43    1
    19    41    42    2
    20    14    13    1
    21    14    15   ar
    22    37    39   am
    23    37    36    1
    24    34    32    1
    25    29    28    1
    26    29    30    1
    27    29    32    1
    28    17    15   ar
    29    35    30   am
    30    35    36    1
    31    57    56    1
    32    39    45    1
    33    13    10    1
    34    30    31    2
    35    43    44    1
    36    32    33    1
    37    56    53    1
    38    12    11    2
    39    45    44    1
    40    22    23    2
    41    22    21    1
    42    10    11    1
    43    10     9    1
    44    53    52    1
    45    53    54    1
    46    11    20   am
    47    52    48   am
    48    20    21    1
    49    21    24    1
    50    26    25    2
    51    48    47    1
    52    48    49    2
    53    54    55    2
    54    47    46    1
    55    47    50    1
    56    25    24    1
    57    25    27   am
    58    51    50    1
    59    70    71   ar
    60    70    68   ar
    61    71    69   ar
    62    61    62    1
    63    68    66   ar
    64    69    67   ar
    65    62    65    1
    66    62    63    1
    67    66    67   ar
    68    66    65    1
    69    63    64    2
    70    79    78    2
    71    80    78   am
    72    78    77    1
    73    77    76    1
    74    76    73    1
    75    73    72    1
    76    73    74    1
    77    74    75    2
