@<TRIPOS>MOLECULE
tmp/4rqsD00.pdb
 187 184 0 0 0
SMALL
GASTEIGER

@<TRIPOS>ATOM
      1  N        156.8610  -19.8300    1.7260 N.3    59  VAL59      -0.1231
      2  CA       155.4370  -19.6890    1.4640 C.3    59  VAL59       0.1692
      3  C        154.6970  -19.2660    2.7280 C.2    59  VAL59       0.2593
      4  O        155.1720  -19.4920    3.8420 O.2    59  VAL59      -0.2718
      5  CB       154.8320  -21.0040    0.9310 C.3    59  VAL59       0.0266
      6  CG1      155.5100  -21.4110   -0.3670 C.3    59  VAL59       0.0020
      7  CG2      154.9630  -22.1080    1.9680 C.3    59  VAL59       0.0020
      8  N        153.5370  -18.6430    2.5520 N.am   60  SER60      -0.1938
      9  CA       152.7110  -18.2530    3.6850 C.3    60  SER60       0.2055
     10  C        152.0110  -19.4850    4.2420 C.2    60  SER60       0.2643
     11  O        151.2870  -20.1750    3.5250 O.2    60  SER60      -0.2714
     12  CB       151.6800  -17.2040    3.2650 C.3    60  SER60       0.2130
     13  OG       152.3100  -16.0580    2.7210 O.3    60  SER60      -0.2179
     14  N        152.2310  -19.7590    5.5230 N.am   61  PHE61      -0.1959
     15  CA       151.6780  -20.9560    6.1430 C.3    61  PHE61       0.1771
     16  C        150.6610  -20.6220    7.2280 C.2    61  PHE61       0.2619
     17  O        151.0030  -20.0460    8.2600 O.2    61  PHE61      -0.2715
     18  CB       152.7960  -21.8290    6.7200 C.3    61  PHE61       0.0574
     19  CG       152.3200  -23.1510    7.2560 C.ar   61  PHE61      -0.0200
     20  CD1      152.0110  -23.3020    8.5990 C.ar   61  PHE61      -0.0042
     21  CD2      152.1800  -24.2440    6.4160 C.ar   61  PHE61      -0.0042
     22  CE1      151.5720  -24.5160    9.0930 C.ar   61  PHE61      -0.0003
     23  CE2      151.7420  -25.4610    6.9040 C.ar   61  PHE61      -0.0003
     24  CZ       151.4370  -25.5970    8.2440 C.ar   61  PHE61      -0.0000
     25  N        149.4080  -20.9890    6.9820 N.am   62  GLU62      -0.1964
     26  CA       148.3590  -20.8450    7.9790 C.3    62  GLU62       0.1718
     27  C        147.4890  -22.0960    7.9810 C.2    62  GLU62       0.2458
     28  O        147.1800  -22.6400    6.9210 O.2    62  GLU62      -0.2730
     29  CB       147.5060  -19.6120    7.6710 C.3    62  GLU62       0.0428
     30  CG       146.3450  -19.3910    8.6260 C.3    62  GLU62       0.1163
     31  CD       145.4750  -18.2180    8.2210 C.2    62  GLU62       0.3649
     32  OE1      145.7700  -17.5900    7.1830 O.co2  62  GLU62      -0.2457
     33  OE2      144.4970  -17.9250    8.9400 O.co2  62  GLU62      -0.2457
     34  N        147.0930  -22.5600    9.1750 N.am   63  PRO63      -0.2727
     35  CA       146.1890  -23.7090    9.2730 C.3    63  PRO63       0.1402
     36  C        144.7750  -23.3320    8.8550 C.2    63  PRO63       0.2269
     37  O        144.3030  -22.2460    9.1920 O.2    63  PRO63      -0.2865
     38  CB       146.2160  -24.0520   10.7680 C.3    63  PRO63       0.0296
     39  CG       147.4620  -23.4190   11.2920 C.3    63  PRO63       0.0237
     40  CD       147.6330  -22.1720   10.4880 C.3    63  PRO63       0.0939
     41  N        141.6800  -27.6650   12.5370 N.3   103  ARG103     -0.1245
     42  CA       142.8930  -27.0350   12.0300 C.3   103  ARG103      0.1563
     43  C        144.1170  -27.9060   12.2890 C.2   103  ARG103      0.2260
     44  O        144.3860  -28.2810   13.4300 O.2   103  ARG103     -0.2867
     45  CB       143.0890  -25.6490   12.6470 C.3   103  ARG103      0.0307
     46  CG       142.1300  -24.5970   12.1200 C.3   103  ARG103      0.0489
     47  CD       142.5400  -23.2080   12.5790 C.3   103  ARG103      0.2205
     48  NE       141.7020  -22.1660   11.9930 N.pl3 103  ARG103     -0.0865
     49  CZ       140.5940  -21.6960   12.5550 C.cat 103  ARG103      0.5346
     50  NH1      140.1840  -22.1750   13.7220 N.pl3 103  ARG103      0.1354
     51  NH2      139.8940  -20.7460   11.9500 N.pl3 103  ARG103      0.1354
     52  N        147.1170  -27.9370   13.1590 N.3   105  VAL105     -0.1231
     53  CA       148.1950  -27.2320   13.8390 C.3   105  VAL105      0.1692
     54  C        149.2370  -28.2110   14.3670 C.2   105  VAL105      0.2591
     55  O        148.9290  -29.0860   15.1770 O.2   105  VAL105     -0.2718
     56  CB       147.6600  -26.3770   15.0020 C.3   105  VAL105      0.0266
     57  CG1      148.8110  -25.8010   15.8120 C.3   105  VAL105      0.0020
     58  CG2      146.7620  -25.2690   14.4730 C.3   105  VAL105      0.0020
     59  N        150.4710  -28.0570   13.8980 N.am  106  VAL106     -0.1980
     60  CA       151.5720  -28.9000   14.3470 C.3   106  VAL106      0.1595
     61  C        152.3670  -28.1870   15.4340 C.2   106  VAL106      0.2287
     62  O        153.0370  -27.1880   15.1700 O.2   106  VAL106     -0.2864
     63  CB       152.5100  -29.2630   13.1800 C.3   106  VAL106      0.0276
     64  CG1      153.6790  -30.0970   13.6760 C.3   106  VAL106      0.0022
     65  CG2      151.7440  -30.0020   12.0930 C.3   106  VAL106      0.0022
     66  N        147.0640  -25.4950   19.7600 N.3   112  LEU112     -0.1231
     67  CA       146.6220  -24.1930   19.2760 C.3   112  LEU112      0.1693
     68  C        145.5080  -24.3250   18.2450 C.2   112  LEU112      0.2592
     69  O        145.4710  -25.2890   17.4800 O.2   112  LEU112     -0.2718
     70  CB       147.7980  -23.4270   18.6680 C.3   112  LEU112      0.0284
     71  CG       149.0290  -23.2540   19.5580 C.3   112  LEU112      0.0019
     72  CD1      150.1130  -22.4800   18.8260 C.3   112  LEU112      0.0001
     73  CD2      148.6570  -22.5650   20.8600 C.3   112  LEU112      0.0001
     74  N        144.6050  -23.3470   18.2380 N.am  113  ASN113     -0.1974
     75  CA       143.5180  -23.2800   17.2630 C.3   113  ASN113      0.1688
     76  C        142.6420  -24.5350   17.2420 C.2   113  ASN113      0.2292
     77  O        142.1860  -24.9670   16.1840 O.2   113  ASN113     -0.2864
     78  CB       144.0730  -22.9900   15.8630 C.3   113  ASN113      0.1181
     79  CG       144.9710  -21.7620   15.8320 C.2   113  ASN113      0.2629
     80  OD1      144.7610  -20.8070   16.5800 O.2   113  ASN113     -0.2716
     81  ND2      145.9820  -21.7880   14.9660 N.am  113  ASN113     -0.0877
     82  N        149.9740  -14.0240   22.2740 N.3   146  ASN146     -0.1240
     83  CA       150.5320  -13.2650   21.1600 C.3   146  ASN146      0.1653
     84  C        152.0270  -13.5100   20.9880 C.2   146  ASN146      0.2266
     85  O        152.8260  -13.1340   21.8450 O.2   146  ASN146     -0.2867
     86  CB       150.2720  -11.7690   21.3460 C.3   146  ASN146      0.1155
     87  CG       148.7980  -11.4440   21.4860 C.2   146  ASN146      0.2627
     88  OD1      147.9420  -12.1370   20.9350 O.2   146  ASN146     -0.2716
     89  ND2      148.4950  -10.3820   22.2270 N.am  146  ASN146     -0.0877
     90  N        156.4670  -24.6900   17.3430 N.3   198  PHE198     -0.1227
     91  CA       155.3140  -24.5060   16.4570 C.3   198  PHE198      0.1736
     92  C        155.6850  -23.7080   15.2140 C.2   198  PHE198      0.2595
     93  O        156.7250  -23.0620   15.1750 O.2   198  PHE198     -0.2718
     94  CB       154.1670  -23.7980   17.1890 C.3   198  PHE198      0.0547
     95  CG       154.5370  -22.4490   17.7420 C.ar  198  PHE198     -0.0202
     96  CD1      155.0990  -22.3330   19.0020 C.ar  198  PHE198     -0.0042
     97  CD2      154.3140  -21.2970   17.0060 C.ar  198  PHE198     -0.0042
     98  CE1      155.4380  -21.0950   19.5160 C.ar  198  PHE198     -0.0003
     99  CE2      154.6520  -20.0560   17.5130 C.ar  198  PHE198     -0.0003
    100  CZ       155.2140  -19.9550   18.7700 C.ar  198  PHE198     -0.0000
    101  N        154.8280  -23.7550   14.2000 N.am  199  ASN199     -0.1960
    102  CA       155.1010  -23.0640   12.9450 C.3   199  ASN199      0.1819
    103  C        154.2330  -21.8220   12.7710 C.2   199  ASN199      0.2621
    104  O        153.0060  -21.9110   12.7220 O.2   199  ASN199     -0.2715
    105  CB       154.9140  -24.0090   11.7560 C.3   199  ASN199      0.1195
    106  CG       155.4680  -23.4380   10.4650 C.2   199  ASN199      0.2630
    107  OD1      154.8230  -22.6240    9.8050 O.2   199  ASN199     -0.2716
    108  ND2      156.6710  -23.8630   10.0980 N.am  199  ASN199     -0.0877
    109  N        154.8790  -20.6640   12.6750 N.am  200  CYS200     -0.1954
    110  CA       154.1680  -19.4010   12.5150 C.3   200  CYS200      0.1843
    111  C        154.7000  -18.6070   11.3260 C.2   200  CYS200      0.2626
    112  O        155.8570  -18.1890   11.3150 O.2   200  CYS200     -0.2714
    113  CB       154.2710  -18.5660   13.7930 C.3   200  CYS200      0.0997
    114  SG       153.4050  -16.9800   13.7240 S.3   200  CYS200     -0.0797
    115  N        153.8470  -18.4030   10.3270 N.am  201  GLY201     -0.1954
    116  CA       154.2140  -17.6440    9.1460 C.3   201  GLY201      0.1869
    117  C        155.2340  -18.3530    8.2760 C.2   201  GLY201      0.2309
    118  O        155.9550  -17.7180    7.5070 O.2   201  GLY201     -0.2863
    119  N        162.0240  -14.7700    6.8800 N.3   245  ILE245     -0.1231
    120  CA       161.7040  -13.6180    6.0470 C.3   245  ILE245      0.1692
    121  C        161.6880  -12.3300    6.8630 C.2   245  ILE245      0.2592
    122  O        161.4020  -12.3430    8.0600 O.2   245  ILE245     -0.2718
    123  CB       160.3500  -13.8000    5.3400 C.3   245  ILE245      0.0266
    124  CG1      159.2550  -14.0990    6.3640 C.3   245  ILE245      0.0019
    125  CG2      160.4340  -14.9210    4.3170 C.3   245  ILE245      0.0020
    126  CD1      157.9180  -14.4170    5.7440 C.3   245  ILE245      0.0001
    127  N        162.0050  -11.2200    6.2060 N.am  246  ARG246     -0.1966
    128  CA       162.0730   -9.9290    6.8770 C.3   246  ARG246      0.1729
    129  C        160.6760   -9.3600    7.1010 C.2   246  ARG246      0.2617
    130  O        159.7420   -9.6720    6.3630 O.2   246  ARG246     -0.2715
    131  CB       162.9250   -8.9550    6.0630 C.3   246  ARG246      0.0348
    132  CG       163.5760   -7.8560    6.8840 C.3   246  ARG246      0.0492
    133  CD       164.9980   -7.6070    6.4110 C.3   246  ARG246      0.2205
    134  NE       165.8030   -8.8250    6.4730 N.pl3 246  ARG246     -0.0865
    135  CZ       167.0700   -8.9080    6.0780 C.cat 246  ARG246      0.5346
    136  NH1      167.6850   -7.8410    5.5870 N.pl3 246  ARG246      0.1354
    137  NH2      167.7210  -10.0590    6.1720 N.pl3 246  ARG246      0.1354
    138  N        160.5410   -8.5220    8.1230 N.am  247  GLY247     -0.1940
    139  CA       159.2600   -7.9310    8.4590 C.3   247  GLY247      0.2014
    140  C        158.6430   -8.5360    9.7030 C.2   247  GLY247      0.2639
    141  O        159.2430   -9.3900   10.3550 O.2   247  GLY247     -0.2714
    142  N        157.4370   -8.0880   10.0340 N.am  248  GLN248     -0.1963
    143  CA       156.7610   -8.5500   11.2370 C.3   248  GLN248      0.1733
    144  C        156.1790   -9.9450   11.0520 C.2   248  GLN248      0.2616
    145  O        155.3680  -10.1770   10.1550 O.2   248  GLN248     -0.2715
    146  CB       155.6490   -7.5780   11.6340 C.3   248  GLN248      0.0408
    147  CG       154.9000   -7.9850   12.8910 C.3   248  GLN248      0.0908
    148  CD       153.6990   -7.1030   13.1650 C.2   248  GLN248      0.2608
    149  OE1      153.2120   -6.4040   12.2760 O.2   248  GLN248     -0.2717
    150  NE2      153.2160   -7.1290   14.4020 N.am  248  GLN248     -0.0878
    151  N        156.5990  -10.8680   11.9090 N.am  249  ILE249     -0.1963
    152  CA       156.0230  -12.2040   11.9360 C.3   249  ILE249      0.1727
    153  C        155.2500  -12.3650   13.2360 C.2   249  ILE249      0.2616
    154  O        155.8430  -12.4430   14.3120 O.2   249  ILE249     -0.2715
    155  CB       157.1100  -13.2890   11.8520 C.3   249  ILE249      0.0290
    156  CG1      157.9990  -13.0620   10.6280 C.3   249  ILE249      0.0022
    157  CG2      156.4790  -14.6730   11.8130 C.3   249  ILE249      0.0023
    158  CD1      159.1210  -14.0680   10.4930 C.3   249  ILE249      0.0001
    159  N        153.9260  -12.4130   13.1380 N.am  250  ARG250     -0.1963
    160  CA       153.0870  -12.4590   14.3280 C.3   250  ARG250      0.1729
    161  C        151.8780  -13.3710   14.1560 C.2   250  ARG250      0.2616
    162  O        151.1980  -13.3340   13.1300 O.2   250  ARG250     -0.2715
    163  CB       152.6290  -11.0490   14.7080 C.3   250  ARG250      0.0348
    164  CG       151.9180  -10.9650   16.0470 C.3   250  ARG250      0.0492
    165  CD       151.5250   -9.5330   16.3700 C.3   250  ARG250      0.2205
    166  NE       150.9960   -9.4040   17.7250 N.pl3 250  ARG250     -0.0865
    167  CZ       150.5030   -8.2780   18.2290 C.cat 250  ARG250      0.5346
    168  NH1      150.4650   -7.1790   17.4880 N.pl3 250  ARG250      0.1354
    169  NH2      150.0440   -8.2510   19.4730 N.pl3 250  ARG250      0.1354
    170  N        151.6170  -14.1870   15.1710 N.am  251  CYS251     -0.1954
    171  CA       150.4580  -15.0700   15.1730 C.3   251  CYS251      0.1843
    172  C        149.7960  -15.0920   16.5460 C.2   251  CYS251      0.2626
    173  O        150.4550  -15.3300   17.5590 O.2   251  CYS251     -0.2714
    174  CB       150.8600  -16.4890   14.7660 C.3   251  CYS251      0.0997
    175  SG       151.5080  -16.6360   13.0850 S.3   251  CYS251     -0.0797
    176  N        148.4920  -14.8400   16.5740 N.am  252  SER252     -0.1936
    177  CA       147.7290  -14.9100   17.8130 C.3   252  SER252      0.2055
    178  C        146.8610  -16.1610   17.8130 C.2   252  SER252      0.2643
    179  O        145.8980  -16.2610   17.0520 O.2   252  SER252     -0.2714
    180  CB       146.8630  -13.6620   17.9850 C.3   252  SER252      0.2130
    181  OG       146.1340  -13.7130   19.2000 O.3   252  SER252     -0.2179
    182  N        147.2060  -17.1140   18.6710 N.am  253  SER253     -0.1949
    183  CA       146.5200  -18.4000   18.6890 C.3   253  SER253      0.1924
    184  C        145.8080  -18.6540   20.0110 C.2   253  SER253      0.2314
    185  O        146.2200  -18.1610   21.0610 O.2   253  SER253     -0.2863
    186  CB       147.5070  -19.5340   18.4040 C.3   253  SER253      0.2116
    187  OG       148.1730  -19.3330   17.1700 O.3   253  SER253     -0.2180
@<TRIPOS>BOND
     1     6     5    1
     2     5     2    1
     3     5     7    1
     4     2     1    1
     5     2     3    1
     6     8     3   am
     7     8     9    1
     8    13    12    1
     9     3     4    2
    10    12     9    1
    11    11    10    2
    12     9    10    1
    13    10    14   am
    14   125   123    1
    15   123   120    1
    16   123   124    1
    17    14    15    1
    18   136   135    1
    19   126   124    1
    20   120   121    1
    21   120   119    1
    22   131   128    1
    23   131   132    1
    24   135   137    1
    25   135   134    2
    26    15    18    1
    27    15    16    1
    28   127   121   am
    29   127   128    1
    30   130   129    2
    31   133   134    1
    32   133   132    1
    33    21    23   ar
    34    21    19   ar
    35    18    19    1
    36   121   122    2
    37   128   129    1
    38    23    24   ar
    39    28    27    2
    40    25    16   am
    41    25    26    1
    42   129   138   am
    43    32    31   ar
    44    16    17    2
    45    19    20   ar
    46   118   117    2
    47    29    26    1
    48    29    30    1
    49    26    27    1
    50    27    34   am
    51   138   139    1
    52    31    30    1
    53    31    33   ar
    54    24    22   ar
    55   117   116    1
    56   139   140    1
    57    20    22   ar
    58    36    37    2
    59    36    35    1
    60   116   115    1
    61    34    35    1
    62    34    40    1
    63    35    38    1
    64   140   142   am
    65   140   141    2
    66   107   106    2
    67   142   143    1
    68   108   106   am
    69   145   144    2
    70   115   111   am
    71   106   105    1
    72    40    39    1
    73   158   156    1
    74   156   155    1
    75    38    39    1
    76   144   143    1
    77   144   151   am
    78   143   146    1
    79   112   111    2
    80   111   110    1
    81   146   147    1
    82   105   102    1
    83   157   155    1
    84   155   152    1
    85   151   152    1
    86   152   153    1
    87    51    49    1
    88    48    49    2
    89    48    47    1
    90    42    43    1
    91    42    41    1
    92    42    45    1
    93    65    63    1
    94    46    47    1
    95    46    45    1
    96   149   148    2
    97    43    44    2
    98   110   109    1
    99   110   113    1
   100    49    50    1
   101   109   103   am
   102   104   103    2
   103   103   102    1
   104   147   148    1
   105   102   101    1
   106   175   114    1
   107   175   174    1
   108   162   161    2
   109   159   153   am
   110   159   160    1
   111    52    53    1
   112   148   150   am
   113    63    64    1
   114    63    60    1
   115   153   154    2
   116   114   113    1
   117    53    54    1
   118    53    56    1
   119    59    60    1
   120    59    54   am
   121   161   160    1
   122   161   170   am
   123   101    92   am
   124   160   163    1
   125    60    61    1
   126    54    55    2
   127    58    56    1
   128   163   164    1
   129   174   171    1
   130    81    79   am
   131    56    57    1
   132    62    61    2
   133   170   171    1
   134   171   172    1
   135    93    92    2
   136    92    91    1
   137    79    78    1
   138    79    80    2
   139    78    75    1
   140   164   165    1
   141    77    76    2
   142   165   166    1
   143    91    94    1
   144    91    90    1
   145   172   176   am
   146   172   173    2
   147   176   177    1
   148    97    99   ar
   149    97    95   ar
   150   179   178    2
   151   187   186    1
   152    94    95    1
   153    76    75    1
   154    75    74    1
   155    69    68    2
   156   168   167    1
   157    99   100   ar
   158   166   167    2
   159    95    96   ar
   160   178   177    1
   161   178   182   am
   162   177   180    1
   163   180   181    1
   164   167   169    1
   165    74    68   am
   166    68    67    1
   167   186   183    1
   168    70    67    1
   169    70    71    1
   170   182   183    1
   171   183   184    1
   172   100    98   ar
   173    72    71    1
   174    96    98   ar
   175    67    66    1
   176    71    73    1
   177   184   185    2
   178    88    87    2
   179    84    83    1
   180    84    85    2
   181    83    86    1
   182    83    82    1
   183    86    87    1
   184    87    89   am
