@<TRIPOS>MOLECULE
tmp/4rqvA01.pdb
 115 111 0 0 0
SMALL
GASTEIGER

@<TRIPOS>ATOM
      1  N        -15.7550   14.0150  -17.7340 N.3    45  LYS45      -0.1245
      2  CA       -15.9610   15.3320  -17.1430 C.3    45  LYS45       0.1561
      3  C        -17.2390   16.0240  -17.6130 C.2    45  LYS45       0.2260
      4  O        -18.0000   16.5700  -16.8070 O.2    45  LYS45      -0.2867
      5  CB       -14.7720   16.2390  -17.4470 C.3    45  LYS45       0.0271
      6  CG       -13.5250   15.9260  -16.6730 C.3    45  LYS45       0.0035
      7  CD       -12.3990   16.8340  -17.1000 C.3    45  LYS45       0.0206
      8  CE       -11.2300   16.7430  -16.1560 C.3    45  LYS45       0.1093
      9  NZ       -10.0490   17.4720  -16.6880 N.3    45  LYS45      -0.1314
     10  N        -20.3820   14.3210  -15.9080 N.3    48  ILE48      -0.1231
     11  CA       -20.7090   14.5330  -14.5030 C.3    48  ILE48       0.1692
     12  C        -20.9520   16.0570  -14.2690 C.2    48  ILE48       0.2591
     13  O        -21.6210   16.4240  -13.3080 O.2    48  ILE48      -0.2718
     14  CB       -19.6270   13.9500  -13.5460 C.3    48  ILE48       0.0266
     15  CG1      -18.3070   14.5950  -13.8030 C.3    48  ILE48       0.0019
     16  CG2      -19.4530   12.4330  -13.7190 C.3    48  ILE48       0.0020
     17  CD1      -17.1810   14.1670  -12.8380 C.3    48  ILE48       0.0001
     18  N        -20.4400   16.9260  -15.1510 N.am   49  ILE49      -0.1980
     19  CA       -20.7310   18.3690  -15.0820 C.3    49  ILE49       0.1595
     20  C        -22.1710   18.6130  -15.4800 C.2    49  ILE49       0.2287
     21  O        -22.9040   19.3450  -14.8010 O.2    49  ILE49      -0.2864
     22  CB       -19.8060   19.2220  -16.0060 C.3    49  ILE49       0.0276
     23  CG1      -18.4840   19.5270  -15.3110 C.3    49  ILE49       0.0022
     24  CG2      -20.4520   20.5700  -16.3640 C.3    49  ILE49       0.0022
     25  CD1      -17.3160   19.7320  -16.2600 C.3    49  ILE49       0.0001
     26  N        -20.6090   16.4750   -9.8170 N.3    54  VAL54      -0.1245
     27  CA       -19.2590   16.8410   -9.3790 C.3    54  VAL54       0.1561
     28  C        -19.1160   16.7050   -7.8540 C.2    54  VAL54       0.2260
     29  O        -18.1000   16.2040   -7.3780 O.2    54  VAL54      -0.2867
     30  CB       -18.8790   18.2590   -9.8350 C.3    54  VAL54       0.0252
     31  CG1      -17.6030   18.7370   -9.1620 C.3    54  VAL54       0.0019
     32  CG2      -18.7020   18.2780  -11.3540 C.3    54  VAL54       0.0019
     33  N        -18.1580   13.1880   -6.8670 N.3    57  VAL57      -0.1231
     34  CA       -16.8180   12.7950   -7.2610 C.3    57  VAL57       0.1692
     35  C        -15.8080   13.3550   -6.2670 C.2    57  VAL57       0.2592
     36  O        -14.9060   12.6460   -5.8030 O.2    57  VAL57      -0.2718
     37  CB       -16.5260   13.2670   -8.6770 C.3    57  VAL57       0.0266
     38  CG1      -15.1100   12.9100   -9.0810 C.3    57  VAL57       0.0020
     39  CG2      -17.5300   12.6200   -9.6000 C.3    57  VAL57       0.0020
     40  N        -15.9860   14.6240   -5.9220 N.am   58  THR58      -0.1953
     41  CA       -15.1380   15.2790   -4.9390 C.3    58  THR58       0.1897
     42  C        -15.2400   14.5540   -3.6030 C.2    58  THR58       0.2313
     43  O        -14.2340   14.2900   -2.9440 O.2    58  THR58      -0.2863
     44  CB       -15.5420   16.7540   -4.7810 C.3    58  THR58       0.1794
     45  OG1      -15.4900   17.3800   -6.0660 O.3    58  THR58      -0.2208
     46  CG2      -14.6100   17.4810   -3.8310 C.3    58  THR58       0.0378
     47  N        -13.3840   11.1600   -3.5710 N.3    61  ARG61      -0.1245
     48  CA       -11.9400   11.3570   -3.4450 C.3    61  ARG61       0.1563
     49  C        -11.5450   11.7890   -2.0410 C.2    61  ARG61       0.2260
     50  O        -10.6260   11.2260   -1.4420 O.2    61  ARG61      -0.2867
     51  CB       -11.4430   12.3940   -4.4390 C.3    61  ARG61       0.0307
     52  CG        -9.9190   12.5170   -4.4450 C.3    61  ARG61       0.0489
     53  CD        -9.4530   13.7830   -5.1160 C.3    61  ARG61       0.2205
     54  NE        -9.8870   14.9520   -4.3530 N.pl3  61  ARG61      -0.0865
     55  CZ        -9.3280   16.1530   -4.4430 C.cat  61  ARG61       0.5346
     56  NH1       -8.3070   16.3500   -5.2640 N.pl3  61  ARG61       0.1354
     57  NH2       -9.7960   17.1550   -3.7070 N.pl3  61  ARG61       0.1354
     58  N         -4.8870    9.6540   -8.0830 N.3    78  THR78      -0.1203
     59  CA        -5.8340   10.1880   -9.0280 C.3    78  THR78       0.1994
     60  C         -5.0980   10.9590  -10.1220 C.2    78  THR78       0.2618
     61  O         -4.0300   11.5010   -9.8980 O.2    78  THR78      -0.2717
     62  CB        -6.8340   11.1360   -8.3490 C.3    78  THR78       0.1784
     63  OG1       -6.1390   12.2650   -7.8200 O.3    78  THR78      -0.2211
     64  CG2       -7.6250   10.4430   -7.2450 C.3    78  THR78       0.0376
     65  N         -5.6800   11.0070  -11.3110 N.am   79  PHE79      -0.1961
     66  CA        -5.1910   11.8980  -12.3560 C.3    79  PHE79       0.1771
     67  C         -6.3210   12.2330  -13.3120 C.2    79  PHE79       0.2619
     68  O         -7.4070   11.6730  -13.2250 O.2    79  PHE79      -0.2715
     69  CB        -3.9950   11.2820  -13.1080 C.3    79  PHE79       0.0574
     70  CG        -4.2590    9.9300  -13.7250 C.ar   79  PHE79      -0.0200
     71  CD1       -4.0220    8.7670  -13.0150 C.ar   79  PHE79      -0.0042
     72  CD2       -4.6790    9.8250  -15.0390 C.ar   79  PHE79      -0.0042
     73  CE1       -4.2320    7.5260  -13.5840 C.ar   79  PHE79      -0.0003
     74  CE2       -4.8930    8.5940  -15.6070 C.ar   79  PHE79      -0.0003
     75  CZ        -4.6620    7.4370  -14.8770 C.ar   79  PHE79      -0.0000
     76  N         -6.0760   13.1790  -14.2050 N.am   80  GLN80      -0.1977
     77  CA        -7.0920   13.5450  -15.1810 C.3    80  GLN80       0.1601
     78  C         -6.4660   13.9710  -16.4950 C.2    80  GLN80       0.2287
     79  O         -5.2860   14.3010  -16.5500 O.2    80  GLN80      -0.2864
     80  CB        -7.9870   14.6600  -14.6280 C.3    80  GLN80       0.0394
     81  CG        -7.2720   15.9390  -14.2650 C.3    80  GLN80       0.0908
     82  CD        -8.2200   16.9750  -13.6850 C.2    80  GLN80       0.2608
     83  OE1       -9.0540   17.5490  -14.3900 O.2    80  GLN80      -0.2717
     84  NE2       -8.1080   17.2050  -12.3880 N.am   80  GLN80      -0.0878
     85  N        -11.7090   11.9460  -15.5740 N.3    85  LEU85      -0.1231
     86  CA       -11.0840   11.8010  -14.2590 C.3    85  LEU85       0.1693
     87  C        -10.8210   10.3270  -13.9900 C.2    85  LEU85       0.2592
     88  O        -11.6390    9.4780  -14.3350 O.2    85  LEU85      -0.2718
     89  CB       -11.9710   12.3680  -13.1490 C.3    85  LEU85       0.0284
     90  CG       -12.3070   13.8580  -13.1850 C.3    85  LEU85       0.0019
     91  CD1      -13.0690   14.2410  -11.9300 C.3    85  LEU85       0.0001
     92  CD2      -11.0530   14.6970  -13.3310 C.3    85  LEU85       0.0001
     93  N         -9.6850   10.0300  -13.3510 N.am   86  TYR86      -0.1962
     94  CA        -9.2810    8.6530  -13.0750 C.3    86  TYR86       0.1771
     95  C         -8.9560    8.4470  -11.6060 C.2    86  TYR86       0.2619
     96  O         -8.1430    9.1960  -11.0730 O.2    86  TYR86      -0.2715
     97  CB        -8.0500    8.2700  -13.8930 C.3    86  TYR86       0.0574
     98  CG        -8.1590    8.4490  -15.3940 C.ar   86  TYR86      -0.0198
     99  CD1       -8.0360    9.7030  -15.9830 C.ar   86  TYR86      -0.0009
    100  CD2       -8.3210    7.3490  -16.2270 C.ar   86  TYR86      -0.0009
    101  CE1       -8.1100    9.8600  -17.3760 C.ar   86  TYR86       0.0417
    102  CE2       -8.3910    7.4890  -17.6120 C.ar   86  TYR86       0.0417
    103  CZ        -8.2870    8.7460  -18.1790 C.ar   86  TYR86       0.1957
    104  OH        -8.3450    8.8730  -19.5520 O.3    86  TYR86      -0.2866
    105  N         -9.5950    7.4490  -10.9770 N.am   87  PHE87      -0.1974
    106  CA        -9.2810    7.0140   -9.6020 C.3    87  PHE87       0.1639
    107  C         -8.5470    5.6870   -9.6430 C.2    87  PHE87       0.2290
    108  O         -9.1090    4.7150  -10.1070 O.2    87  PHE87      -0.2864
    109  CB       -10.5140    6.7300   -8.7250 C.3    87  PHE87       0.0560
    110  CG       -11.4090    7.8930   -8.4070 C.ar   87  PHE87      -0.0200
    111  CD1      -11.2810    8.5700   -7.2020 C.ar   87  PHE87      -0.0042
    112  CD2      -12.4850    8.2010   -9.2260 C.ar   87  PHE87      -0.0042
    113  CE1      -12.1570    9.5960   -6.8680 C.ar   87  PHE87      -0.0003
    114  CE2      -13.3510    9.2250   -8.9010 C.ar   87  PHE87      -0.0003
    115  CZ       -13.1900    9.9220   -7.7250 C.ar   87  PHE87      -0.0000
@<TRIPOS>BOND
     1   104   103    1
     2   103   102   ar
     3   103   101   ar
     4     1     2    1
     5     3     2    1
     6     3     4    2
     7   102   100   ar
     8     5     2    1
     9     5     6    1
    10   101    99   ar
    11     7     6    1
    12     7     8    1
    13     9     8    1
    14    79    78    2
    15    78    77    1
    16    24    22    1
    17    25    23    1
    18   100    98   ar
    19    22    23    1
    20    22    19    1
    21    99    98   ar
    22    10    11    1
    23    74    72   ar
    24    74    75   ar
    25    85    86    1
    26    20    19    1
    27    20    21    2
    28    98    97    1
    29    77    80    1
    30    77    76    1
    31    18    19    1
    32    18    12   am
    33    72    70   ar
    34    75    73   ar
    35    80    81    1
    36    11    12    1
    37    11    14    1
    38    83    82    2
    39    88    87    2
    40    12    13    2
    41    81    82    1
    42    86    87    1
    43    86    89    1
    44    76    67   am
    45    87    93   am
    46    97    94    1
    47    15    14    1
    48    15    17    1
    49    70    69    1
    50    70    71   ar
    51    16    14    1
    52    82    84   am
    53    73    71   ar
    54    93    94    1
    55    92    90    1
    56    67    68    2
    57    67    66    1
    58    90    89    1
    59    90    91    1
    60    69    66    1
    61    94    95    1
    62    66    65    1
    63    95    96    2
    64    95   105   am
    65    32    30    1
    66    65    60   am
    67   105   106    1
    68    60    61    2
    69    60    59    1
    70   108   107    2
    71    30    27    1
    72    30    31    1
    73    26    27    1
    74   107   106    1
    75   106   109    1
    76    39    37    1
    77    27    28    1
    78   112   114   ar
    79   112   110   ar
    80    38    37    1
    81    59    62    1
    82    59    58    1
    83   114   115   ar
    84   109   110    1
    85    37    34    1
    86   110   111   ar
    87    62    63    1
    88    62    64    1
    89    28    29    2
    90   115   113   ar
    91    34    33    1
    92    34    35    1
    93   111   113   ar
    94    35    40   am
    95    35    36    2
    96    45    44    1
    97    40    41    1
    98    56    55    1
    99    53    52    1
   100    53    54    1
   101    41    44    1
   102    41    42    1
   103    44    46    1
   104    52    51    1
   105    55    54    2
   106    55    57    1
   107    51    48    1
   108    42    43    2
   109    47    48    1
   110    48    49    1
   111    49    50    2
