@<TRIPOS>MOLECULE
tmp/4rqzC00.pdb
 95 87 0 0 0
SMALL
GASTEIGER

@<TRIPOS>ATOM
      1  N         63.2740   15.6610    8.2870 N.3   143  THR143     -0.1218
      2  CA        63.5460   15.5450    6.8580 C.3   143  THR143      0.1862
      3  C         64.1160   14.1690    6.5080 C.2   143  THR143      0.2287
      4  O         64.9660   13.6320    7.2230 O.2   143  THR143     -0.2866
      5  CB        64.5180   16.6420    6.3730 C.3   143  THR143      0.1770
      6  OG1       64.6100   16.6010    4.9470 O.3   143  THR143     -0.2211
      7  CG2       65.9110   16.4630    6.9650 C.3   143  THR143      0.0375
      8  N         64.9940   13.6330    3.1340 N.3   145  ARG145     -0.1245
      9  CA        65.4990   13.9050    1.7880 C.3   145  ARG145      0.1563
     10  C         64.4620   13.5350    0.7260 C.2   145  ARG145      0.2260
     11  O         64.8160   13.1960   -0.4090 O.2   145  ARG145     -0.2867
     12  CB        66.8040   13.1450    1.5360 C.3   145  ARG145      0.0307
     13  CG        67.3260   13.2930    0.1020 C.3   145  ARG145      0.0489
     14  CD        68.1700   12.0770   -0.2220 C.3   145  ARG145      0.2205
     15  NE        67.6400   10.9060    0.4760 N.pl3 145  ARG145     -0.0865
     16  CZ        68.2110    9.7220    0.6780 C.cat 145  ARG145      0.5346
     17  NH1       69.4330    9.4270    0.2340 N.pl3 145  ARG145      0.1354
     18  NH2       67.5610    8.7600    1.3510 N.pl3 145  ARG145      0.1354
     19  N         73.1120    4.6240   -1.9670 N.3   216  GLY216     -0.1210
     20  CA        74.4970    5.0240   -1.8110 C.3   216  GLY216      0.1956
     21  C         74.6960    5.8760   -0.5730 C.2   216  GLY216      0.2612
     22  O         73.8740    6.7390   -0.2660 O.2   216  GLY216     -0.2717
     23  N         75.7830    5.6130    0.1460 N.am  217  TYR217     -0.1962
     24  CA        76.1500    6.3890    1.3230 C.3   217  TYR217      0.1771
     25  C         77.5670    6.9180    1.1470 C.2   217  TYR217      0.2619
     26  O         78.4210    6.2240    0.5960 O.2   217  TYR217     -0.2715
     27  CB        76.0450    5.5350    2.5870 C.3   217  TYR217      0.0574
     28  CG        76.2270    6.3090    3.8630 C.ar  217  TYR217     -0.0198
     29  CD1       75.2250    7.1410    4.3370 C.ar  217  TYR217     -0.0009
     30  CD2       77.3950    6.2000    4.6000 C.ar  217  TYR217     -0.0009
     31  CE1       75.3810    7.8500    5.5030 C.ar  217  TYR217      0.0417
     32  CE2       77.5610    6.9030    5.7700 C.ar  217  TYR217      0.0417
     33  CZ        76.5480    7.7300    6.2180 C.ar  217  TYR217      0.1957
     34  OH        76.6900    8.4450    7.3840 O.3   217  TYR217     -0.2866
     35  N         77.8080    8.1500    1.5930 N.am  218  ILE218     -0.1977
     36  CA        79.1290    8.7600    1.4640 C.3   218  ILE218      0.1596
     37  C         79.5690    9.4110    2.7870 C.2   218  ILE218      0.2287
     38  O         80.5630   10.1210    2.8360 O.2   218  ILE218     -0.2864
     39  CB        79.1500    9.7980    0.2840 C.3   218  ILE218      0.0276
     40  CG1       80.5910   10.1620   -0.1010 C.3   218  ILE218      0.0022
     41  CG2       78.3070   11.0480    0.5980 C.3   218  ILE218      0.0022
     42  CD1       80.7180   10.9100   -1.4080 C.3   218  ILE218      0.0001
     43  N         78.5700   12.0000    4.8200 N.3   220  ILE220     -0.1245
     44  CA        78.7520   13.4530    4.8760 C.3   220  ILE220      0.1561
     45  C         77.4640   14.1230    5.3470 C.2   220  ILE220      0.2260
     46  O         76.3720   13.7460    4.9260 O.2   220  ILE220     -0.2867
     47  CB        79.1710   14.0400    3.4980 C.3   220  ILE220      0.0252
     48  CG1       80.5830   13.5740    3.1300 C.3   220  ILE220      0.0019
     49  CG2       79.1400   15.5700    3.5190 C.3   220  ILE220      0.0019
     50  CD1       81.0400   13.9370    1.7170 C.3   220  ILE220      0.0001
     51  N         79.2830   23.0630   -2.1490 N.3   221  ILE221     -0.1245
     52  CA        78.5710   22.6130   -0.9600 C.3   221  ILE221      0.1561
     53  C         79.5280   22.4830    0.2280 C.2   221  ILE221      0.2260
     54  O         80.6030   21.8850    0.1100 O.2   221  ILE221     -0.2867
     55  CB        77.8700   21.2650   -1.2040 C.3   221  ILE221      0.0252
     56  CG1       77.0180   21.3370   -2.4780 C.3   221  ILE221      0.0019
     57  CG2       77.0300   20.8710    0.0210 C.3   221  ILE221      0.0019
     58  CD1       76.2770   20.0510   -2.8110 C.3   221  ILE221      0.0001
     59  N         82.7970   20.8690   -1.4300 N.3   237  ILE237     -0.1245
     60  CA        82.6290   19.9550   -2.5480 C.3   237  ILE237      0.1561
     61  C         81.9570   20.6850   -3.6950 C.2   237  ILE237      0.2260
     62  O         80.8040   21.1140   -3.5830 O.2   237  ILE237     -0.2867
     63  CB        81.7920   18.7180   -2.1720 C.3   237  ILE237      0.0252
     64  CG1       82.3140   18.0980   -0.8710 C.3   237  ILE237      0.0019
     65  CG2       81.8000   17.7000   -3.3300 C.3   237  ILE237      0.0019
     66  CD1       81.4650   16.9670   -0.3390 C.3   237  ILE237      0.0001
     67  N         80.8110   16.1060   -7.6880 N.3   240  VAL240     -0.1245
     68  CA        80.7030   14.7260   -7.2330 C.3   240  VAL240      0.1561
     69  C         80.3790   13.8210   -8.4100 C.2   240  VAL240      0.2260
     70  O         79.3620   14.0050   -9.0830 O.2   240  VAL240     -0.2867
     71  CB        79.6170   14.5680   -6.1540 C.3   240  VAL240      0.0252
     72  CG1       79.4910   13.1050   -5.7140 C.3   240  VAL240      0.0019
     73  CG2       79.9170   15.4690   -4.9690 C.3   240  VAL240      0.0019
     74  N         72.1760   16.4540   -5.1240 N.3   248  THR248     -0.1203
     75  CA        73.3580   15.6200   -4.9490 C.3   248  THR248      0.1994
     76  C         73.0630   14.3990   -4.0830 C.2   248  THR248      0.2617
     77  O         73.3530   13.2630   -4.4720 O.2   248  THR248     -0.2717
     78  CB        74.5050   16.4220   -4.3180 C.3   248  THR248      0.1784
     79  OG1       74.0160   17.1200   -3.1650 O.3   248  THR248     -0.2211
     80  CG2       75.0770   17.4190   -5.3330 C.3   248  THR248      0.0376
     81  N         72.4690   14.6340   -2.9170 N.am  249  MET249     -0.1979
     82  CA        72.1580   13.5480   -1.9970 C.3   249  MET249      0.1605
     83  C         71.2260   12.5220   -2.6450 C.2   249  MET249      0.2287
     84  O         71.1370   11.3770   -2.1960 O.2   249  MET249     -0.2864
     85  CB        71.5330   14.1020   -0.7190 C.3   249  MET249      0.0413
     86  CG        70.1700   14.7230   -0.9100 C.3   249  MET249      0.0598
     87  SD        69.6290   15.5890    0.5740 S.3   249  MET249     -0.1393
     88  CE        69.9280   14.3540    1.8380 C.3   249  MET249      0.0692
     89  N         73.8580   10.5060   -4.9980 N.3   252  VAL252     -0.1245
     90  CA        74.5820    9.5340   -4.1910 C.3   252  VAL252      0.1561
     91  C         73.7420    8.2730   -4.0340 C.2   252  VAL252      0.2260
     92  O         74.2110    7.1690   -4.3340 O.2   252  VAL252     -0.2867
     93  CB        74.9480   10.1110   -2.7950 C.3   252  VAL252      0.0252
     94  CG1       75.5400    9.0370   -1.8830 C.3   252  VAL252      0.0019
     95  CG2       75.9260   11.2520   -2.9500 C.3   252  VAL252      0.0019
@<TRIPOS>BOND
     1    70    69    2
     2    69    68    1
     3    67    68    1
     4    68    71    1
     5    71    72    1
     6    71    73    1
     7    80    78    1
     8    74    75    1
     9    89    90    1
    10    75    78    1
    11    75    76    1
    12    77    76    2
    13    92    91    2
    14    78    79    1
    15    90    91    1
    16    90    93    1
    17    76    81   am
    18    61    62    2
    19    61    60    1
    20    65    63    1
    21    95    93    1
    22    81    82    1
    23    58    56    1
    24    93    94    1
    25    83    84    2
    26    83    82    1
    27    60    63    1
    28    60    59    1
    29    56    55    1
    30    63    64    1
    31    51    52    1
    32    82    85    1
    33    19    20    1
    34    20    21    1
    35    42    40    1
    36    55    52    1
    37    55    57    1
    38    52    53    1
    39    86    85    1
    40    86    87    1
    41    64    66    1
    42    21    22    2
    43    21    23   am
    44    11    10    2
    45    14    13    1
    46    14    15    1
    47    40    39    1
    48    13    12    1
    49    54    53    2
    50    23    24    1
    51    17    16    1
    52    39    41    1
    53    39    36    1
    54    15    16    2
    55    87    88    1
    56    26    25    2
    57    16    18    1
    58    10     9    1
    59    25    24    1
    60    25    35   am
    61    24    27    1
    62    36    35    1
    63    36    37    1
    64    12     9    1
    65    50    48    1
    66     9     8    1
    67    27    28    1
    68    37    38    2
    69    48    47    1
    70    47    49    1
    71    47    44    1
    72    28    29   ar
    73    28    30   ar
    74    29    31   ar
    75    30    32   ar
    76    43    44    1
    77    44    45    1
    78    46    45    2
    79     6     5    1
    80    31    33   ar
    81    32    33   ar
    82    33    34    1
    83     5     2    1
    84     5     7    1
    85     3     2    1
    86     3     4    2
    87     2     1    1
