@<TRIPOS>MOLECULE
tmp/4rqzB00.pdb
 132 123 0 0 0
SMALL
GASTEIGER

@<TRIPOS>ATOM
      1  N         27.6260   39.2620   20.8920 N.3   137  THR137     -0.1218
      2  CA        27.9190   40.6230   21.3320 C.3   137  THR137      0.1862
      3  C         28.4880   41.4460   20.1800 C.2   137  THR137      0.2287
      4  O         28.0400   42.5640   19.9200 O.2   137  THR137     -0.2866
      5  CB        28.9200   40.6330   22.5110 C.3   137  THR137      0.1770
      6  OG1       30.1260   39.9640   22.1260 O.3   137  THR137     -0.2211
      7  CG2       28.3290   39.9340   23.7320 C.3   137  THR137      0.0375
      8  N         28.9380   42.8280   16.6670 N.3   139  ARG139     -0.1245
      9  CA        27.9410   43.1220   15.6530 C.3   139  ARG139      0.1563
     10  C         28.6130   43.3170   14.3010 C.2   139  ARG139      0.2260
     11  O         28.6220   44.4290   13.7570 O.2   139  ARG139     -0.2867
     12  CB        27.1430   44.3710   16.0430 C.3   139  ARG139      0.0307
     13  CG        25.8280   44.4900   15.3330 C.3   139  ARG139      0.0489
     14  CD        25.1720   45.8300   15.6230 C.3   139  ARG139      0.2205
     15  NE        25.9060   46.9440   15.0190 N.pl3 139  ARG139     -0.0865
     16  CZ        25.8660   47.2590   13.7260 C.cat 139  ARG139      0.5346
     17  NH1       25.0940   46.5670   12.8880 N.pl3 139  ARG139      0.1354
     18  NH2       26.5800   48.2830   13.2780 N.pl3 139  ARG139      0.1354
     19  N         32.2180   57.5460   14.2530 N.3   210  GLY210     -0.1210
     20  CA        31.3260   58.4950   14.8900 C.3   210  GLY210      0.1956
     21  C         30.5890   57.8820   16.0630 C.2   210  GLY210      0.2612
     22  O         30.1320   56.7420   16.0000 O.2   210  GLY210     -0.2717
     23  N         30.4970   58.6540   17.1410 N.am  211  TYR211     -0.1962
     24  CA        29.7750   58.2640   18.3450 C.3   211  TYR211      0.1771
     25  C         28.7690   59.3560   18.6830 C.2   211  TYR211      0.2619
     26  O         29.0980   60.5420   18.6030 O.2   211  TYR211     -0.2715
     27  CB        30.7450   58.0430   19.5090 C.3   211  TYR211      0.0574
     28  CG        30.0840   57.7110   20.8270 C.ar  211  TYR211     -0.0198
     29  CD1       29.7390   56.4070   21.1360 C.ar  211  TYR211     -0.0009
     30  CD2       29.8220   58.6970   21.7670 C.ar  211  TYR211     -0.0009
     31  CE1       29.1440   56.0900   22.3330 C.ar  211  TYR211      0.0417
     32  CE2       29.2240   58.3900   22.9740 C.ar  211  TYR211      0.0417
     33  CZ        28.8880   57.0820   23.2500 C.ar  211  TYR211      0.1957
     34  OH        28.2910   56.7520   24.4440 O.3   211  TYR211     -0.2866
     35  N         27.5450   58.9630   19.0340 N.am  212  ILE212     -0.1963
     36  CA        26.5090   59.9310   19.3890 C.3   212  ILE212      0.1727
     37  C         25.8070   59.5490   20.7030 C.2   212  ILE212      0.2617
     38  O         24.7820   60.1180   21.0460 O.2   212  ILE212     -0.2715
     39  CB        25.4700   60.0910   18.2250 C.3   212  ILE212      0.0290
     40  CG1       24.6300   61.3640   18.4120 C.3   212  ILE212      0.0022
     41  CG2       24.5950   58.8280   18.0540 C.3   212  ILE212      0.0023
     42  CD1       23.9180   61.8280   17.1570 C.3   212  ILE212      0.0001
     43  N         26.3910   58.6160   21.4520 N.am  213  GLY213     -0.1940
     44  CA        25.8630   58.1930   22.7450 C.3   213  GLY213      0.2014
     45  C         24.3580   57.9900   22.8400 C.2   213  GLY213      0.2638
     46  O         23.6940   58.6230   23.6640 O.2   213  GLY213     -0.2714
     47  N         23.8220   57.1100   21.9970 N.am  214  ILE214     -0.1977
     48  CA        22.3970   56.7840   22.0100 C.3   214  ILE214      0.1596
     49  C         22.2000   55.2810   21.8120 C.2   214  ILE214      0.2287
     50  O         22.9390   54.6410   21.0630 O.2   214  ILE214     -0.2864
     51  CB        21.6190   57.5630   20.9150 C.3   214  ILE214      0.0276
     52  CG1       21.5910   59.0570   21.2410 C.3   214  ILE214      0.0022
     53  CG2       20.1810   57.0690   20.8090 C.3   214  ILE214      0.0022
     54  CD1       21.0530   59.9490   20.1220 C.3   214  ILE214      0.0001
     55  N         12.8680   56.6980   15.0340 N.3   215  ILE215     -0.1245
     56  CA        13.5950   55.7510   15.8720 C.3   215  ILE215      0.1561
     57  C         13.4720   56.1400   17.3430 C.2   215  ILE215      0.2260
     58  O         13.7060   57.2950   17.7120 O.2   215  ILE215     -0.2867
     59  CB        15.0860   55.6790   15.4860 C.3   215  ILE215      0.0252
     60  CG1       15.2310   55.3620   13.9960 C.3   215  ILE215      0.0019
     61  CG2       15.8120   54.6380   16.3450 C.3   215  ILE215      0.0019
     62  CD1       16.6600   55.2610   13.5170 C.3   215  ILE215      0.0001
     63  N         15.9820   54.5090   23.6480 N.3   218  ASN218     -0.1240
     64  CA        15.7980   53.7110   24.8570 C.3   218  ASN218      0.1653
     65  C         16.8130   54.0880   25.9280 C.2   218  ASN218      0.2266
     66  O         16.6540   53.7370   27.0950 O.2   218  ASN218     -0.2867
     67  CB        15.9090   52.2170   24.5370 C.3   218  ASN218      0.1155
     68  CG        14.7390   51.7050   23.7200 C.2   218  ASN218      0.2627
     69  OD1       13.6670   52.3100   23.7030 O.2   218  ASN218     -0.2716
     70  ND2       14.9360   50.5810   23.0390 N.am  218  ASN218     -0.0877
     71  N         13.7790   60.1340   17.1420 N.3   232  ILE232     -0.1245
     72  CA        14.6500   60.7180   16.1210 C.3   232  ILE232      0.1561
     73  C         14.1730   60.3650   14.7170 C.2   232  ILE232      0.2260
     74  O         14.2920   59.2160   14.2760 O.2   232  ILE232     -0.2867
     75  CB        16.1070   60.2510   16.2760 C.3   232  ILE232      0.0252
     76  CG1       16.5820   60.4720   17.7130 C.3   232  ILE232      0.0019
     77  CG2       17.0040   60.9990   15.2920 C.3   232  ILE232      0.0019
     78  CD1       17.9530   59.9310   17.9970 C.3   232  ILE232      0.0001
     79  N         18.5270   62.4430   11.0680 N.3   235  VAL235     -0.1245
     80  CA        19.8850   62.6300   11.5590 C.3   235  VAL235      0.1561
     81  C         20.7670   63.1130   10.4180 C.2   235  VAL235      0.2260
     82  O         20.9190   62.4230    9.4110 O.2   235  VAL235     -0.2867
     83  CB        20.4600   61.3310   12.1440 C.3   235  VAL235      0.0252
     84  CG1       21.8820   61.5500   12.6490 C.3   235  VAL235      0.0019
     85  CG2       19.5680   60.8170   13.2580 C.3   235  VAL235      0.0019
     86  N         17.2640   51.6690   12.1080 N.3   243  ALA243     -0.1231
     87  CA        18.2630   51.9440   13.1360 C.3   243  ALA243      0.1694
     88  C         19.6430   51.4330   12.7360 C.2   243  ALA243      0.2591
     89  O         20.6590   51.9470   13.1990 O.2   243  ALA243     -0.2718
     90  CB        17.8480   51.3250   14.4480 C.3   243  ALA243      0.0304
     91  N         19.6760   50.4130   11.8860 N.am  244  LEU244     -0.1980
     92  CA        20.9390   49.8400   11.4380 C.3   244  LEU244      0.1596
     93  C         21.6400   50.7490   10.4280 C.2   244  LEU244      0.2287
     94  O         22.8600   50.8990   10.4610 O.2   244  LEU244     -0.2864
     95  CB        20.7100   48.4560   10.8280 C.3   244  LEU244      0.0297
     96  CG        20.3310   47.3390   11.8000 C.3   244  LEU244      0.0022
     97  CD1       20.0060   46.0960   11.0040 C.3   244  LEU244      0.0001
     98  CD2       21.4430   47.0300   12.7680 C.3   244  LEU244      0.0001
     99  N         21.2540   54.0220   10.1370 N.3   246  THR246     -0.1203
    100  CA        21.6380   55.2680   10.8030 C.3   246  THR246      0.1994
    101  C         22.9330   55.1270   11.6090 C.2   246  THR246      0.2617
    102  O         23.8250   55.9740   11.5110 O.2   246  THR246     -0.2717
    103  CB        20.5300   55.7670   11.7530 C.3   246  THR246      0.1784
    104  OG1       20.0000   54.6630   12.4950 O.3   246  THR246     -0.2211
    105  CG2       19.4100   56.4490   10.9720 C.3   246  THR246      0.0376
    106  N         23.0290   54.0650   12.4060 N.am  247  MET247     -0.1979
    107  CA        24.2250   53.8190   13.2080 C.3   247  MET247      0.1605
    108  C         25.4570   53.6210   12.3210 C.2   247  MET247      0.2287
    109  O         26.5880   53.8340   12.7610 O.2   247  MET247     -0.2864
    110  CB        24.0220   52.6040   14.1170 C.3   247  MET247      0.0413
    111  CG        23.9180   51.2610   13.4010 C.3   247  MET247      0.0598
    112  SD        23.6950   49.8850   14.5500 S.3   247  MET247     -0.1393
    113  CE        24.9300   50.2480   15.7890 C.3   247  MET247      0.0692
    114  N         26.2910   57.3030   11.3480 N.3   250  VAL250     -0.1245
    115  CA        26.9800   57.9440   12.4570 C.3   250  VAL250      0.1561
    116  C         28.4390   57.5860   12.4380 C.2   250  VAL250      0.2260
    117  O         29.2840   58.4650   12.4940 O.2   250  VAL250     -0.2867
    118  CB        26.3940   57.5420   13.8200 C.3   250  VAL250      0.0252
    119  CG1       27.2870   58.0230   14.9660 C.3   250  VAL250      0.0019
    120  CG2       25.0030   58.1110   13.9720 C.3   250  VAL250      0.0019
    121  N         34.4080   57.1370   18.7400 N.3   273  TYR273     -0.1241
    122  CA        33.9800   55.9630   19.4750 C.3   273  TYR273      0.1605
    123  C         35.0850   55.5830   20.4570 C.2   273  TYR273      0.2264
    124  O         36.2410   55.4560   20.0520 O.2   273  TYR273     -0.2867
    125  CB        33.6720   54.8090   18.5130 C.3   273  TYR273      0.0534
    126  CG        32.5240   53.9290   18.9600 C.ar  273  TYR273     -0.0201
    127  CD1       31.2140   54.3760   18.8740 C.ar  273  TYR273     -0.0009
    128  CD2       32.7490   52.6510   19.4590 C.ar  273  TYR273     -0.0009
    129  CE1       30.1560   53.5830   19.2800 C.ar  273  TYR273      0.0417
    130  CE2       31.6940   51.8460   19.8680 C.ar  273  TYR273      0.0417
    131  CZ        30.3970   52.3210   19.7780 C.ar  273  TYR273      0.1957
    132  OH        29.3340   51.5370   20.1780 O.3   273  TYR273     -0.2866
@<TRIPOS>BOND
     1    82    81    2
     2    99   100    1
     3    81    80    1
     4    93    94    2
     5    93    92    1
     6   100   101    1
     7   100   103    1
     8    95    92    1
     9    95    96    1
    10   105   103    1
    11    97    96    1
    12    79    80    1
    13   114   115    1
    14    92    91    1
    15   102   101    2
    16    80    83    1
    17   101   106   am
    18   103   104    1
    19    96    98    1
    20    91    88   am
    21    86    87    1
    22    83    84    1
    23    83    85    1
    24   108   109    2
    25   108   107    1
    26   106   107    1
    27   116   115    1
    28   116   117    2
    29   115   118    1
    30    88    87    1
    31    88    89    2
    32    17    16    1
    33    87    90    1
    34   107   110    1
    35    18    16    1
    36   111   110    1
    37   111   112    1
    38    62    60    1
    39    16    15    2
    40    11    10    2
    41   118   120    1
    42   118   119    1
    43    60    59    1
    44    19    20    1
    45    74    73    2
    46    10     9    1
    47   112   113    1
    48    73    72    1
    49    20    21    1
    50    15    14    1
    51    55    56    1
    52    77    75    1
    53    13    14    1
    54    13    12    1
    55    59    56    1
    56    59    61    1
    57     9    12    1
    58     9     8    1
    59    56    57    1
    60    22    21    2
    61    21    23   am
    62    72    75    1
    63    72    71    1
    64    75    76    1
    65    23    24    1
    66    42    40    1
    67    57    58    2
    68    76    78    1
    69    41    39    1
    70    39    40    1
    71    39    36    1
    72    24    25    1
    73    24    27    1
    74   125   126    1
    75   125   122    1
    76    26    25    2
    77    25    35   am
    78   121   122    1
    79   127   126   ar
    80   127   129   ar
    81   126   128   ar
    82    35    36    1
    83   129   131   ar
    84    36    37    1
    85   128   130   ar
    86   122   123    1
    87    27    28    1
    88   131   130   ar
    89   131   132    1
    90     4     3    2
    91   124   123    2
    92    54    52    1
    93     3     2    1
    94    37    38    2
    95    37    43   am
    96    53    51    1
    97    28    29   ar
    98    28    30   ar
    99     1     2    1
   100    51    52    1
   101    51    48    1
   102    50    49    2
   103    29    31   ar
   104     2     5    1
   105    43    44    1
   106    30    32   ar
   107    49    48    1
   108    47    48    1
   109    47    45   am
   110     6     5    1
   111    31    33   ar
   112     5     7    1
   113    44    45    1
   114    45    46    2
   115    32    33   ar
   116    70    68   am
   117    33    34    1
   118    63    64    1
   119    69    68    2
   120    68    67    1
   121    67    64    1
   122    64    65    1
   123    65    66    2
