@<TRIPOS>MOLECULE
tmp/4rr4A02.pdb
 206 197 0 0 0
SMALL
GASTEIGER

@<TRIPOS>ATOM
      1  N         -5.1950   24.2280   -7.9720 N.3     7  TYR7       -0.1241
      2  CA        -5.0030   25.5930   -7.4930 C.3     7  TYR7        0.1605
      3  C         -3.7530   26.2790   -8.0600 C.2     7  TYR7        0.2264
      4  O         -3.8290   27.4230   -8.5280 O.2     7  TYR7       -0.2867
      5  CB        -5.0070   25.6370   -5.9660 C.3     7  TYR7        0.0534
      6  CG        -6.4000   25.7210   -5.3690 C.ar    7  TYR7       -0.0201
      7  CD1       -7.1770   24.5680   -5.2030 C.ar    7  TYR7       -0.0009
      8  CD2       -6.9500   26.9480   -5.0030 C.ar    7  TYR7       -0.0009
      9  CE1       -8.4470   24.6280   -4.6560 C.ar    7  TYR7        0.0417
     10  CE2       -8.2220   27.0270   -4.4560 C.ar    7  TYR7        0.0417
     11  CZ        -8.9630   25.8640   -4.2790 C.ar    7  TYR7        0.1957
     12  OH       -10.2240   25.9190   -3.7460 O.3     7  TYR7       -0.2866
     13  N         -6.4180   27.4990  -10.9790 N.3    11  LEU11      -0.1231
     14  CA        -7.2740   28.4230  -10.2320 C.3    11  LEU11       0.1693
     15  C         -6.5930   29.7650   -9.9520 C.2    11  LEU11       0.2591
     16  O         -7.1190   30.8330  -10.3310 O.2    11  LEU11      -0.2718
     17  CB        -7.7500   27.7770   -8.9240 C.3    11  LEU11       0.0284
     18  CG        -9.1930   27.9440   -8.4280 C.3    11  LEU11       0.0019
     19  CD1       -9.4840   29.3670   -7.9240 C.3    11  LEU11       0.0001
     20  CD2      -10.2030   27.4960   -9.4890 C.3    11  LEU11       0.0001
     21  N         -5.4290   29.7150   -9.2970 N.am   12  MET12      -0.1979
     22  CA        -4.7220   30.9450   -8.9140 C.3    12  MET12       0.1605
     23  C         -4.1900   31.7520  -10.1220 C.2    12  MET12       0.2287
     24  O         -4.2840   32.9790  -10.1110 O.2    12  MET12      -0.2864
     25  CB        -3.6350   30.6940   -7.8420 C.3    12  MET12       0.0413
     26  CG        -4.1360   30.0920   -6.5190 C.3    12  MET12       0.0598
     27  SD        -5.5260   30.9200   -5.7000 S.3    12  MET12      -0.1393
     28  CE        -4.8260   32.5050   -5.2400 C.3    12  MET12       0.0692
     29  N         -7.2880   33.6690  -11.4060 N.3    15  LEU15      -0.1245
     30  CA        -7.5290   34.7970  -10.4880 C.3    15  LEU15       0.1561
     31  C         -6.6080   35.9800  -10.8050 C.2    15  LEU15       0.2260
     32  O         -7.0740   37.1050  -10.8790 O.2    15  LEU15      -0.2867
     33  CB        -7.3100   34.3640   -9.0350 C.3    15  LEU15       0.0270
     34  CG        -8.3180   34.7570   -7.9450 C.3    15  LEU15       0.0019
     35  CD1       -7.6820   34.6530   -6.5630 C.3    15  LEU15       0.0001
     36  CD2       -8.9200   36.1470   -8.1510 C.3    15  LEU15       0.0001
     37  N         -3.9460   42.6520   -7.6490 N.3    21  PRO21      -0.2116
     38  CA        -3.7080   41.9860   -6.3580 C.3    21  PRO21       0.1372
     39  C         -4.5210   42.5290   -5.1750 C.2    21  PRO21       0.2244
     40  O         -4.9670   41.7510   -4.3630 O.2    21  PRO21      -0.2868
     41  CB        -2.2080   42.1230   -6.1240 C.3    21  PRO21       0.0268
     42  CG        -1.6310   42.7060   -7.3630 C.3    21  PRO21       0.0207
     43  CD        -2.7270   43.2330   -8.2370 C.3    21  PRO21       0.0892
     44  N         -8.0260   41.0320   -5.4270 N.3    24  ALA24      -0.1231
     45  CA        -7.9200   39.6130   -5.0990 C.3    24  ALA24       0.1694
     46  C         -7.8310   39.4070   -3.5710 C.2    24  ALA24       0.2592
     47  O         -8.5190   38.5330   -2.9970 O.2    24  ALA24      -0.2718
     48  CB        -6.7300   38.9920   -5.8180 C.3    24  ALA24       0.0304
     49  N         -7.0020   40.2300   -2.9240 N.am   25  HIS25      -0.1976
     50  CA        -6.8790   40.2370   -1.4640 C.3    25  HIS25       0.1656
     51  C         -8.2400   40.4660   -0.7310 C.2    25  HIS25       0.2291
     52  O         -8.6040   39.6870    0.1490 O.2    25  HIS25      -0.2864
     53  CB        -5.8510   41.2710   -1.0370 C.3    25  HIS25       0.0771
     54  CG        -5.6300   41.3180    0.4360 C.ar   25  HIS25       0.0820
     55  ND1       -4.9960   42.3730    1.0570 N.ar   25  HIS25      -0.2267
     56  CD2       -5.9270   40.4280    1.4120 C.ar   25  HIS25       0.1154
     57  CE1       -4.9110   42.1290    2.3570 C.ar   25  HIS25       0.1986
     58  NE2       -5.4770   40.9590    2.5950 N.ar   25  HIS25      -0.2212
     59  N        -10.5780   37.5020   -1.3200 N.3    28  ALA28      -0.1245
     60  CA       -10.1450   36.4410   -0.4170 C.3    28  ALA28       0.1562
     61  C        -10.6050   36.6710    1.0340 C.2    28  ALA28       0.2260
     62  O        -11.0990   35.7390    1.6800 O.2    28  ALA28      -0.2867
     63  CB        -8.6320   36.2620   -0.4740 C.3    28  ALA28       0.0290
     64  N        -14.3580   36.0490    1.1910 N.3    31  PHE31      -0.1227
     65  CA       -14.7120   34.6370    1.0480 C.3    31  PHE31       0.1736
     66  C        -14.2860   33.8140    2.2620 C.2    31  PHE31       0.2596
     67  O        -14.9670   32.8590    2.6380 O.2    31  PHE31      -0.2718
     68  CB       -14.1560   34.0460   -0.2530 C.3    31  PHE31       0.0547
     69  CG       -15.0410   34.2880   -1.4610 C.ar   31  PHE31      -0.0202
     70  CD1      -15.9110   35.3860   -1.5150 C.ar   31  PHE31      -0.0042
     71  CD2      -15.0070   33.4240   -2.5450 C.ar   31  PHE31      -0.0042
     72  CE1      -16.7290   35.6050   -2.6200 C.ar   31  PHE31      -0.0003
     73  CE2      -15.8160   33.6420   -3.6650 C.ar   31  PHE31      -0.0003
     74  CZ       -16.6760   34.7320   -3.7000 C.ar   31  PHE31      -0.0000
     75  N        -13.1840   34.2190    2.8930 N.am   32  THR32      -0.1953
     76  CA       -12.7010   33.5650    4.1000 C.3    32  THR32       0.1897
     77  C        -13.6280   33.8380    5.2820 C.2    32  THR32       0.2313
     78  O        -13.9880   32.9150    6.0020 O.2    32  THR32      -0.2863
     79  CB       -11.2350   33.9750    4.4100 C.3    32  THR32       0.1794
     80  OG1      -10.4260   33.7070    3.2480 O.3    32  THR32      -0.2208
     81  CG2      -10.6860   33.1970    5.5850 C.3    32  THR32       0.0378
     82  N        -16.2430   30.1330    2.9660 N.3    36  LEU36      -0.1231
     83  CA       -16.2910   29.5050    1.6300 C.3    36  LEU36       0.1693
     84  C        -14.9390   28.9320    1.1540 C.2    36  LEU36       0.2592
     85  O        -14.2870   29.5090    0.2830 O.2    36  LEU36      -0.2718
     86  CB       -16.8740   30.5000    0.6110 C.3    36  LEU36       0.0284
     87  CG       -18.2170   31.1220    1.0440 C.3    36  LEU36       0.0019
     88  CD1      -18.7030   32.1890    0.0650 C.3    36  LEU36       0.0001
     89  CD2      -19.2860   30.0400    1.2430 C.3    36  LEU36       0.0001
     90  N        -14.5420   27.7930    1.7220 N.am   37  LEU37      -0.1966
     91  CA       -13.1940   27.2680    1.5700 C.3    37  LEU37       0.1713
     92  C        -13.2700   25.7620    1.4990 C.2    37  LEU37       0.2458
     93  O        -14.0700   25.1580    2.2160 O.2    37  LEU37      -0.2730
     94  CB       -12.3020   27.6140    2.7810 C.3    37  LEU37       0.0310
     95  CG       -12.6070   28.8360    3.6380 C.3    37  LEU37       0.0022
     96  CD1      -12.0500   28.6470    5.0240 C.3    37  LEU37       0.0001
     97  CD2      -12.0410   30.0830    2.9850 C.3    37  LEU37       0.0001
     98  N        -12.4190   25.1460    0.6840 N.am   38  PRO38      -0.2727
     99  CA       -12.4510   23.6930    0.4540 C.3    38  PRO38       0.1402
    100  C        -12.3490   22.7940    1.6980 C.2    38  PRO38       0.2269
    101  O        -12.5400   23.2390    2.8300 O.2    38  PRO38      -0.2865
    102  CB       -11.2380   23.4620   -0.4520 C.3    38  PRO38       0.0296
    103  CG       -10.3000   24.5670   -0.1030 C.3    38  PRO38       0.0237
    104  CD       -11.1640   25.7560    0.2090 C.3    38  PRO38       0.0939
    105  N         -2.6960   39.6920    6.0630 N.3    67  PHE67      -0.1241
    106  CA        -3.7930   39.1260    5.3080 C.3    67  PHE67       0.1605
    107  C         -5.1300   39.5850    5.8890 C.2    67  PHE67       0.2264
    108  O         -5.9970   40.0840    5.1620 O.2    67  PHE67      -0.2867
    109  CB        -3.7600   37.5900    5.2630 C.3    67  PHE67       0.0534
    110  CG        -4.9510   36.9900    4.5470 C.ar   67  PHE67      -0.0203
    111  CD1       -5.0260   37.0110    3.1470 C.ar   67  PHE67      -0.0042
    112  CD2       -6.0090   36.4380    5.2610 C.ar   67  PHE67      -0.0042
    113  CE1       -6.1180   36.4820    2.4790 C.ar   67  PHE67      -0.0003
    114  CE2       -7.1230   35.8990    4.5980 C.ar   67  PHE67      -0.0003
    115  CZ        -7.1750   35.9230    3.2010 C.ar   67  PHE67      -0.0000
    116  N         -9.2540   27.0830    7.3840 N.3    80  MET80      -0.1245
    117  CA        -8.2270   26.8160    6.3750 C.3    80  MET80       0.1570
    118  C         -7.1160   25.8730    6.8820 C.2    80  MET80       0.2261
    119  O         -6.3650   25.3390    6.0860 O.2    80  MET80      -0.2867
    120  CB        -7.6060   28.1410    5.9370 C.3    80  MET80       0.0387
    121  CG        -7.4900   28.3280    4.4420 C.3    80  MET80       0.0595
    122  SD        -6.8220   29.9570    4.0170 S.3    80  MET80      -0.1393
    123  CE        -8.2970   30.7920    3.4610 C.3    80  MET80       0.0692
    124  N          0.0290   47.2630   -4.2490 N.3   103  VAL103     -0.1245
    125  CA         0.5160   45.9080   -4.1060 C.3   103  VAL103      0.1561
    126  C          0.7760   45.3530   -5.5110 C.2   103  VAL103      0.2260
    127  O          0.0860   45.6950   -6.4460 O.2   103  VAL103     -0.2867
    128  CB        -0.4330   45.0360   -3.2240 C.3   103  VAL103      0.0252
    129  CG1       -1.8610   45.2200   -3.6450 C.3   103  VAL103      0.0019
    130  CG2       -0.0780   43.5540   -3.2730 C.3   103  VAL103      0.0019
    131  N          2.3640   41.9950   -7.9720 N.3   105  ARG105     -0.1245
    132  CA         2.7830   40.6080   -8.1140 C.3   105  ARG105      0.1563
    133  C          4.0760   40.4960   -8.9160 C.2   105  ARG105      0.2260
    134  O          4.2980   41.2360   -9.8790 O.2   105  ARG105     -0.2867
    135  CB         1.7050   39.8170   -8.8480 C.3   105  ARG105      0.0307
    136  CG         0.3860   39.7120   -8.0990 C.3   105  ARG105      0.0489
    137  CD        -0.4760   38.7370   -8.8560 C.3   105  ARG105      0.2205
    138  NE        -1.8310   38.6350   -8.3410 N.pl3 105  ARG105     -0.0865
    139  CZ        -2.9200   39.1360   -8.9310 C.cat 105  ARG105      0.5346
    140  NH1       -2.8240   39.8210  -10.0700 N.pl3 105  ARG105      0.1354
    141  NH2       -4.1220   38.9360   -8.3700 N.pl3 105  ARG105      0.1354
    142  N          5.8450   39.1650   -3.8330 N.3   112  VAL112     -0.1245
    143  CA         4.9060   40.2530   -3.8910 C.3   112  VAL112      0.1561
    144  C          5.6880   41.4650   -3.3910 C.2   112  VAL112      0.2260
    145  O          6.5690   41.3430   -2.5500 O.2   112  VAL112     -0.2867
    146  CB         3.6250   39.9340   -3.0350 C.3   112  VAL112      0.0252
    147  CG1        2.8260   41.2040   -2.6820 C.3   112  VAL112      0.0019
    148  CG2        2.7320   38.9150   -3.7450 C.3   112  VAL112      0.0019
    149  N          4.5800   45.0560   -1.5900 N.3   114  ASN114     -0.1240
    150  CA         3.4460   45.8460   -1.1190 C.3   114  ASN114      0.1653
    151  C          3.8770   47.1360   -0.4520 C.2   114  ASN114      0.2266
    152  O          4.9620   47.1980    0.1830 O.2   114  ASN114     -0.2867
    153  CB         2.5490   45.0170   -0.1800 C.3   114  ASN114      0.1155
    154  CG         3.0290   45.0400    1.2620 C.2   114  ASN114      0.2627
    155  OD1        2.7220   45.9650    2.0050 O.2   114  ASN114     -0.2716
    156  ND2        3.7990   44.0260    1.6600 N.am  114  ASN114     -0.0877
    157  N          1.0890   49.0540    1.3200 N.3   116  TYR116     -0.1241
    158  CA        -0.2150   49.3970    1.8760 C.3   116  TYR116      0.1605
    159  C         -0.1540   50.6460    2.7760 C.2   116  TYR116      0.2264
    160  O         -1.0310   51.4940    2.6770 O.2   116  TYR116     -0.2867
    161  CB        -0.8090   48.2080    2.6470 C.3   116  TYR116      0.0534
    162  CG        -1.7120   47.2980    1.8410 C.ar  116  TYR116     -0.0201
    163  CD1       -2.9400   47.7450    1.3330 C.ar  116  TYR116     -0.0009
    164  CD2       -1.3630   45.9900    1.6130 C.ar  116  TYR116     -0.0009
    165  CE1       -3.7770   46.9010    0.6230 C.ar  116  TYR116      0.0417
    166  CE2       -2.1940   45.1460    0.9130 C.ar  116  TYR116      0.0417
    167  CZ        -3.3910   45.6070    0.4290 C.ar  116  TYR116      0.1957
    168  OH        -4.1770   44.7360   -0.2740 O.3   116  TYR116     -0.2866
    169  N          2.3160   34.0170    4.3190 N.3   325  TYR325     -0.1241
    170  CA         1.3330   34.9260    3.7360 C.3   325  TYR325      0.1605
    171  C          1.3580   34.8980    2.1980 C.2   325  TYR325      0.2264
    172  O          0.3300   34.6630    1.5640 O.2   325  TYR325     -0.2867
    173  CB         1.5570   36.3530    4.2390 C.3   325  TYR325      0.0534
    174  CG         0.5110   37.3390    3.7710 C.ar  325  TYR325     -0.0201
    175  CD1       -0.6390   36.9050    3.1250 C.ar  325  TYR325     -0.0009
    176  CD2        0.6720   38.7020    3.9750 C.ar  325  TYR325     -0.0009
    177  CE1       -1.5990   37.8020    2.6950 C.ar  325  TYR325      0.0417
    178  CE2       -0.2820   39.6070    3.5490 C.ar  325  TYR325      0.0417
    179  CZ        -1.4150   39.1510    2.9100 C.ar  325  TYR325      0.1957
    180  OH        -2.3680   40.0480    2.4840 O.3   325  TYR325     -0.2866
    181  N          0.3180   31.6910   -0.0770 N.3   328  LEU328     -0.1231
    182  CA        -1.1150   31.4990   -0.1500 C.3   328  LEU328      0.1693
    183  C         -1.6720   32.1610   -1.4090 C.2   328  LEU328      0.2592
    184  O         -2.6290   31.6670   -1.9850 O.2   328  LEU328     -0.2718
    185  CB        -1.7560   32.0750    1.1150 C.3   328  LEU328      0.0284
    186  CG        -3.2350   31.9480    1.4230 C.3   328  LEU328      0.0019
    187  CD1       -3.6130   30.4900    1.7100 C.3   328  LEU328      0.0001
    188  CD2       -3.5170   32.8450    2.6200 C.3   328  LEU328      0.0001
    189  N         -1.0330   33.2410   -1.8620 N.am  329  THR329     -0.1953
    190  CA        -1.5200   33.9820   -3.0120 C.3   329  THR329      0.1897
    191  C         -1.1490   33.2980   -4.3400 C.2   329  THR329      0.2313
    192  O         -1.7130   33.6350   -5.4010 O.2   329  THR329     -0.2863
    193  CB        -0.9780   35.4370   -3.0340 C.3   329  THR329      0.1794
    194  OG1        0.3730   35.4430   -3.5260 O.3   329  THR329     -0.2208
    195  CG2       -1.0600   36.1040   -1.6340 C.3   329  THR329      0.0378
    196  N         -2.9910   29.1360   -3.1430 N.3   332  GLY332     -0.1210
    197  CA        -4.2980   29.0920   -2.5100 C.3   332  GLY332      0.1940
    198  C         -4.2900   28.2770   -1.2350 C.2   332  GLY332      0.2453
    199  O         -3.2420   27.7950   -0.8050 O.2   332  GLY332     -0.2732
    200  N         -5.4710   28.0740   -0.6330 N.am  333  PRO333     -0.2728
    201  CA        -5.5930   27.3590    0.6360 C.3   333  PRO333      0.1401
    202  C         -4.9230   25.9900    0.7800 C.2   333  PRO333      0.2269
    203  O         -4.5070   25.6720    1.9010 O.2   333  PRO333     -0.2865
    204  CB        -7.1140   27.2400    0.8300 C.3   333  PRO333      0.0296
    205  CG        -7.6770   28.4440    0.1130 C.3   333  PRO333      0.0237
    206  CD        -6.7860   28.5700   -1.1130 C.3   333  PRO333      0.0939
@<TRIPOS>BOND
     1    29    30    1
     2    13    14    1
     3    32    31    2
     4    31    30    1
     5    30    33    1
     6    16    15    2
     7    14    15    1
     8    14    17    1
     9    23    24    2
    10    23    22    1
    11   140   139    1
    12    15    21   am
    13   134   133    2
    14    20    18    1
    15    21    22    1
    16    33    34    1
    17   139   141    1
    18   139   138    2
    19    17    18    1
    20   133   132    1
    21    22    25    1
    22   137   138    1
    23   137   136    1
    24   135   132    1
    25   135   136    1
    26     4     3    2
    27    18    19    1
    28    43    37    1
    29    43    42    1
    30    36    34    1
    31   132   131    1
    32     3     2    1
    33     1     2    1
    34    34    35    1
    35    25    26    1
    36    37    38    1
    37     2     5    1
    38    42    41    1
    39    26    27    1
    40   127   126    2
    41    38    41    1
    42    38    39    1
    43     5     6    1
    44    48    45    1
    45    27    28    1
    46   126   125    1
    47    44    45    1
    48   192   191    2
    49     6     7   ar
    50     6     8   ar
    51     7     9   ar
    52    39    40    2
    53    45    46    1
    54     8    10   ar
    55     9    11   ar
    56    10    11   ar
    57   191   190    1
    58    11    12    1
    59   124   125    1
    60   125   128    1
    61   143   142    1
    62   143   144    1
    63   143   146    1
    64   148   146    1
    65    74    73   ar
    66    74    72   ar
    67    73    71   ar
    68   129   128    1
    69    46    47    2
    70    46    49   am
    71   194   193    1
    72   144   145    2
    73   130   128    1
    74   196   197    1
    75   146   147    1
    76   193   190    1
    77   193   195    1
    78   190   189    1
    79    49    50    1
    80    72    70   ar
    81    71    69   ar
    82   197   198    1
    83   184   183    2
    84   189   183   am
    85   149   150    1
    86    70    69   ar
    87    50    53    1
    88    50    51    1
    89    69    68    1
    90   183   182    1
    91    59    60    1
    92   198   199    2
    93   198   200   am
    94   150   151    1
    95   150   153    1
    96   206   200    1
    97   206   205    1
    98    53    54    1
    99    51    52    2
   100   200   201    1
   101    63    60    1
   102   102   103    1
   103   102    99    1
   104   151   152    2
   105    60    61    1
   106   168   167    1
   107    68    65    1
   108   153   154    1
   109   182   181    1
   110   182   185    1
   111   103   104    1
   112    88    87    1
   113   205   204    1
   114   104    98    1
   115    85    84    2
   116   167   165   ar
   117   167   166   ar
   118    54    55   ar
   119    54    56   ar
   120    99    98    1
   121    99   100    1
   122    86    87    1
   123    86    83    1
   124   165   163   ar
   125   201   202    1
   126   201   204    1
   127    98    92   am
   128   202   203    2
   129   166   164   ar
   130    61    62    2
   131    87    89    1
   132    65    64    1
   133    65    66    1
   134    55    57   ar
   135   185   186    1
   136    84    83    1
   137    84    90   am
   138   154   156   am
   139   154   155    2
   140   157   158    1
   141   163   162   ar
   142    56    58   ar
   143   186   187    1
   144   186   188    1
   145    92    91    1
   146    92    93    2
   147   172   171    2
   148    91    90    1
   149    91    94    1
   150   164   162   ar
   151    83    82    1
   152   100   101    2
   153   162   161    1
   154   158   161    1
   155   158   159    1
   156   171   170    1
   157    66    67    2
   158    66    75   am
   159    57    58   ar
   160   113   111   ar
   161   113   115   ar
   162   180   179    1
   163   160   159    2
   164   177   179   ar
   165   177   175   ar
   166    94    95    1
   167    75    76    1
   168   179   178   ar
   169    97    95    1
   170   175   174   ar
   171   111   110   ar
   172   115   114   ar
   173    80    79    1
   174   123   122    1
   175   178   176   ar
   176    95    96    1
   177   170   173    1
   178   170   169    1
   179   174   176   ar
   180   174   173    1
   181   122   121    1
   182    76    79    1
   183    76    77    1
   184    79    81    1
   185   121   120    1
   186   110   112   ar
   187   110   109    1
   188   114   112   ar
   189   108   107    2
   190   109   106    1
   191    77    78    2
   192   106   107    1
   193   106   105    1
   194   120   117    1
   195   119   118    2
   196   117   118    1
   197   117   116    1
