@<TRIPOS>MOLECULE
tmp/4rrfF00.pdb
 165 165 0 0 0
SMALL
GASTEIGER

@<TRIPOS>ATOM
      1  N         29.9610  -46.8530   44.9210 N.3    19  THR19      -0.1218
      2  CA        29.5910  -47.5720   43.7050 C.3    19  THR19       0.1862
      3  C         29.2810  -49.0060   44.1830 C.2    19  THR19       0.2287
      4  O         29.5150  -49.3260   45.3580 O.2    19  THR19      -0.2866
      5  CB        30.7830  -47.6590   42.7350 C.3    19  THR19       0.1770
      6  OG1       31.8050  -48.4300   43.3640 O.3    19  THR19      -0.2211
      7  CG2       31.3560  -46.2760   42.3590 C.3    19  THR19       0.0375
      8  N         31.1260  -51.3780   43.7770 N.3    21  ILE21      -0.1245
      9  CA        32.4410  -51.9930   44.1110 C.3    21  ILE21       0.1561
     10  C         33.1490  -51.2970   45.2850 C.2    21  ILE21       0.2260
     11  O         34.3620  -51.5060   45.5430 O.2    21  ILE21      -0.2867
     12  CB        33.3730  -52.1790   42.8840 C.3    21  ILE21       0.0252
     13  CG1       33.4390  -50.9030   42.0590 C.3    21  ILE21       0.0019
     14  CG2       32.9140  -53.3750   42.0300 C.3    21  ILE21       0.0019
     15  CD1       34.7630  -50.7220   41.3500 C.3    21  ILE21       0.0001
     16  N         46.6310  -43.5790   41.2370 N.3    40  ILE40      -0.1231
     17  CA        47.0250  -44.8770   40.6260 C.3    40  ILE40       0.1692
     18  C         45.8410  -45.5640   40.0140 C.2    40  ILE40       0.2592
     19  O         44.7690  -45.7130   40.6890 O.2    40  ILE40      -0.2718
     20  CB        47.6600  -45.8090   41.6930 C.3    40  ILE40       0.0266
     21  CG1       48.8730  -45.1180   42.3520 C.3    40  ILE40       0.0019
     22  CG2       47.9600  -47.1940   41.0690 C.3    40  ILE40       0.0020
     23  CD1       49.4350  -45.8490   43.5450 C.3    40  ILE40       0.0001
     24  N         46.0070  -45.9420   38.7230 N.am   41  ALA41      -0.1966
     25  CA        45.1120  -46.8600   37.9950 C.3    41  ALA41       0.1728
     26  C         45.7650  -48.2140   37.8340 C.2    41  ALA41       0.2616
     27  O         46.9100  -48.3190   37.3160 O.2    41  ALA41      -0.2715
     28  CB        44.8790  -46.2570   36.6210 C.3    41  ALA41       0.0334
     29  N         45.1110  -49.2550   38.3130 N.am   42  VAL42      -0.1977
     30  CA        45.5750  -50.6120   38.0750 C.3    42  VAL42       0.1596
     31  C         45.0790  -51.0650   36.7120 C.2    42  VAL42       0.2287
     32  O         43.8990  -50.8970   36.3530 O.2    42  VAL42      -0.2864
     33  CB        45.1600  -51.5490   39.2200 C.3    42  VAL42       0.0276
     34  CG1       45.8760  -52.8770   39.0660 C.3    42  VAL42       0.0022
     35  CG2       45.5550  -50.8810   40.5390 C.3    42  VAL42       0.0022
     36  N         46.0210  -43.1360   46.2600 N.3    76  TYR76      -0.1228
     37  CA        44.7240  -42.6060   45.8390 C.3    76  TYR76       0.1721
     38  C         44.2310  -43.3110   44.6020 C.2    76  TYR76       0.2437
     39  O         44.6660  -42.9850   43.4790 O.2    76  TYR76      -0.2733
     40  CB        44.8530  -41.0950   45.5630 C.3    76  TYR76       0.0547
     41  CG        43.5180  -40.3710   45.6040 C.ar   76  TYR76      -0.0200
     42  CD1       42.6010  -40.4810   44.5740 C.ar   76  TYR76      -0.0009
     43  CD2       43.1910  -39.5470   46.6950 C.ar   76  TYR76      -0.0009
     44  CE1       41.3570  -39.8350   44.6120 C.ar   76  TYR76       0.0417
     45  CE2       41.9800  -38.8700   46.7450 C.ar   76  TYR76       0.0417
     46  CZ        41.0460  -39.0290   45.7220 C.ar   76  TYR76       0.1957
     47  OH        39.8300  -38.3570   45.7810 O.3    76  TYR76      -0.2866
     48  N         43.3040  -44.2790   44.7530 N.am   77  PRO77      -0.2718
     49  CA        42.8550  -45.0160   43.5720 C.3    77  PRO77       0.1535
     50  C         42.2650  -44.0200   42.5480 C.2    77  PRO77       0.2599
     51  O         41.4290  -43.1620   42.9200 O.2    77  PRO77      -0.2715
     52  CB        41.7730  -45.9390   44.1340 C.3    77  PRO77       0.0310
     53  CG        42.0920  -46.0730   45.5870 C.3    77  PRO77       0.0237
     54  CD        42.5970  -44.7110   45.9790 C.3    77  PRO77       0.0939
     55  N         42.6200  -44.1650   41.2720 N.am   78  TYR78      -0.1960
     56  CA        42.2230  -43.1530   40.3250 C.3    78  TYR78       0.1771
     57  C         42.1400  -43.7370   38.9170 C.2    78  TYR78       0.2619
     58  O         43.1050  -43.7320   38.1810 O.2    78  TYR78      -0.2715
     59  CB        43.1580  -41.9330   40.3560 C.3    78  TYR78       0.0574
     60  CG        42.4170  -40.6390   40.0510 C.ar   78  TYR78      -0.0198
     61  CD1       41.5600  -40.0900   40.9880 C.ar   78  TYR78      -0.0009
     62  CD2       42.5160  -40.0210   38.8310 C.ar   78  TYR78      -0.0009
     63  CE1       40.8410  -38.9280   40.7360 C.ar   78  TYR78       0.0417
     64  CE2       41.7750  -38.8730   38.5540 C.ar   78  TYR78       0.0417
     65  CZ        40.9510  -38.3260   39.5290 C.ar   78  TYR78       0.1957
     66  OH        40.2380  -37.1780   39.2920 O.3    78  TYR78      -0.2866
     67  N         40.9470  -44.1960   38.5810 N.am   79  ALA79      -0.1963
     68  CA        40.7670  -45.1030   37.4270 C.3    79  ALA79       0.1728
     69  C         40.8420  -44.3200   36.1490 C.2    79  ALA79       0.2616
     70  O         41.0390  -44.8840   35.0680 O.2    79  ALA79      -0.2715
     71  CB        39.4540  -45.8640   37.5510 C.3    79  ALA79       0.0334
     72  N         40.7420  -42.9940   36.2800 N.am   80  HIS80      -0.1973
     73  CA        40.7720  -42.0680   35.1310 C.3    80  HIS80       0.1656
     74  C         42.0820  -41.9540   34.4460 C.2    80  HIS80       0.2291
     75  O         42.1500  -41.3880   33.3590 O.2    80  HIS80      -0.2864
     76  CB        40.2670  -40.6880   35.5590 C.3    80  HIS80       0.0771
     77  CG        38.8540  -40.7320   36.0790 C.ar   80  HIS80       0.0820
     78  ND1       38.5290  -40.4810   37.3780 N.ar   80  HIS80      -0.2267
     79  CD2       37.6730  -41.0830   35.4380 C.ar   80  HIS80       0.1154
     80  CE1       37.1850  -40.6280   37.5270 C.ar   80  HIS80       0.1986
     81  NE2       36.6720  -40.9920   36.3450 N.ar   80  HIS80      -0.2212
     82  N         41.7570  -50.6970   32.1380 N.3    85  LEU85      -0.1231
     83  CA        41.7240  -51.0730   33.5570 C.3    85  LEU85       0.1693
     84  C         41.7030  -52.5490   33.8690 C.2    85  LEU85       0.2592
     85  O         41.2410  -53.3500   33.0610 O.2    85  LEU85      -0.2718
     86  CB        40.5300  -50.4500   34.2240 C.3    85  LEU85       0.0284
     87  CG        40.4940  -48.9330   34.1120 C.3    85  LEU85       0.0019
     88  CD1       39.1330  -48.4690   34.6160 C.3    85  LEU85       0.0001
     89  CD2       41.6380  -48.2610   34.8880 C.3    85  LEU85       0.0001
     90  N         42.2210  -52.8840   35.0520 N.am   86  SER86      -0.1952
     91  CA        42.1010  -54.2190   35.6370 C.3    86  SER86       0.1924
     92  C         40.6510  -54.4090   36.1270 C.2    86  SER86       0.2314
     93  O         39.8840  -53.4480   36.1950 O.2    86  SER86      -0.2863
     94  CB        43.0730  -54.4060   36.8220 C.3    86  SER86       0.2116
     95  OG        42.6370  -53.5940   37.9310 O.3    86  SER86      -0.2180
     96  N         38.0380  -54.9520   39.2050 N.3    88  PRO88      -0.2116
     97  CA        38.1020  -54.2510   40.4970 C.3    88  PRO88       0.1372
     98  C         38.7500  -55.1250   41.5760 C.2    88  PRO88       0.2244
     99  O         39.3900  -54.6070   42.5080 O.2    88  PRO88      -0.2868
    100  CB        36.6380  -53.9710   40.8370 C.3    88  PRO88       0.0268
    101  CG        35.8520  -54.2020   39.5880 C.3    88  PRO88       0.0207
    102  CD        36.6660  -55.1200   38.7050 C.3    88  PRO88       0.0892
    103  N         42.3530  -54.7020   41.3370 N.3    91  ALA91      -0.1245
    104  CA        42.7610  -53.3380   41.5730 C.3    91  ALA91       0.1562
    105  C         42.8510  -53.1400   43.0760 C.2    91  ALA91       0.2260
    106  O         43.8490  -52.6180   43.5860 O.2    91  ALA91      -0.2867
    107  CB        41.7770  -52.3710   40.9700 C.3    91  ALA91       0.0290
    108  N         46.2870  -52.2130   45.3050 N.3    95  LEU95      -0.1245
    109  CA        46.2820  -50.9660   45.9640 C.3    95  LEU95       0.1561
    110  C         46.5070  -51.1740   47.4620 C.2    95  LEU95       0.2260
    111  O         47.3040  -50.4770   48.0440 O.2    95  LEU95      -0.2867
    112  CB        44.9640  -50.2260   45.6650 C.3    95  LEU95       0.0270
    113  CG        44.9240  -49.6890   44.2040 C.3    95  LEU95       0.0019
    114  CD1       43.5130  -49.2290   43.9590 C.3    95  LEU95       0.0001
    115  CD2       45.8260  -48.4560   44.0600 C.3    95  LEU95       0.0001
    116  N         38.5570  -47.2860   48.2080 N.3   114  PHE114     -0.1227
    117  CA        38.4090  -47.7510   46.8250 C.3   114  PHE114      0.1736
    118  C         36.9420  -47.9020   46.4900 C.2   114  PHE114      0.2596
    119  O         36.1530  -48.3830   47.3240 O.2   114  PHE114     -0.2718
    120  CB        39.0920  -49.1390   46.7410 C.3   114  PHE114      0.0547
    121  CG        38.9750  -49.7890   45.4120 C.ar  114  PHE114     -0.0202
    122  CD1       39.9160  -49.5570   44.4150 C.ar  114  PHE114     -0.0042
    123  CD2       37.9010  -50.6150   45.1330 C.ar  114  PHE114     -0.0042
    124  CE1       39.8040  -50.1850   43.1760 C.ar  114  PHE114     -0.0003
    125  CE2       37.7780  -51.2190   43.8880 C.ar  114  PHE114     -0.0003
    126  CZ        38.7330  -51.0130   42.9110 C.ar  114  PHE114     -0.0000
    127  N         36.5570  -47.4970   45.2950 N.am  115  GLY115     -0.1942
    128  CA        35.2040  -47.7840   44.8440 C.3   115  GLY115      0.2014
    129  C         34.2180  -46.7480   45.3290 C.2   115  GLY115      0.2639
    130  O         33.0280  -46.9350   45.1670 O.2   115  GLY115     -0.2714
    131  N         34.7020  -45.6830   45.9870 N.am  116  TRP116     -0.1959
    132  CA        33.8560  -44.5610   46.4090 C.3   116  TRP116      0.1771
    133  C         34.0780  -43.3390   45.5720 C.2   116  TRP116      0.2620
    134  O         35.2130  -43.0890   45.1480 O.2   116  TRP116     -0.2715
    135  CB        34.1870  -44.1870   47.8370 C.3   116  TRP116      0.0590
    136  CG        33.7540  -45.2060   48.8310 C.ar  116  TRP116      0.0006
    137  CD1       34.3360  -46.4510   49.1090 C.ar  116  TRP116      0.0946
    138  CD2       32.6110  -45.0900   49.7470 C.ar  116  TRP116      0.0152
    139  NE1       33.6420  -47.0920   50.1100 N.ar  116  TRP116     -0.2442
    140  CE2       32.6070  -46.3210   50.5500 C.ar  116  TRP116      0.0810
    141  CE3       31.6510  -44.1240   49.9750 C.ar  116  TRP116      0.0012
    142  CZ2       31.6270  -46.5650   51.5230 C.ar  116  TRP116      0.0191
    143  CZ3       30.6910  -44.3540   50.9840 C.ar  116  TRP116      0.0001
    144  CH2       30.6870  -45.5420   51.7300 C.ar  116  TRP116      0.0015
    145  N         33.0110  -42.5860   45.2970 N.am  117  TYR117     -0.1960
    146  CA        33.1800  -41.2180   44.7280 C.3   117  TYR117      0.1771
    147  C         33.7230  -40.3500   45.8460 C.2   117  TYR117      0.2619
    148  O         33.3460  -40.5310   47.0080 O.2   117  TYR117     -0.2715
    149  CB        31.8690  -40.6510   44.1210 C.3   117  TYR117      0.0574
    150  CG        31.4470  -41.4070   42.8980 C.ar  117  TYR117     -0.0198
    151  CD1       32.0800  -41.2110   41.6780 C.ar  117  TYR117     -0.0009
    152  CD2       30.4320  -42.3710   42.9670 C.ar  117  TYR117     -0.0009
    153  CE1       31.7070  -41.9430   40.5380 C.ar  117  TYR117      0.0417
    154  CE2       30.0530  -43.0970   41.8440 C.ar  117  TYR117      0.0417
    155  CZ        30.6820  -42.8780   40.6330 C.ar  117  TYR117      0.1957
    156  OH        30.3060  -43.6190   39.5290 O.3   117  TYR117     -0.2866
    157  N         34.6520  -39.4400   45.5540 N.am  118  LYS118     -0.1977
    158  CA        35.2970  -38.6800   46.6480 C.3   118  LYS118      0.1596
    159  C         35.4620  -37.2410   46.2430 C.2   118  LYS118      0.2287
    160  O         35.9710  -36.9870   45.1380 O.2   118  LYS118     -0.2864
    161  CB        36.7140  -39.2110   46.9540 C.3   118  LYS118      0.0298
    162  CG        36.7160  -40.5270   47.7180 C.3   118  LYS118      0.0038
    163  CD        38.1240  -41.0310   47.9810 C.3   118  LYS118      0.0206
    164  CE        38.7410  -41.5730   46.6970 C.3   118  LYS118      0.1093
    165  NZ        38.0550  -42.8010   46.1980 N.3   118  LYS118     -0.1314
@<TRIPOS>BOND
     1    82    83    1
     2    85    84    2
     3    75    74    2
     4    83    84    1
     5    83    86    1
     6    84    90   am
     7    87    86    1
     8    87    88    1
     9    87    89    1
    10    74    73    1
    11    90    91    1
    12    70    69    2
    13    73    76    1
    14    73    72    1
    15    79    77   ar
    16    79    81   ar
    17    76    77    1
    18    91    92    1
    19    91    94    1
    20    77    78   ar
    21    92    93    2
    22    69    72   am
    23    69    68    1
    24    81    80   ar
    25    32    31    2
    26    28    25    1
    27    31    30    1
    28    94    95    1
    29    27    26    2
    30    78    80   ar
    31    68    71    1
    32    68    67    1
    33    26    25    1
    34    26    29   am
    35    25    24    1
    36    30    29    1
    37    30    33    1
    38    58    57    2
    39    64    62   ar
    40    64    65   ar
    41    67    57   am
    42   102    96    1
    43   102   101    1
    44    24    18   am
    45    62    60   ar
    46    57    56    1
    47    34    33    1
    48    96    97    1
    49    33    35    1
    50    66    65    1
    51    65    63   ar
    52   156   155    1
    53   101   100    1
    54    18    17    1
    55    18    19    2
    56    60    59    1
    57    60    61   ar
    58    56    59    1
    59    56    55    1
    60    97   100    1
    61    97    98    1
    62   153   155   ar
    63   153   151   ar
    64    17    16    1
    65    17    20    1
    66   155   154   ar
    67    63    61   ar
    68   107   104    1
    69    22    20    1
    70    55    50   am
    71   103   104    1
    72    15    13    1
    73   104   105    1
    74    98    99    2
    75   151   150   ar
    76    20    21    1
    77   154   152   ar
    78    14    12    1
    79    13    12    1
    80    21    23    1
    81     7     5    1
    82    50    51    2
    83    50    49    1
    84     5     6    1
    85     5     2    1
    86    12     9    1
    87   150   152   ar
    88   150   149    1
    89   126   124   ar
    90   126   125   ar
    91   105   106    2
    92   124   122   ar
    93    39    38    2
    94    49    52    1
    95    49    48    1
    96     2     3    1
    97     2     1    1
    98     8     9    1
    99   125   123   ar
   100   114   113    1
   101   115   113    1
   102     9    10    1
   103   149   146    1
   104    52    53    1
   105     3     4    2
   106   113   112    1
   107   122   121   ar
   108    42    44   ar
   109    42    41   ar
   110    38    48   am
   111    38    37    1
   112    44    46   ar
   113   146   145    1
   114   146   147    1
   115    48    54    1
   116   128   127    1
   117   128   129    1
   118   123   121   ar
   119   160   159    2
   120   134   133    2
   121   130   129    2
   122    10    11    2
   123   127   118   am
   124   145   133   am
   125   108   109    1
   126   129   131   am
   127   121   120    1
   128   157   147   am
   129   157   158    1
   130    40    41    1
   131    40    37    1
   132   133   132    1
   133    53    54    1
   134    41    43   ar
   135   112   109    1
   136    46    47    1
   137    46    45   ar
   138    37    36    1
   139   147   148    2
   140   109   110    1
   141   131   132    1
   142   165   164    1
   143   159   158    1
   144   132   135    1
   145   118   117    1
   146   118   119    2
   147   158   161    1
   148    43    45   ar
   149   164   163    1
   150   120   117    1
   151   117   116    1
   152   161   162    1
   153   110   111    2
   154   162   163    1
   155   135   136    1
   156   136   137   ar
   157   136   138   ar
   158   137   139   ar
   159   138   141   ar
   160   138   140   ar
   161   141   143   ar
   162   139   140   ar
   163   140   142   ar
   164   143   144   ar
   165   142   144   ar
