@<TRIPOS>MOLECULE
tmp/4rrjA00.pdb
 160 159 0 0 0
SMALL
GASTEIGER

@<TRIPOS>ATOM
      1  N         15.7200    8.3720   36.7570 N.3    19  ALA19      -0.1231
      2  CA        16.0080    7.0340   37.2860 C.3    19  ALA19       0.1694
      3  C         17.4810    6.6320   37.1480 C.2    19  ALA19       0.2591
      4  O         17.8430    5.4880   37.4470 O.2    19  ALA19      -0.2718
      5  CB        15.1020    5.9980   36.6390 C.3    19  ALA19       0.0304
      6  N         18.3150    7.5710   36.6840 N.am   20  LEU20      -0.1980
      7  CA        19.7720    7.3910   36.6250 C.3    20  LEU20       0.1596
      8  C         20.4290    8.3400   37.6440 C.2    20  LEU20       0.2287
      9  O         20.1380    8.2720   38.8370 O.2    20  LEU20      -0.2864
     10  CB        20.3110    7.5950   35.1870 C.3    20  LEU20       0.0297
     11  CG        19.8590    6.7120   33.9950 C.3    20  LEU20       0.0022
     12  CD1       20.4100    7.2340   32.6710 C.3    20  LEU20       0.0001
     13  CD2       20.2010    5.2280   34.1490 C.3    20  LEU20       0.0001
     14  N         11.3910   -0.8710   23.9440 N.3    40  THR40      -0.1218
     15  CA        12.6820   -1.3510   23.4570 C.3    40  THR40       0.1862
     16  C         13.6800   -1.5810   24.5960 C.2    40  THR40       0.2287
     17  O         14.0790   -0.6190   25.2680 O.2    40  THR40      -0.2866
     18  CB        13.2860   -0.3670   22.4340 C.3    40  THR40       0.1770
     19  OG1       12.3500   -0.1710   21.3650 O.3    40  THR40      -0.2211
     20  CG2       14.6330   -0.8980   21.8400 C.3    40  THR40       0.0375
     21  N         17.4710   -2.8370   25.4150 N.3    42  VAL42      -0.1245
     22  CA        18.7730   -3.0810   24.8090 C.3    42  VAL42       0.1561
     23  C         19.4790   -4.1420   25.6300 C.2    42  VAL42       0.2260
     24  O         19.5510   -4.0620   26.8520 O.2    42  VAL42      -0.2867
     25  CB        19.6140   -1.7930   24.7000 C.3    42  VAL42       0.0252
     26  CG1       20.9590   -2.0830   24.0280 C.3    42  VAL42       0.0019
     27  CG2       18.8830   -0.7400   23.8850 C.3    42  VAL42       0.0019
     28  N         10.3350    3.7020   22.5510 N.3    73  TYR73      -0.1228
     29  CA        10.1390    3.9180   23.9910 C.3    73  TYR73       0.1721
     30  C         11.1420    3.0460   24.7900 C.2    73  TYR73       0.2437
     31  O         10.9610    1.8340   24.8660 O.2    73  TYR73      -0.2733
     32  CB         8.6850    3.5840   24.3380 C.3    73  TYR73       0.0547
     33  CG         8.2700    4.1350   25.6710 C.ar   73  TYR73      -0.0200
     34  CD1        8.3260    3.3520   26.8230 C.ar   73  TYR73      -0.0009
     35  CD2        7.7850    5.4340   25.7690 C.ar   73  TYR73      -0.0009
     36  CE1        7.9450    3.8790   28.0740 C.ar   73  TYR73       0.0417
     37  CE2        7.3620    5.9820   26.9920 C.ar   73  TYR73       0.0417
     38  CZ         7.4440    5.2080   28.1410 C.ar   73  TYR73       0.1957
     39  OH         7.0650    5.7630   29.3350 O.3    73  TYR73      -0.2866
     40  N         12.2500    3.6500   25.3330 N.am   74  PRO74      -0.2718
     41  CA        13.2710    2.8840   26.0890 C.3    74  PRO74       0.1535
     42  C         12.6100    2.0960   27.2100 C.2    74  PRO74       0.2599
     43  O         11.7440    2.6200   27.8860 O.2    74  PRO74      -0.2715
     44  CB        14.1660    3.9960   26.6960 C.3    74  PRO74       0.0310
     45  CG        14.0510    5.1170   25.7250 C.3    74  PRO74       0.0237
     46  CD        12.5850    5.0890   25.2980 C.3    74  PRO74       0.0939
     47  N         12.9370    0.8330   27.3700 N.am   75  TYR75      -0.1960
     48  CA        12.2190    0.0920   28.3900 C.3    75  TYR75       0.1771
     49  C         13.1530   -0.9180   28.9430 C.2    75  TYR75       0.2619
     50  O         13.7620   -1.6530   28.1840 O.2    75  TYR75      -0.2715
     51  CB        11.0220   -0.5950   27.8080 C.3    75  TYR75       0.0574
     52  CG         9.8820   -0.7420   28.7910 C.ar   75  TYR75      -0.0198
     53  CD1        9.2550    0.3760   29.3390 C.ar   75  TYR75      -0.0009
     54  CD2        9.4080   -1.9990   29.1350 C.ar   75  TYR75      -0.0009
     55  CE1        8.1930    0.2440   30.2180 C.ar   75  TYR75       0.0417
     56  CE2        8.3360   -2.1430   30.0050 C.ar   75  TYR75       0.0417
     57  CZ         7.7400   -1.0340   30.5470 C.ar   75  TYR75       0.1957
     58  OH         6.6810   -1.2030   31.4200 O.3    75  TYR75      -0.2866
     59  N         13.2970   -0.9240   30.2650 N.am   76  ALA76      -0.1963
     60  CA        14.2690   -1.7660   30.9200 C.3    76  ALA76       0.1728
     61  C         13.7550   -3.1780   31.2040 C.2    76  ALA76       0.2616
     62  O         14.5350   -4.0500   31.5820 O.2    76  ALA76      -0.2715
     63  CB        14.7280   -1.1140   32.2160 C.3    76  ALA76       0.0334
     64  N         12.4640   -3.4240   30.9960 N.am   77  HIS77      -0.1973
     65  CA        11.8250   -4.5990   31.6310 C.3    77  HIS77       0.1656
     66  C         11.5220   -5.8330   30.8320 C.2    77  HIS77       0.2291
     67  O         10.9170   -6.7780   31.3490 O.2    77  HIS77      -0.2864
     68  CB        10.5810   -4.1080   32.3400 C.3    77  HIS77       0.0771
     69  CG        10.8940   -3.1170   33.3950 C.ar   77  HIS77       0.0820
     70  ND1       10.6200   -1.8090   33.2610 N.ar   77  HIS77      -0.2267
     71  CD2       11.5580   -3.2680   34.6090 C.ar   77  HIS77       0.1154
     72  CE1       11.0640   -1.1580   34.3490 C.ar   77  HIS77       0.1986
     73  NE2       11.6360   -2.0550   35.1720 N.ar   77  HIS77      -0.2212
     74  N         20.3180   -7.1780   30.3330 N.3    82  LEU82      -0.1231
     75  CA        20.3550   -5.7550   29.9400 C.3    82  LEU82       0.1693
     76  C         21.7330   -5.2970   29.5600 C.2    82  LEU82       0.2591
     77  O         22.7380   -5.7080   30.1900 O.2    82  LEU82      -0.2718
     78  CB        19.8800   -4.8530   31.0640 C.3    82  LEU82       0.0284
     79  CG        18.4930   -4.2610   31.0350 C.3    82  LEU82       0.0019
     80  CD1       17.4740   -5.3840   31.0170 C.3    82  LEU82       0.0001
     81  CD2       18.2840   -3.3120   32.2240 C.3    82  LEU82       0.0001
     82  N         21.7960   -4.4270   28.5530 N.am   83  ALA83      -0.1980
     83  CA        23.0140   -3.6180   28.3440 C.3    83  ALA83       0.1597
     84  C         23.0600   -2.5280   29.4120 C.2    83  ALA83       0.2287
     85  O         22.0300   -2.1380   29.9730 O.2    83  ALA83      -0.2864
     86  CB        23.0580   -3.0030   26.9430 C.3    83  ALA83       0.0319
     87  N         23.4820    1.2300   30.9200 N.3    85  PRO85      -0.2116
     88  CA        22.6720    2.3650   30.4650 C.3    85  PRO85       0.1372
     89  C         23.3350    3.1680   29.3550 C.2    85  PRO85       0.2244
     90  O         22.6660    3.5800   28.4200 O.2    85  PRO85      -0.2868
     91  CB        22.5560    3.2400   31.7200 C.3    85  PRO85       0.0268
     92  CG        22.7270    2.3110   32.8470 C.3    85  PRO85       0.0207
     93  CD        23.6670    1.2280   32.3870 C.3    85  PRO85       0.0892
     94  N         23.0990    1.2680   26.2330 N.3    88  ALA88      -0.1245
     95  CA        21.6730    1.1940   25.8400 C.3    88  ALA88       0.1562
     96  C         21.2040    2.4970   25.1940 C.2    88  ALA88       0.2260
     97  O         20.5020    2.4880   24.1760 O.2    88  ALA88      -0.2867
     98  CB        20.7760    0.8130   27.0420 C.3    88  ALA88       0.0290
     99  N         19.9110    2.8610   21.3060 N.3    92  LEU92      -0.1245
    100  CA        18.6140    3.5220   21.0560 C.3    92  LEU92       0.1561
    101  C         18.6710    4.7110   20.1110 C.2    92  LEU92       0.2260
    102  O         17.8840    4.8250   19.1700 O.2    92  LEU92      -0.2867
    103  CB        17.9690    3.9180   22.4060 C.3    92  LEU92       0.0270
    104  CG        17.1180    2.7310   22.9120 C.3    92  LEU92       0.0019
    105  CD1       16.8910    2.7320   24.4140 C.3    92  LEU92       0.0001
    106  CD2       15.7690    2.7010   22.1760 C.3    92  LEU92       0.0001
    107  N         15.4630    8.7980   27.4160 N.3   112  PHE112     -0.1227
    108  CA        16.0450    7.6440   28.0870 C.3   112  PHE112      0.1736
    109  C         16.3740    8.0140   29.5410 C.2   112  PHE112      0.2596
    110  O         16.8500    9.1150   29.7960 O.2   112  PHE112     -0.2718
    111  CB        17.3120    7.2460   27.3130 C.3   112  PHE112      0.0547
    112  CG        18.0450    6.0580   27.8560 C.ar  112  PHE112     -0.0202
    113  CD1       18.8930    6.1680   28.9710 C.ar  112  PHE112     -0.0042
    114  CD2       17.9470    4.8250   27.2230 C.ar  112  PHE112     -0.0042
    115  CE1       19.5940    5.0710   29.4560 C.ar  112  PHE112     -0.0003
    116  CE2       18.6390    3.7110   27.7180 C.ar  112  PHE112     -0.0003
    117  CZ        19.4730    3.8450   28.8250 C.ar  112  PHE112     -0.0000
    118  N         16.1380    7.0980   30.4800 N.am  113  GLY113     -0.1942
    119  CA        16.6370    7.2640   31.8670 C.3   113  GLY113      0.2014
    120  C         15.7630    8.0690   32.8100 C.2   113  GLY113      0.2639
    121  O         16.1240    8.3200   33.9730 O.2   113  GLY113     -0.2714
    122  N         14.6260    8.5230   32.3170 N.am  114  TRP114     -0.1959
    123  CA        13.6610    9.1960   33.1700 C.3   114  TRP114      0.1771
    124  C         12.6250    8.2230   33.5110 C.2   114  TRP114      0.2620
    125  O         12.1760    7.4950   32.6430 O.2   114  TRP114     -0.2715
    126  CB        12.9640   10.3150   32.4070 C.3   114  TRP114      0.0590
    127  CG        13.8640   11.4850   32.2370 C.ar  114  TRP114      0.0006
    128  CD1       14.7650   11.7270   31.1950 C.ar  114  TRP114      0.0946
    129  CD2       14.0140   12.6020   33.1610 C.ar  114  TRP114      0.0152
    130  NE1       15.4500   12.8900   31.4130 N.ar  114  TRP114     -0.2442
    131  CE2       15.0430   13.4720   32.5830 C.ar  114  TRP114      0.0810
    132  CE3       13.4200   12.9600   34.3740 C.ar  114  TRP114      0.0012
    133  CZ2       15.4370   14.6490   33.2020 C.ar  114  TRP114      0.0191
    134  CZ3       13.8370   14.1400   34.9890 C.ar  114  TRP114      0.0001
    135  CH2       14.8250   14.9630   34.4160 C.ar  114  TRP114      0.0015
    136  N         12.1890    8.1950   34.7670 N.am  115  ALA115     -0.1963
    137  CA        10.8630    7.6280   35.0410 C.3   115  ALA115      0.1728
    138  C          9.7970    8.3750   34.2160 C.2   115  ALA115      0.2616
    139  O          9.8790    9.6030   34.0080 O.2   115  ALA115     -0.2715
    140  CB        10.5400    7.7080   36.5380 C.3   115  ALA115      0.0334
    141  N          8.7820    7.6660   33.7260 N.am  116  LYS116     -0.1977
    142  CA         7.7370    8.3370   32.9760 C.3   116  LYS116      0.1596
    143  C          6.4060    7.7120   33.3140 C.2   116  LYS116      0.2287
    144  O          6.3290    6.5040   33.4870 O.2   116  LYS116     -0.2864
    145  CB         7.9660    8.1640   31.4520 C.3   116  LYS116      0.0298
    146  CG         9.1210    8.9790   30.8910 C.3   116  LYS116      0.0038
    147  CD         9.3160    8.7050   29.4060 C.3   116  LYS116      0.0206
    148  CE         9.9700    7.3540   29.1630 C.3   116  LYS116      0.1093
    149  NZ        11.2630    7.2260   29.8610 N.3   116  LYS116     -0.1314
    150  N          2.8000    7.0460   31.5330 N.3   118  PHE118     -0.1241
    151  CA         2.2870    7.0080   30.1610 C.3   118  PHE118      0.1605
    152  C          0.8600    6.5180   30.1390 C.2   118  PHE118      0.2264
    153  O          0.3720    5.9930   31.1480 O.2   118  PHE118     -0.2867
    154  CB         3.1650    6.1310   29.2540 C.3   118  PHE118      0.0534
    155  CG         3.0590    4.6500   29.5220 C.ar  118  PHE118     -0.0203
    156  CD1        3.9510    4.0320   30.3720 C.ar  118  PHE118     -0.0042
    157  CD2        2.0720    3.8800   28.8920 C.ar  118  PHE118     -0.0042
    158  CE1        3.8630    2.6680   30.6220 C.ar  118  PHE118     -0.0003
    159  CE2        1.9900    2.5080   29.1170 C.ar  118  PHE118     -0.0003
    160  CZ         2.8790    1.9060   29.9910 C.ar  118  PHE118     -0.0000
@<TRIPOS>BOND
     1   102   101    2
     2   101   100    1
     3   100    99    1
     4   100   103    1
     5    19    18    1
     6    20    18    1
     7   106   104    1
     8   103   104    1
     9    18    15    1
    10    28    29    1
    11   104   105    1
    12    15    14    1
    13    15    16    1
    14    27    25    1
    15    29    32    1
    16    29    30    1
    17    26    25    1
    18    97    96    2
    19    32    33    1
    20    16    17    2
    21    25    22    1
    22    30    31    2
    23    30    40   am
    24    22    21    1
    25    22    23    1
    26    96    95    1
    27    46    40    1
    28    46    45    1
    29    40    41    1
    30    23    24    2
    31    33    35   ar
    32    33    34   ar
    33    45    44    1
    34    35    37   ar
    35    95    94    1
    36    95    98    1
    37    41    44    1
    38    41    42    1
    39    34    36   ar
    40    86    83    1
    41    37    38   ar
    42    42    47   am
    43    42    43    2
    44   114   116   ar
    45   114   112   ar
    46   111   112    1
    47   111   108    1
    48    47    48    1
    49   107   108    1
    50   116   117   ar
    51    51    48    1
    52    51    52    1
    53   112   113   ar
    54    36    38   ar
    55   108   109    1
    56    38    39    1
    57    50    49    2
    58    83    82    1
    59    83    84    1
    60    48    49    1
    61    90    89    2
    62    82    76   am
    63    52    54   ar
    64    52    53   ar
    65   117   115   ar
    66   157   159   ar
    67   157   155   ar
    68    49    59   am
    69   113   115   ar
    70   159   160   ar
    71    54    56   ar
    72   148   147    1
    73   148   149    1
    74   154   155    1
    75   154   151    1
    76    53    55   ar
    77    89    88    1
    78   147   146    1
    79    84    85    2
    80   155   156   ar
    81   109   110    2
    82   109   118   am
    83    76    75    1
    84    76    77    2
    85    75    74    1
    86    75    78    1
    87   160   158   ar
    88    56    57   ar
    89   152   151    1
    90   152   153    2
    91   151   150    1
    92    55    57   ar
    93    59    60    1
    94   156   158   ar
    95    88    87    1
    96    88    91    1
    97   118   119    1
    98    57    58    1
    99    66    67    2
   100    66    65    1
   101   146   145    1
   102    87    93    1
   103    60    61    1
   104    60    63    1
   105    64    61   am
   106    64    65    1
   107    80    79    1
   108    79    78    1
   109    79    81    1
   110   128   130   ar
   111   128   127   ar
   112    61    62    2
   113   130   131   ar
   114   145   142    1
   115    65    68    1
   116    91    92    1
   117   119   120    1
   118   127   126    1
   119   127   129   ar
   120   122   120   am
   121   122   123    1
   122    68    69    1
   123    93    92    1
   124   126   123    1
   125   131   129   ar
   126   131   133   ar
   127   125   124    2
   128    12    11    1
   129   120   121    2
   130   142   143    1
   131   142   141    1
   132   129   132   ar
   133   123   124    1
   134   133   135   ar
   135    70    69   ar
   136    70    72   ar
   137   143   144    2
   138    69    71   ar
   139   124   136   am
   140   141   138   am
   141    11    13    1
   142    11    10    1
   143   139   138    2
   144   138   137    1
   145    72    73   ar
   146   132   134   ar
   147   135   134   ar
   148    71    73   ar
   149   136   137    1
   150   137   140    1
   151    10     7    1
   152     7     6    1
   153     7     8    1
   154     5     2    1
   155     6     3   am
   156     1     2    1
   157     3     2    1
   158     3     4    2
   159     8     9    2
