@<TRIPOS>MOLECULE
tmp/4rrnA00.pdb
 180 172 0 0 0
SMALL
GASTEIGER

@<TRIPOS>ATOM
      1  N         32.2440   23.8720   12.8810 N.3    13  GLY13      -0.1210
      2  CA        31.7700   23.4640   11.5590 C.3    13  GLY13       0.1956
      3  C         31.7410   21.9650   11.3120 C.2    13  GLY13       0.2612
      4  O         31.3960   21.5260   10.2130 O.2    13  GLY13      -0.2717
      5  N         32.1050   21.1810   12.3290 N.am   14  GLN14      -0.1965
      6  CA        32.2650   19.7250   12.1670 C.3    14  GLN14       0.1733
      7  C         31.3510   18.8990   13.0820 C.2    14  GLN14       0.2616
      8  O         31.4530   17.6750   13.1160 O.2    14  GLN14      -0.2715
      9  CB        33.7440   19.3140   12.3090 C.3    14  GLN14       0.0408
     10  CG        34.6590   20.0130   11.2940 C.3    14  GLN14       0.0908
     11  CD        36.0680   19.4400   11.2240 C.2    14  GLN14       0.2608
     12  OE1       36.6860   19.1510   12.2440 O.2    14  GLN14      -0.2717
     13  NE2       36.5960   19.3130   10.0080 N.am   14  GLN14      -0.0878
     14  N         30.4540   19.5830   13.7920 N.am   15  GLY15      -0.1955
     15  CA        29.4290   18.9390   14.6230 C.3    15  GLY15       0.1869
     16  C         29.8350   18.7740   16.0790 C.2    15  GLY15       0.2309
     17  O         31.0230   18.6630   16.3990 O.2    15  GLY15      -0.2863
     18  N         28.4370   11.9990   17.3790 N.3    32  LEU32      -0.1245
     19  CA        27.7880   13.2060   16.8660 C.3    32  LEU32       0.1561
     20  C         26.3440   13.3130   17.3370 C.2    32  LEU32       0.2260
     21  O         25.5540   12.3930   17.1310 O.2    32  LEU32      -0.2867
     22  CB        27.8250   13.1960   15.3340 C.3    32  LEU32       0.0270
     23  CG        27.1220   14.3270   14.5750 C.3    32  LEU32       0.0019
     24  CD1       27.8380   15.6640   14.7580 C.3    32  LEU32       0.0001
     25  CD2       27.0500   13.9490   13.1070 C.3    32  LEU32       0.0001
     26  N         22.8320   14.5060   16.8170 N.3    34  ASP34      -0.1239
     27  CA        22.1350   14.8750   15.5860 C.3    34  ASP34       0.1674
     28  C         20.6160   14.8530   15.7110 C.2    34  ASP34       0.2266
     29  O         20.0010   13.8060   15.6080 O.2    34  ASP34      -0.2867
     30  CB        22.5770   13.9440   14.4440 C.3    34  ASP34       0.1410
     31  CG        22.0250   14.3710   13.0930 C.2    34  ASP34       0.3668
     32  OD1       21.5090   15.5090   12.9820 O.co2  34  ASP34      -0.2456
     33  OD2       22.1220   13.5700   12.1400 O.co2  34  ASP34      -0.2456
     34  N         18.6520   15.8700   13.5440 N.3    36  GLY36      -0.1210
     35  CA        18.0870   15.7680   12.1880 C.3    36  GLY36       0.1956
     36  C         18.0960   14.3670   11.5960 C.2    36  GLY36       0.2612
     37  O         17.8590   14.2060   10.4000 O.2    36  GLY36      -0.2717
     38  N         18.3830   13.3600   12.4210 N.am   37  SER37      -0.1952
     39  CA        18.3490   11.9510   11.9790 C.3    37  SER37       0.1924
     40  C         17.9460   11.0290   13.1240 C.2    37  SER37       0.2314
     41  O         17.8230   11.4870   14.2620 O.2    37  SER37      -0.2863
     42  CB        19.7060   11.5290   11.4080 C.3    37  SER37       0.2116
     43  OG        20.6570   11.3910   12.4490 O.3    37  SER37      -0.2180
     44  N         22.4000    3.5830    3.9740 N.3    71  VAL71      -0.1245
     45  CA        21.9440    4.9520    4.2370 C.3    71  VAL71       0.1561
     46  C         22.6050    5.9680    3.3040 C.2    71  VAL71       0.2260
     47  O         23.6260    6.5780    3.6540 O.2    71  VAL71      -0.2867
     48  CB        22.1450    5.3380    5.7250 C.3    71  VAL71       0.0252
     49  CG1       21.5130    6.6940    6.0310 C.3    71  VAL71       0.0019
     50  CG2       21.5400    4.2770    6.6340 C.3    71  VAL71       0.0019
     51  N         22.6450    9.6090    1.3290 N.3    73  TYR73      -0.1241
     52  CA        22.1530   10.9700    1.5120 C.3    73  TYR73       0.1605
     53  C         22.8790   11.8610    0.5040 C.2    73  TYR73       0.2264
     54  O         23.7500   11.3850   -0.2240 O.2    73  TYR73      -0.2867
     55  CB        22.3450   11.4450    2.9650 C.3    73  TYR73       0.0534
     56  CG        23.7530   11.2810    3.4920 C.ar   73  TYR73      -0.0201
     57  CD1       24.1980   10.0540    3.9920 C.ar   73  TYR73      -0.0009
     58  CD2       24.6440   12.3570    3.4860 C.ar   73  TYR73      -0.0009
     59  CE1       25.4920    9.9050    4.4660 C.ar   73  TYR73       0.0417
     60  CE2       25.9370   12.2180    3.9590 C.ar   73  TYR73       0.0417
     61  CZ        26.3550   10.9910    4.4440 C.ar   73  TYR73       0.1957
     62  OH        27.6390   10.8590    4.9100 O.3    73  TYR73      -0.2866
     63  N         26.5020    5.9090    4.3900 N.3    78  TRP78      -0.1241
     64  CA        27.0930    4.9480    5.3010 C.3    78  TRP78       0.1605
     65  C         26.2680    3.6760    5.2370 C.2    78  TRP78       0.2264
     66  O         25.0810    3.7180    4.9310 O.2    78  TRP78      -0.2867
     67  CB        27.2300    5.5020    6.7280 C.3    78  TRP78       0.0550
     68  CG        25.9510    5.7790    7.4960 C.ar   78  TRP78       0.0003
     69  CD1       25.3690    7.0010    7.7080 C.ar   78  TRP78       0.0946
     70  CD2       25.1380    4.8240    8.1920 C.ar   78  TRP78       0.0152
     71  NE1       24.2330    6.8610    8.4740 N.ar   78  TRP78      -0.2442
     72  CE2       24.0690    5.5350    8.7830 C.ar   78  TRP78       0.0810
     73  CE3       25.2000    3.4300    8.3600 C.ar   78  TRP78       0.0012
     74  CZ2       23.0740    4.9040    9.5370 C.ar   78  TRP78       0.0191
     75  CZ3       24.1980    2.7980    9.1050 C.ar   78  TRP78       0.0001
     76  CH2       23.1540    3.5390    9.6880 C.ar   78  TRP78       0.0015
     77  N         32.3340    9.8090    2.4540 N.3   109  LYS109     -0.1231
     78  CA        32.1200   11.2110    2.8480 C.3   109  LYS109      0.1693
     79  C         31.1890   11.3420    4.0600 C.2   109  LYS109      0.2592
     80  O         30.3740   12.2660    4.1510 O.2   109  LYS109     -0.2718
     81  CB        31.6050   12.0390    1.6610 C.3   109  LYS109      0.0285
     82  CG        32.6340   12.2200    0.5520 C.3   109  LYS109      0.0035
     83  CD        32.0570   12.9610   -0.6480 C.3   109  LYS109      0.0206
     84  CE        31.4250   12.0080   -1.6570 C.3   109  LYS109      0.1093
     85  NZ        32.4050   11.0920   -2.3080 N.3   109  LYS109     -0.1314
     86  N         31.3110   10.3890    4.9770 N.am  110  PHE110     -0.1976
     87  CA        30.5760   10.4130    6.2210 C.3   110  PHE110      0.1639
     88  C         31.4870   10.9220    7.3380 C.2   110  PHE110      0.2290
     89  O         31.2470   11.9910    7.9070 O.2   110  PHE110     -0.2864
     90  CB        30.0160    9.0230    6.5390 C.3   110  PHE110      0.0560
     91  CG        29.2810    8.9510    7.8480 C.ar  110  PHE110     -0.0200
     92  CD1       28.0660    9.6010    8.0130 C.ar  110  PHE110     -0.0042
     93  CD2       29.8130    8.2400    8.9180 C.ar  110  PHE110     -0.0042
     94  CE1       27.3860    9.5370    9.2170 C.ar  110  PHE110     -0.0003
     95  CE2       29.1360    8.1670   10.1250 C.ar  110  PHE110     -0.0003
     96  CZ        27.9170    8.8180   10.2730 C.ar  110  PHE110     -0.0000
     97  N         34.6250   12.6960    9.1190 N.3   112  ILE112     -0.1245
     98  CA        35.3050   13.9510    8.8310 C.3   112  ILE112      0.1561
     99  C         36.6840   13.9400    9.4690 C.2   112  ILE112      0.2260
    100  O         36.8110   13.7660   10.6830 O.2   112  ILE112     -0.2867
    101  CB        34.4870   15.1660    9.3350 C.3   112  ILE112      0.0252
    102  CG1       33.1470   15.2470    8.5950 C.3   112  ILE112      0.0019
    103  CG2       35.2850   16.4580    9.1710 C.3   112  ILE112      0.0019
    104  CD1       32.2280   16.3600    9.0670 C.3   112  ILE112      0.0001
    105  N         34.8980   12.5820   16.0960 N.3   117  TRP117     -0.1241
    106  CA        33.7780   11.6720   16.3600 C.3   117  TRP117      0.1605
    107  C         33.7990   10.4270   15.4690 C.2   117  TRP117      0.2264
    108  O         34.2960   10.4530   14.3340 O.2   117  TRP117     -0.2867
    109  CB        32.4040   12.3910   16.3680 C.3   117  TRP117      0.0550
    110  CG        32.0250   13.2010   15.1400 C.ar  117  TRP117      0.0003
    111  CD1       32.0840   14.5600   15.0120 C.ar  117  TRP117      0.0946
    112  CD2       31.4890   12.7080   13.8980 C.ar  117  TRP117      0.0152
    113  NE1       31.6310   14.9450   13.7730 N.ar  117  TRP117     -0.2442
    114  CE2       31.2570   13.8320   13.0680 C.ar  117  TRP117      0.0810
    115  CE3       31.1880   11.4330   13.4070 C.ar  117  TRP117      0.0012
    116  CZ2       30.7510   13.7180   11.7640 C.ar  117  TRP117      0.0191
    117  CZ3       30.6770   11.3190   12.1060 C.ar  117  TRP117      0.0001
    118  CH2       30.4600   12.4610   11.3050 C.ar  117  TRP117      0.0015
    119  N         27.2680    8.4410   15.1320 N.3   120  ILE120     -0.1245
    120  CA        26.1870    9.4170   15.0720 C.3   120  ILE120      0.1561
    121  C         25.0170    8.9890   15.9700 C.2   120  ILE120      0.2260
    122  O         24.6190    7.8090   15.9880 O.2   120  ILE120     -0.2867
    123  CB        25.7280    9.6450   13.6050 C.3   120  ILE120      0.0252
    124  CG1       24.6810   10.7710   13.5230 C.3   120  ILE120      0.0019
    125  CG2       25.2330    8.3460   12.9710 C.3   120  ILE120      0.0019
    126  CD1       24.4350   11.2770   12.1160 C.3   120  ILE120      0.0001
    127  N         16.3290    4.3760    9.3720 N.3   130  ARG130     -0.1245
    128  CA        16.6130    3.3910    8.3320 C.3   130  ARG130      0.1563
    129  C         16.9110    2.0530    9.0130 C.2   130  ARG130      0.2260
    130  O         17.4730    2.0480   10.1090 O.2   130  ARG130     -0.2867
    131  CB        17.8100    3.8430    7.4940 C.3   130  ARG130      0.0307
    132  CG        17.6690    5.2390    6.8980 C.3   130  ARG130      0.0489
    133  CD        16.9530    5.2170    5.5570 C.3   130  ARG130      0.2205
    134  NE        16.7210    6.5650    5.0300 N.pl3 130  ARG130     -0.0865
    135  CZ        17.5900    7.2780    4.3090 C.cat 130  ARG130      0.5346
    136  NH1       18.7960    6.8040    4.0090 N.pl3 130  ARG130      0.1354
    137  NH2       17.2490    8.4910    3.8880 N.pl3 130  ARG130      0.1354
    138  N         17.8080   21.3730   13.6620 N.3   223  ASP223     -0.1225
    139  CA        18.7920   20.3350   13.3070 C.3   223  ASP223      0.1805
    140  C         20.2090   20.6200   13.8050 C.2   223  ASP223      0.2598
    141  O         20.9500   21.3750   13.1770 O.2   223  ASP223     -0.2718
    142  CB        18.8010   20.1270   11.7820 C.3   223  ASP223      0.1424
    143  CG        19.6980   18.9770   11.3400 C.2   223  ASP223      0.3668
    144  OD1       20.1430   18.1760   12.1960 O.co2 223  ASP223     -0.2456
    145  OD2       19.9550   18.8610   10.1160 O.co2 223  ASP223     -0.2456
    146  N         20.5970   19.9800   14.9080 N.am  224  SER224     -0.1938
    147  CA        21.9570   20.1300   15.4470 C.3   224  SER224      0.2055
    148  C         23.0250   19.5520   14.5070 C.2   224  SER224      0.2644
    149  O         24.2130   19.8620   14.6440 O.2   224  SER224     -0.2714
    150  CB        22.0630   19.4850   16.8290 C.3   224  SER224      0.2130
    151  OG        21.8650   18.0840   16.7450 O.3   224  SER224     -0.2179
    152  N         22.5920   18.7300   13.5520 N.am  225  GLY225     -0.1939
    153  CA        23.4880   18.1000   12.5730 C.3   225  GLY225      0.2014
    154  C         23.7040   18.8940   11.2900 C.2   225  GLY225      0.2640
    155  O         24.2480   18.3780   10.3040 O.2   225  GLY225     -0.2714
    156  N         23.2540   20.1460   11.2940 N.am  226  THR226     -0.1936
    157  CA        23.5130   21.0720   10.1960 C.3   226  THR226      0.2028
    158  C         24.2000   22.2890   10.7880 C.2   226  THR226      0.2642
    159  O         23.7300   22.8410   11.7890 O.2   226  THR226     -0.2714
    160  CB        22.2050   21.5090    9.4920 C.3   226  THR226      0.1808
    161  OG1       21.6320   20.3920    8.7980 O.3   226  THR226     -0.2208
    162  CG2       22.4580   22.6480    8.4960 C.3   226  THR226      0.0379
    163  N         25.3130   22.7090   10.1860 N.am  227  THR227     -0.1950
    164  CA        26.0480   23.8670   10.6890 C.3   227  THR227      0.1897
    165  C         25.2750   25.1660   10.4610 C.2   227  THR227      0.2313
    166  O         25.1430   26.0000   11.3670 O.2   227  THR227     -0.2863
    167  CB        27.4370   24.0000   10.0130 C.3   227  THR227      0.1794
    168  OG1       28.2210   22.8350   10.2890 O.3   227  THR227     -0.2208
    169  CG2       28.1740   25.2380   10.5250 C.3   227  THR227      0.0378
    170  N         19.8560   27.3090    7.0290 N.3   230  ARG230     -0.1245
    171  CA        19.5510   27.0490    5.6190 C.3   230  ARG230      0.1563
    172  C         18.1360   27.5160    5.3310 C.2   230  ARG230      0.2260
    173  O         17.2240   27.2620    6.1130 O.2   230  ARG230     -0.2867
    174  CB        19.7360   25.5650    5.2660 C.3   230  ARG230      0.0307
    175  CG        21.1200   25.0390    5.6360 C.3   230  ARG230      0.0489
    176  CD        21.4100   23.6480    5.0720 C.3   230  ARG230      0.2205
    177  NE        21.3920   23.6240    3.6060 N.pl3 230  ARG230     -0.0865
    178  CZ        20.7240   22.7400    2.8700 C.cat 230  ARG230      0.5346
    179  NH1       20.7650   22.8210    1.5460 N.pl3 230  ARG230      0.1354
    180  NH2       20.0210   21.7670    3.4440 N.pl3 230  ARG230      0.1354
@<TRIPOS>BOND
     1    85    84    1
     2    84    83    1
     3    83    82    1
     4    54    53    2
     5    53    52    1
     6    82    81    1
     7    51    52    1
     8    52    55    1
     9   179   178    1
    10    81    78    1
    11    77    78    1
    12    78    79    1
    13   178   180    1
    14   178   177    2
    15    55    56    1
    16    46    47    2
    17    46    45    1
    18    58    56   ar
    19    58    60   ar
    20    56    57   ar
    21   177   176    1
    22   137   135    1
    23    60    61   ar
    24    44    45    1
    25    57    59   ar
    26   136   135    1
    27    79    80    2
    28    79    86   am
    29    45    48    1
    30   135   134    2
    31    63    64    1
    32    61    59   ar
    33    61    62    1
    34    66    65    2
    35    86    87    1
    36   134   133    1
    37   176   175    1
    38    65    64    1
    39   174   171    1
    40   174   175    1
    41    64    67    1
    42   172   171    1
    43   172   173    2
    44   133   132    1
    45   171   170    1
    46    48    49    1
    47    48    50    1
    48    87    90    1
    49    87    88    1
    50    90    91    1
    51    67    68    1
    52   132   131    1
    53    88    89    2
    54   131   128    1
    55    68    69   ar
    56    68    70   ar
    57    69    71   ar
    58    91    92   ar
    59    91    93   ar
    60    92    94   ar
    61    70    73   ar
    62    70    72   ar
    63   128   129    1
    64   128   127    1
    65    73    75   ar
    66    71    72   ar
    67   162   160    1
    68   102   104    1
    69   102   101    1
    70    72    74   ar
    71   161   160    1
    72    98    97    1
    73    98   101    1
    74    98    99    1
    75    93    95   ar
    76   129   130    2
    77    75    76   ar
    78   103   101    1
    79    94    96   ar
    80    99   100    2
    81   160   157    1
    82    74    76   ar
    83    13    11   am
    84   167   168    1
    85   167   169    1
    86   167   164    1
    87   145   143   ar
    88    95    96   ar
    89   163   164    1
    90   163   158   am
    91   157   158    1
    92   157   156    1
    93     4     3    2
    94   155   154    2
    95    37    36    2
    96   165   164    1
    97   165   166    2
    98   158   159    2
    99    11    10    1
   100    11    12    2
   101   154   156   am
   102   154   153    1
   103    10     9    1
   104   118   116   ar
   105   118   117   ar
   106     3     2    1
   107     3     5   am
   108   143   142    1
   109   143   144   ar
   110    42    39    1
   111    42    43    1
   112     2     1    1
   113    36    35    1
   114    36    38   am
   115   116   114   ar
   116   142   139    1
   117    39    38    1
   118    39    40    1
   119   117   115   ar
   120   126   124    1
   121    33    31   ar
   122     6     9    1
   123     6     5    1
   124     6     7    1
   125    35    34    1
   126   153   152    1
   127   125   123    1
   128    32    31   ar
   129   114   113   ar
   130   114   112   ar
   131     7     8    2
   132     7    14   am
   133    31    30    1
   134    25    23    1
   135    40    41    2
   136   141   140    2
   137   139   138    1
   138   139   140    1
   139   115   112   ar
   140   124   123    1
   141   152   148   am
   142   123   120    1
   143   113   111   ar
   144    14    15    1
   145   140   146   am
   146   112   110   ar
   147   108   107    2
   148    30    27    1
   149   148   149    2
   150   148   147    1
   151    23    24    1
   152    23    22    1
   153    15    16    1
   154   146   147    1
   155   111   110   ar
   156   120   119    1
   157   120   121    1
   158   110   109    1
   159    22    19    1
   160   147   150    1
   161   107   106    1
   162    27    28    1
   163    27    26    1
   164    29    28    2
   165   121   122    2
   166    16    17    2
   167   105   106    1
   168   106   109    1
   169   151   150    1
   170    19    20    1
   171    19    18    1
   172    21    20    2
