@<TRIPOS>MOLECULE
tmp/4rrpA00.pdb
 100 96 0 0 0
SMALL
GASTEIGER

@<TRIPOS>ATOM
      1  N         21.6450   33.5950   18.3410 N.3    37  GLN37      -0.1245
      2  CA        20.4560   32.8270   18.6470 C.3    37  GLN37       0.1566
      3  C         20.6890   31.4150   18.1890 C.2    37  GLN37       0.2260
      4  O         21.0960   31.2100   17.0540 O.2    37  GLN37      -0.2867
      5  CB        19.2360   33.4310   17.9610 C.3    37  GLN37       0.0367
      6  CG        17.9760   32.5740   18.0080 C.3    37  GLN37       0.0905
      7  CD        16.9050   33.0830   17.0690 C.2    37  GLN37       0.2608
      8  OE1       16.9810   32.8740   15.8650 O.2    37  GLN37      -0.2717
      9  NE2       15.9180   33.7960   17.6170 N.am   37  GLN37      -0.0878
     10  N         18.7900   27.5030   18.0710 N.3    39  LYS39      -0.1245
     11  CA        17.6210   26.6200   18.2410 C.3    39  LYS39       0.1561
     12  C         18.0760   25.1710   18.3990 C.2    39  LYS39       0.2260
     13  O         19.1130   24.7860   17.8680 O.2    39  LYS39      -0.2867
     14  CB        16.6640   26.7690   17.0590 C.3    39  LYS39       0.0271
     15  CG        15.7540   27.9670   17.2620 C.3    39  LYS39       0.0035
     16  CD        14.8800   28.2840   16.0970 C.3    39  LYS39       0.0206
     17  CE        14.1060   29.5650   16.3910 C.3    39  LYS39       0.1093
     18  NZ        13.0700   29.9030   15.3570 N.3    39  LYS39      -0.1314
     19  N         22.9720   31.3720   15.0760 N.3    45  LYS45      -0.1231
     20  CA        22.9150   32.3610   13.9920 C.3    45  LYS45       0.1693
     21  C         23.2750   33.7080   14.5730 C.2    45  LYS45       0.2592
     22  O         22.8500   34.0190   15.6890 O.2    45  LYS45      -0.2718
     23  CB        21.5210   32.4310   13.3360 C.3    45  LYS45       0.0285
     24  CG        20.9940   31.1260   12.7320 C.3    45  LYS45       0.0035
     25  CD        19.9330   31.3970   11.6400 C.3    45  LYS45       0.0206
     26  CE        18.8890   30.2790   11.4920 C.3    45  LYS45       0.1093
     27  NZ        19.4890   28.9430   11.1930 N.3    45  LYS45      -0.1314
     28  N         24.0480   34.5070   13.8360 N.am   46  LEU46      -0.1966
     29  CA        24.4340   35.8250   14.3310 C.3    46  LEU46       0.1728
     30  C         23.2510   36.7730   14.2670 C.2    46  LEU46       0.2616
     31  O         22.4910   36.7620   13.3190 O.2    46  LEU46      -0.2715
     32  CB        25.6080   36.3880   13.5450 C.3    46  LEU46       0.0311
     33  CG        26.0790   37.8050   13.8830 C.3    46  LEU46       0.0022
     34  CD1       26.3650   37.9860   15.3670 C.3    46  LEU46       0.0001
     35  CD2       27.3040   38.1830   13.0660 C.3    46  LEU46       0.0001
     36  N         23.0920   37.5710   15.3060 N.am   47  LEU47      -0.1977
     37  CA        22.0350   38.5480   15.3570 C.3    47  LEU47       0.1596
     38  C         22.6210   39.9510   15.3040 C.2    47  LEU47       0.2287
     39  O         22.2940   40.7550   14.4300 O.2    47  LEU47      -0.2864
     40  CB        21.1980   38.3840   16.6300 C.3    47  LEU47       0.0297
     41  CG        20.3870   37.1090   16.8210 C.3    47  LEU47       0.0022
     42  CD1       19.7020   37.1490   18.1810 C.3    47  LEU47       0.0001
     43  CD2       19.3790   36.9020   15.6950 C.3    47  LEU47       0.0001
     44  N         20.0220   40.7570    7.4030 N.3    57  GLY57      -0.1210
     45  CA        19.0900   39.6420    7.3640 C.3    57  GLY57       0.1956
     46  C         18.2290   39.5440    8.6090 C.2    57  GLY57       0.2612
     47  O         17.0680   39.1530    8.5560 O.2    57  GLY57      -0.2717
     48  N         18.8020   39.9080    9.7420 N.am   58  VAL58      -0.1966
     49  CA        18.1090   39.7970   11.0060 C.3    58  VAL58       0.1712
     50  C         16.9760   40.8180   11.0910 C.2    58  VAL58       0.2458
     51  O         17.1500   41.9890   10.7330 O.2    58  VAL58      -0.2730
     52  CB        19.0900   39.9920   12.1730 C.3    58  VAL58       0.0289
     53  CG1       18.4050   39.7800   13.5160 C.3    58  VAL58       0.0023
     54  CG2       20.2260   39.0660   12.0120 C.3    58  VAL58       0.0023
     55  N         15.8090   40.3710   11.5700 N.am   59  PRO59      -0.2727
     56  CA        14.6240   41.2080   11.7650 C.3    59  PRO59       0.1402
     57  C         14.9260   42.3870   12.6420 C.2    59  PRO59       0.2269
     58  O         15.6360   42.2430   13.6080 O.2    59  PRO59      -0.2865
     59  CB        13.6390   40.2710   12.4520 C.3    59  PRO59       0.0296
     60  CG        14.0520   38.9070   12.0040 C.3    59  PRO59       0.0237
     61  CD        15.5410   38.9520   11.8700 C.3    59  PRO59       0.0939
     62  N         13.4940   43.8270   14.8940 N.3    61  ARG61      -0.1231
     63  CA        13.0500   43.8450   16.2990 C.3    61  ARG61       0.1694
     64  C         14.1910   43.4760   17.2580 C.2    61  ARG61       0.2592
     65  O         14.1260   43.7790   18.4480 O.2    61  ARG61      -0.2718
     66  CB        11.8470   42.9190   16.5360 C.3    61  ARG61       0.0321
     67  CG        12.0680   41.4570   16.1810 C.3    61  ARG61       0.0489
     68  CD        10.8060   40.6790   16.3770 C.3    61  ARG61       0.2205
     69  NE        10.9700   39.2500   16.1060 N.pl3  61  ARG61      -0.0865
     70  CZ        10.9890   38.7060   14.8900 C.cat  61  ARG61       0.5346
     71  NH1       10.8730   39.4690   13.8150 N.pl3  61  ARG61       0.1354
     72  NH2       11.1340   37.3990   14.7490 N.pl3  61  ARG61       0.1354
     73  N         15.2290   42.8230   16.7460 N.am   62  PHE62      -0.1976
     74  CA        16.4060   42.5660   17.5520 C.3    62  PHE62       0.1639
     75  C         17.3050   43.7880   17.5230 C.2    62  PHE62       0.2290
     76  O         17.6890   44.2360   16.4530 O.2    62  PHE62      -0.2864
     77  CB        17.1750   41.3540   17.0360 C.3    62  PHE62       0.0560
     78  CG        16.3990   40.0670   17.0760 C.ar   62  PHE62      -0.0200
     79  CD1       16.3770   39.2900   18.2130 C.ar   62  PHE62      -0.0042
     80  CD2       15.7270   39.6170   15.9580 C.ar   62  PHE62      -0.0042
     81  CE1       15.6780   38.1110   18.2390 C.ar   62  PHE62      -0.0003
     82  CE2       15.0360   38.4480   15.9900 C.ar   62  PHE62      -0.0003
     83  CZ        15.0150   37.6930   17.1320 C.ar   62  PHE62      -0.0000
     84  N          8.6490   32.7330   16.6960 N.3    81  GLU81      -0.1231
     85  CA         9.8360   32.0210   16.2430 C.3    81  GLU81       0.1699
     86  C         11.0910   32.4390   17.0300 C.2    81  GLU81       0.2592
     87  O         12.1800   31.9630   16.7620 O.2    81  GLU81      -0.2718
     88  CB        10.0530   32.2200   14.7390 C.3    81  GLU81       0.0402
     89  CG        10.2820   33.6660   14.2780 C.3    81  GLU81       0.1161
     90  CD         8.9860   34.4200   13.9930 C.2    81  GLU81       0.3649
     91  OE1        7.8900   33.9020   14.3530 O.co2  81  GLU81      -0.2457
     92  OE2        9.0680   35.5330   13.4080 O.co2  81  GLU81      -0.2457
     93  N         10.9100   33.2970   18.0280 N.am   82  ASP82      -0.1974
     94  CA        12.0080   33.8610   18.8160 C.3    82  ASP82       0.1709
     95  C         12.2850   33.1320   20.1180 C.2    82  ASP82       0.2293
     96  O         13.1390   33.5580   20.8890 O.2    82  ASP82      -0.2864
     97  CB        11.7150   35.3200   19.1710 C.3    82  ASP82       0.1436
     98  CG        11.6560   36.2090   17.9690 C.2    82  ASP82       0.3671
     99  OD1       12.0660   35.7550   16.8740 O.co2  82  ASP82      -0.2456
    100  OD2       11.2150   37.3680   18.1340 O.co2  82  ASP82      -0.2456
@<TRIPOS>BOND
     1    45    44    1
     2    45    46    1
     3    47    46    2
     4    46    48   am
     5    48    49    1
     6    51    50    2
     7    49    50    1
     8    49    52    1
     9    50    55   am
    10    27    26    1
    11    26    25    1
    12    55    56    1
    13    55    61    1
    14    25    24    1
    15    56    59    1
    16    56    57    1
    17    61    60    1
    18    60    59    1
    19    54    52    1
    20    52    53    1
    21    57    58    2
    22    24    23    1
    23    35    33    1
    24    31    30    2
    25    23    20    1
    26    92    90   ar
    27    32    33    1
    28    32    29    1
    29    71    70    1
    30    28    29    1
    31    28    21   am
    32    33    34    1
    33    20    21    1
    34    20    19    1
    35    90    89    1
    36    90    91   ar
    37    30    29    1
    38    30    36   am
    39    89    88    1
    40    39    38    2
    41    21    22    2
    42    88    85    1
    43    72    70    1
    44    70    69    2
    45    62    63    1
    46    38    37    1
    47    36    37    1
    48    18    17    1
    49    37    40    1
    50    43    41    1
    51     8     7    2
    52    80    82   ar
    53    80    78   ar
    54    82    83   ar
    55    16    17    1
    56    16    15    1
    57    69    68    1
    58    67    68    1
    59    67    66    1
    60    85    84    1
    61    85    86    1
    62    63    66    1
    63    63    64    1
    64    76    75    2
    65    40    41    1
    66    73    64   am
    67    73    74    1
    68    87    86    2
    69    41    42    1
    70    99    98   ar
    71    86    93   am
    72    77    78    1
    73    77    74    1
    74     4     3    2
    75    14    15    1
    76    14    11    1
    77     7     9   am
    78     7     6    1
    79    78    79   ar
    80    83    81   ar
    81    64    65    2
    82    75    74    1
    83    13    12    2
    84     5     6    1
    85     5     2    1
    86    98   100   ar
    87    98    97    1
    88    93    94    1
    89    10    11    1
    90     3     2    1
    91    79    81   ar
    92    11    12    1
    93     1     2    1
    94    94    97    1
    95    94    95    1
    96    95    96    2
