@<TRIPOS>MOLECULE
tmp/4rrtB01.pdb
 124 116 0 0 0
SMALL
GASTEIGER

@<TRIPOS>ATOM
      1  N        -40.8210  -21.6190  -36.0040 N.3    74  ILE74      -0.1245
      2  CA       -39.6410  -22.4320  -36.1240 C.3    74  ILE74       0.1561
      3  C        -39.5280  -23.1410  -34.7670 C.2    74  ILE74       0.2260
      4  O        -39.2570  -22.4880  -33.7340 O.2    74  ILE74      -0.2867
      5  CB       -38.4070  -21.5710  -36.4350 C.3    74  ILE74       0.0252
      6  CG1      -38.5310  -21.0090  -37.8670 C.3    74  ILE74       0.0019
      7  CG2      -37.1560  -22.3780  -36.2660 C.3    74  ILE74       0.0019
      8  CD1      -37.3340  -20.1020  -38.3120 C.3    74  ILE74       0.0001
      9  N        -37.1090  -22.1620  -31.8660 N.3    77  VAL77      -0.1245
     10  CA       -37.1190  -20.8550  -31.2050 C.3    77  VAL77       0.1561
     11  C        -38.5070  -20.3910  -30.7640 C.2    77  VAL77       0.2260
     12  O        -38.5940  -19.4220  -30.0240 O.2    77  VAL77      -0.2867
     13  CB       -36.4840  -19.7510  -32.0820 C.3    77  VAL77       0.0252
     14  CG1      -35.0120  -20.0400  -32.3490 C.3    77  VAL77       0.0019
     15  CG2      -37.3140  -19.5530  -33.3580 C.3    77  VAL77       0.0019
     16  N        -39.7330  -17.0960  -28.6070 N.3    81  PHE81      -0.1241
     17  CA       -40.3310  -15.9130  -29.1490 C.3    81  PHE81       0.1605
     18  C        -41.8380  -15.8880  -28.9270 C.2    81  PHE81       0.2264
     19  O        -42.4280  -14.8130  -28.7960 O.2    81  PHE81      -0.2867
     20  CB       -39.9960  -15.7990  -30.6630 C.3    81  PHE81       0.0534
     21  CG       -38.5560  -15.3820  -30.9310 C.ar   81  PHE81      -0.0203
     22  CD1      -38.1810  -14.0180  -30.9100 C.ar   81  PHE81      -0.0042
     23  CD2      -37.5870  -16.3450  -31.1770 C.ar   81  PHE81      -0.0042
     24  CE1      -36.8700  -13.6540  -31.1210 C.ar   81  PHE81      -0.0003
     25  CE2      -36.2620  -15.9890  -31.4170 C.ar   81  PHE81      -0.0003
     26  CZ       -35.8990  -14.6450  -31.4020 C.ar   81  PHE81      -0.0000
     27  N        -40.6980  -10.7650  -36.6140 N.3    87  ILE87      -0.1231
     28  CA       -40.5120  -11.9610  -37.3970 C.3    87  ILE87       0.1692
     29  C        -41.6130  -12.9740  -37.1060 C.2    87  ILE87       0.2592
     30  O        -42.2300  -13.5240  -38.0570 O.2    87  ILE87      -0.2718
     31  CB       -39.1940  -12.6080  -37.1080 C.3    87  ILE87       0.0266
     32  CG1      -38.0510  -11.6100  -37.4030 C.3    87  ILE87       0.0019
     33  CG2      -39.0620  -13.9100  -37.9810 C.3    87  ILE87       0.0020
     34  CD1      -36.6710  -12.1230  -36.9160 C.3    87  ILE87       0.0001
     35  N        -41.8860  -13.1870  -35.8070 N.am   88  PHE88      -0.1976
     36  CA       -42.7770  -14.2540  -35.4060 C.3    88  PHE88       0.1639
     37  C        -44.2000  -13.8800  -35.1590 C.2    88  PHE88       0.2290
     38  O        -44.9990  -14.7600  -34.9000 O.2    88  PHE88      -0.2864
     39  CB       -42.1630  -15.0940  -34.2850 C.3    88  PHE88       0.0560
     40  CG       -40.9170  -15.7430  -34.7350 C.ar   88  PHE88      -0.0200
     41  CD1      -40.9830  -16.7320  -35.7660 C.ar   88  PHE88      -0.0042
     42  CD2      -39.6690  -15.3160  -34.2680 C.ar   88  PHE88      -0.0042
     43  CE1      -39.8310  -17.3440  -36.2550 C.ar   88  PHE88      -0.0003
     44  CE2      -38.5020  -15.8890  -34.7700 C.ar   88  PHE88      -0.0003
     45  CZ       -38.5650  -16.9190  -35.7380 C.ar   88  PHE88      -0.0000
     46  N        -27.4940  -19.8850  -34.2380 N.3   176  PHE176     -0.1241
     47  CA       -27.8540  -20.0480  -35.6470 C.3   176  PHE176      0.1605
     48  C        -27.3950  -21.4340  -36.0780 C.2   176  PHE176      0.2264
     49  O        -28.1400  -22.1460  -36.7320 O.2   176  PHE176     -0.2867
     50  CB       -27.2610  -18.9360  -36.5580 C.3   176  PHE176      0.0534
     51  CG       -27.8620  -18.8580  -37.9870 C.ar  176  PHE176     -0.0203
     52  CD1      -29.2140  -19.0540  -38.2270 C.ar  176  PHE176     -0.0042
     53  CD2      -27.0460  -18.5460  -39.0800 C.ar  176  PHE176     -0.0042
     54  CE1      -29.7630  -18.9600  -39.5380 C.ar  176  PHE176     -0.0003
     55  CE2      -27.5530  -18.4440  -40.4110 C.ar  176  PHE176     -0.0003
     56  CZ       -28.9000  -18.6280  -40.6460 C.ar  176  PHE176     -0.0000
     57  N        -29.6990  -24.2030  -34.3870 N.3   179  ILE179     -0.1245
     58  CA       -31.0000  -24.2160  -35.0110 C.3   179  ILE179      0.1561
     59  C        -30.9620  -25.0180  -36.3190 C.2   179  ILE179      0.2260
     60  O        -31.9440  -25.7180  -36.6550 O.2   179  ILE179     -0.2867
     61  CB       -31.4630  -22.7670  -35.2960 C.3   179  ILE179      0.0252
     62  CG1      -31.8950  -22.0510  -33.9860 C.3   179  ILE179      0.0019
     63  CG2      -32.5890  -22.7120  -36.3200 C.3   179  ILE179      0.0019
     64  CD1      -31.9340  -20.5190  -34.1840 C.3   179  ILE179      0.0001
     65  N        -30.9930  -10.3740  -34.2770 N.3   267  PHE267     -0.1227
     66  CA       -30.6480  -11.6750  -34.7390 C.3   267  PHE267      0.1736
     67  C        -30.5340  -11.6200  -36.2350 C.2   267  PHE267      0.2595
     68  O        -29.4940  -11.8410  -36.7620 O.2   267  PHE267     -0.2718
     69  CB       -31.6470  -12.7340  -34.3240 C.3   267  PHE267      0.0547
     70  CG       -31.1030  -14.0960  -34.3980 C.ar  267  PHE267     -0.0202
     71  CD1      -31.1040  -14.7930  -35.5770 C.ar  267  PHE267     -0.0042
     72  CD2      -30.5520  -14.6790  -33.3170 C.ar  267  PHE267     -0.0042
     73  CE1      -30.5560  -16.0380  -35.6620 C.ar  267  PHE267     -0.0003
     74  CE2      -30.0110  -15.9220  -33.3970 C.ar  267  PHE267     -0.0003
     75  CZ       -30.0210  -16.6080  -34.5610 C.ar  267  PHE267     -0.0000
     76  N        -31.6360  -11.3040  -36.8790 N.am  268  ALA268     -0.1980
     77  CA       -31.7280  -11.1730  -38.3320 C.3   268  ALA268      0.1597
     78  C        -30.7080  -10.1790  -38.9150 C.2   268  ALA268      0.2287
     79  O        -30.0830  -10.4420  -39.9070 O.2   268  ALA268     -0.2864
     80  CB       -33.1150  -10.8030  -38.7310 C.3   268  ALA268      0.0319
     81  N        -26.8070  -12.1050  -38.2430 N.3   271  GLU271     -0.1231
     82  CA       -26.4170  -13.4330  -38.6590 C.3   271  GLU271      0.1699
     83  C        -26.6290  -13.7080  -40.1520 C.2   271  GLU271      0.2592
     84  O        -26.0450  -14.6270  -40.6870 O.2   271  GLU271     -0.2718
     85  CB       -27.2050  -14.3950  -37.8040 C.3   271  GLU271      0.0402
     86  CG       -26.4330  -15.5630  -37.2800 C.3   271  GLU271      0.1161
     87  CD       -25.0730  -15.1960  -36.8010 C.2   271  GLU271      0.3649
     88  OE1      -24.1210  -15.9730  -37.1010 O.co2 271  GLU271     -0.2457
     89  OE2      -24.9330  -14.1220  -36.1700 O.co2 271  GLU271     -0.2457
     90  N        -27.4960  -12.9350  -40.7970 N.am  272  THR272     -0.1953
     91  CA       -27.8390  -13.1730  -42.1740 C.3   272  THR272      0.1897
     92  C        -26.7100  -12.6240  -43.0570 C.2   272  THR272      0.2313
     93  O        -26.0190  -13.4040  -43.7610 O.2   272  THR272     -0.2863
     94  CB       -29.1670  -12.4730  -42.5910 C.3   272  THR272      0.1794
     95  OG1      -29.0590  -11.0980  -42.2880 O.3   272  THR272     -0.2208
     96  CG2      -30.3850  -13.0370  -41.9110 C.3   272  THR272      0.0378
     97  N        -31.2560  -19.0490  -46.5100 N.3   333  LEU333     -0.1245
     98  CA       -32.4320  -19.7340  -45.9470 C.3   333  LEU333      0.1561
     99  C        -33.1110  -20.5950  -47.0390 C.2   333  LEU333      0.2260
    100  O        -34.0450  -20.1380  -47.6720 O.2   333  LEU333     -0.2867
    101  CB       -33.4540  -18.7030  -45.3640 C.3   333  LEU333      0.0270
    102  CG       -32.8790  -17.7180  -44.3270 C.3   333  LEU333      0.0019
    103  CD1      -33.8360  -16.6110  -43.9140 C.3   333  LEU333      0.0001
    104  CD2      -32.3380  -18.4860  -43.0510 C.3   333  LEU333      0.0001
    105  N        -38.5530  -18.7390  -44.3590 N.3   337  VAL337     -0.1245
    106  CA       -39.1040  -18.8470  -43.0130 C.3   337  VAL337      0.1561
    107  C        -40.5450  -19.3570  -43.1540 C.2   337  VAL337      0.2260
    108  O        -41.2610  -18.9100  -44.0470 O.2   337  VAL337     -0.2867
    109  CB       -39.0830  -17.4510  -42.3050 C.3   337  VAL337      0.0252
    110  CG1      -39.7630  -17.4990  -40.9350 C.3   337  VAL337      0.0019
    111  CG2      -37.6660  -16.9600  -42.1580 C.3   337  VAL337      0.0019
    112  N        -38.3870   -9.8030  -46.7280 N.3   406  CYS406     -0.1235
    113  CA       -37.3900   -9.2790  -45.7840 C.3   406  CYS406      0.1677
    114  C        -37.4970   -7.7720  -45.6870 C.2   406  CYS406      0.2270
    115  O        -37.4800   -7.0520  -46.7110 O.2   406  CYS406     -0.2867
    116  CB       -35.9660   -9.7010  -46.2000 C.3   406  CYS406      0.0956
    117  SG       -34.6190   -9.0380  -45.2500 S.3   406  CYS406     -0.0801
    118  N        -32.6930  -24.8710  -41.5260 N.3   447  VAL447     -0.1245
    119  CA       -33.2300  -23.4920  -41.6250 C.3   447  VAL447      0.1561
    120  C        -32.2170  -22.5370  -42.2720 C.2   447  VAL447      0.2260
    121  O        -32.5770  -21.7490  -43.1660 O.2   447  VAL447     -0.2867
    122  CB       -33.6540  -22.9050  -40.1830 C.3   447  VAL447      0.0252
    123  CG1      -34.1130  -21.4320  -40.2920 C.3   447  VAL447      0.0019
    124  CG2      -34.7870  -23.8080  -39.5640 C.3   447  VAL447      0.0019
@<TRIPOS>BOND
     1   100    99    2
     2    99    98    1
     3   112   113    1
     4   115   114    2
     5    97    98    1
     6   116   113    1
     7   116   117    1
     8    98   101    1
     9   113   114    1
    10   101   102    1
    11   105   106    1
    12   102   103    1
    13   102   104    1
    14   108   107    2
    15    93    92    2
    16   121   120    2
    17   107   106    1
    18    92    91    1
    19   106   109    1
    20    94    95    1
    21    94    91    1
    22    94    96    1
    23   109   111    1
    24   109   110    1
    25   120   119    1
    26    91    90    1
    27   119   118    1
    28   119   122    1
    29    90    83   am
    30    84    83    2
    31    56    55   ar
    32    56    54   ar
    33    55    53   ar
    34   123   122    1
    35   122   124    1
    36    83    82    1
    37    79    78    2
    38    54    52   ar
    39    53    51   ar
    40    78    77    1
    41    80    77    1
    42    82    81    1
    43    82    85    1
    44    77    76    1
    45     8     6    1
    46    52    51   ar
    47    30    29    2
    48    51    50    1
    49    33    31    1
    50     6     5    1
    51    85    86    1
    52    32    31    1
    53    32    34    1
    54    28    31    1
    55    28    29    1
    56    28    27    1
    57    86    87    1
    58    29    35   am
    59    88    87   ar
    60    76    67   am
    61    87    89   ar
    62    68    67    2
    63    49    48    2
    64    60    59    2
    65    50    47    1
    66     5     7    1
    67     5     2    1
    68    63    61    1
    69    59    58    1
    70    43    41   ar
    71    43    45   ar
    72    67    66    1
    73     2     1    1
    74     2     3    1
    75    48    47    1
    76    35    36    1
    77    41    40   ar
    78    45    44   ar
    79    73    71   ar
    80    73    75   ar
    81    47    46    1
    82    71    70   ar
    83    36    37    1
    84    36    39    1
    85    61    58    1
    86    61    62    1
    87    37    38    2
    88    58    57    1
    89    44    42   ar
    90     3     4    2
    91    66    69    1
    92    66    65    1
    93    40    39    1
    94    40    42   ar
    95    75    74   ar
    96    70    69    1
    97    70    72   ar
    98    64    62    1
    99    74    72   ar
   100    15    13    1
   101    14    13    1
   102    13    10    1
   103     9    10    1
   104    25    26   ar
   105    25    23   ar
   106    26    24   ar
   107    10    11    1
   108    23    21   ar
   109    24    22   ar
   110    21    22   ar
   111    21    20    1
   112    11    12    2
   113    20    17    1
   114    17    18    1
   115    17    16    1
   116    18    19    2
