@<TRIPOS>MOLECULE
tmp/4rrzA03.pdb
 183 176 0 0 0
SMALL
GASTEIGER

@<TRIPOS>ATOM
      1  N        -57.6710   -0.4070   19.5980 N.3    85  VAL85      -0.1245
      2  CA       -56.6050    0.5700   19.4120 C.3    85  VAL85       0.1561
      3  C        -57.0520    1.6860   18.4680 C.2    85  VAL85       0.2260
      4  O        -56.8950    2.8650   18.7800 O.2    85  VAL85      -0.2867
      5  CB       -55.3220   -0.0890   18.8610 C.3    85  VAL85       0.0252
      6  CG1      -54.2860    0.9680   18.5170 C.3    85  VAL85       0.0019
      7  CG2      -54.7570   -1.0770   19.8670 C.3    85  VAL85       0.0019
      8  N        -58.4630    5.6150   20.0080 N.3    89  ARG89      -0.1245
      9  CA       -57.5830    6.7300   19.6610 C.3    89  ARG89       0.1563
     10  C        -58.3030    7.7940   18.8290 C.2    89  ARG89       0.2260
     11  O        -58.2200    8.9870   19.1250 O.2    89  ARG89      -0.2867
     12  CB       -56.3520    6.2340   18.8960 C.3    89  ARG89       0.0307
     13  CG       -55.3820    5.4020   19.7130 C.3    89  ARG89       0.0489
     14  CD       -54.7270    6.1990   20.8180 C.3    89  ARG89       0.2205
     15  NE       -53.6020    5.4710   21.3980 N.pl3  89  ARG89      -0.0865
     16  CZ       -52.8790    5.9050   22.4260 C.cat  89  ARG89       0.5346
     17  NH1      -53.1660    7.0670   22.9970 N.pl3  89  ARG89       0.1354
     18  NH2      -51.8730    5.1740   22.8860 N.pl3  89  ARG89       0.1354
     19  N        -41.4580   10.6550    5.4830 N.3   174  PHE174     -0.1241
     20  CA       -42.8770   10.3100    5.5270 C.3   174  PHE174      0.1605
     21  C        -43.7780   11.4910    5.8940 C.2   174  PHE174      0.2264
     22  O        -44.7880   11.7360    5.2290 O.2   174  PHE174     -0.2867
     23  CB       -43.0980    9.1580    6.5150 C.3   174  PHE174      0.0534
     24  CG       -44.5360    8.9230    6.8750 C.ar  174  PHE174     -0.0203
     25  CD1      -45.4360    8.4530    5.9280 C.ar  174  PHE174     -0.0042
     26  CD2      -44.9850    9.1480    8.1660 C.ar  174  PHE174     -0.0042
     27  CE1      -46.7590    8.2270    6.2600 C.ar  174  PHE174     -0.0003
     28  CE2      -46.3100    8.9210    8.5050 C.ar  174  PHE174     -0.0003
     29  CZ       -47.1970    8.4610    7.5520 C.ar  174  PHE174     -0.0000
     30  N        -45.9150    1.9790    7.9130 N.3   313  VAL313     -0.1245
     31  CA       -45.9810    2.9160    9.0270 C.3   313  VAL313      0.1561
     32  C        -46.5730    2.2580   10.2710 C.2   313  VAL313      0.2260
     33  O        -46.0400    2.4090   11.3700 O.2   313  VAL313     -0.2867
     34  CB       -46.8020    4.1660    8.6640 C.3   313  VAL313      0.0252
     35  CG1      -47.2530    4.9000    9.9160 C.3   313  VAL313      0.0019
     36  CG2      -45.9860    5.0880    7.7720 C.3   313  VAL313      0.0019
     37  N        -42.9670    0.9300   11.5680 N.3   317  TYR317     -0.1227
     38  CA       -42.6150    2.2260   12.1310 C.3   317  TYR317      0.1736
     39  C        -43.2810    2.4700   13.4840 C.2   317  TYR317      0.2595
     40  O        -42.5990    2.6600   14.4910 O.2   317  TYR317     -0.2718
     41  CB       -42.9870    3.3150   11.1240 C.3   317  TYR317      0.0548
     42  CG       -42.7450    4.7450   11.5480 C.ar  317  TYR317     -0.0200
     43  CD1      -41.4770    5.3090   11.4840 C.ar  317  TYR317     -0.0009
     44  CD2      -43.7980    5.5480   11.9550 C.ar  317  TYR317     -0.0009
     45  CE1      -41.2640    6.6270   11.8420 C.ar  317  TYR317      0.0417
     46  CE2      -43.5950    6.8620   12.3160 C.ar  317  TYR317      0.0417
     47  CZ       -42.3290    7.3970   12.2590 C.ar  317  TYR317      0.1957
     48  OH       -42.1390    8.7080   12.6210 O.3   317  TYR317     -0.2866
     49  N        -44.6090    2.4600   13.5070 N.am  318  VAL318     -0.1980
     50  CA       -45.3380    2.6190   14.7590 C.3   318  VAL318      0.1595
     51  C        -45.0640    1.4380   15.6870 C.2   318  VAL318      0.2287
     52  O        -44.9670    1.6030   16.9030 O.2   318  VAL318     -0.2864
     53  CB       -46.8550    2.7610   14.5230 C.3   318  VAL318      0.0276
     54  CG1      -47.6050    2.7360   15.8430 C.3   318  VAL318      0.0022
     55  CG2      -47.1470    4.0520   13.7870 C.3   318  VAL318      0.0022
     56  N        -41.6300    2.3680   17.7000 N.3   321  LEU321     -0.1231
     57  CA       -41.5920    3.4070   18.7290 C.3   321  LEU321      0.1693
     58  C        -42.6280    3.1840   19.8310 C.2   321  LEU321      0.2592
     59  O        -42.4520    3.6600   20.9520 O.2   321  LEU321     -0.2718
     60  CB       -41.7490    4.8110   18.1240 C.3   321  LEU321      0.0284
     61  CG       -42.6810    5.1510   16.9640 C.3   321  LEU321      0.0019
     62  CD1      -44.1160    4.8180   17.2850 C.3   321  LEU321      0.0001
     63  CD2      -42.5500    6.6300   16.6360 C.3   321  LEU321      0.0001
     64  N        -43.7020    2.4660   19.5170 N.am  322  SER322     -0.1952
     65  CA       -44.7260    2.1780   20.5160 C.3   322  SER322      0.1924
     66  C        -44.1590    1.2880   21.6150 C.2   322  SER322      0.2314
     67  O        -44.5470    1.3980   22.7770 O.2   322  SER322     -0.2863
     68  CB       -45.9390    1.4970   19.8820 C.3   322  SER322      0.2116
     69  OG       -45.6300    0.1630   19.5110 O.3   322  SER322     -0.2180
     70  N        -44.6760   -1.7680   21.7770 N.3   324  TYR324     -0.1241
     71  CA       -45.6830   -2.7850   22.0460 C.3   324  TYR324      0.1605
     72  C        -45.1670   -4.1860   21.7600 C.2   324  TYR324      0.2264
     73  O        -44.4070   -4.3990   20.8120 O.2   324  TYR324     -0.2867
     74  CB       -46.9440   -2.5400   21.2120 C.3   324  TYR324      0.0534
     75  CG       -47.7120   -1.2780   21.5430 C.ar  324  TYR324     -0.0201
     76  CD1      -47.3760   -0.4900   22.6380 C.ar  324  TYR324     -0.0009
     77  CD2      -48.7930   -0.8890   20.7660 C.ar  324  TYR324     -0.0009
     78  CE1      -48.0870    0.6590   22.9370 C.ar  324  TYR324      0.0417
     79  CE2      -49.5100    0.2530   21.0570 C.ar  324  TYR324      0.0417
     80  CZ       -49.1540    1.0240   22.1420 C.ar  324  TYR324      0.1957
     81  OH       -49.8670    2.1630   22.4340 O.3   324  TYR324     -0.2866
     82  N        -49.1690   -4.9910   15.9900 N.3   328  LEU328     -0.1245
     83  CA       -50.1020   -4.1060   15.3000 C.3   328  LEU328      0.1561
     84  C        -50.4180   -4.6070   13.8920 C.2   328  LEU328      0.2260
     85  O        -49.6030   -5.2840   13.2620 O.2   328  LEU328     -0.2867
     86  CB       -49.5450   -2.6860   15.2390 C.3   328  LEU328      0.0270
     87  CG       -49.3680   -1.9990   16.5920 C.3   328  LEU328      0.0019
     88  CD1      -48.7900   -0.6160   16.3980 C.3   328  LEU328      0.0001
     89  CD2      -50.6850   -1.9350   17.3490 C.3   328  LEU328      0.0001
     90  N        -50.1410   18.3150   15.7580 N.3   350  PHE350     -0.1241
     91  CA       -49.4690   17.1060   15.2940 C.3   350  PHE350      0.1605
     92  C        -48.1110   17.4570   14.6950 C.2   350  PHE350      0.2264
     93  O        -47.1340   16.7320   14.8740 O.2   350  PHE350     -0.2867
     94  CB       -50.3300   16.3760   14.2600 C.3   350  PHE350      0.0534
     95  CG       -49.8470   14.9870   13.9300 C.ar  350  PHE350     -0.0203
     96  CD1      -49.1640   14.2280   14.8710 C.ar  350  PHE350     -0.0042
     97  CD2      -50.0900   14.4350   12.6800 C.ar  350  PHE350     -0.0042
     98  CE1      -48.7280   12.9470   14.5690 C.ar  350  PHE350     -0.0003
     99  CE2      -49.6580   13.1530   12.3700 C.ar  350  PHE350     -0.0003
    100  CZ       -48.9760   12.4090   13.3180 C.ar  350  PHE350     -0.0000
    101  N        -45.7530   18.3340   17.6520 N.3   353  LEU353     -0.1231
    102  CA       -45.3000   17.1220   18.3310 C.3   353  LEU353      0.1693
    103  C        -44.2010   16.4250   17.5350 C.2   353  LEU353      0.2592
    104  O        -43.3570   15.7310   18.1000 O.2   353  LEU353     -0.2718
    105  CB       -46.4620   16.1470   18.5560 C.3   353  LEU353      0.0284
    106  CG       -47.6740   16.5660   19.3880 C.3   353  LEU353      0.0019
    107  CD1      -48.8830   15.7110   19.0470 C.3   353  LEU353      0.0001
    108  CD2      -47.3620   16.4370   20.8610 C.3   353  LEU353      0.0001
    109  N        -44.2150   16.6140   16.2200 N.am  354  TYR354     -0.1976
    110  CA       -43.3090   15.8930   15.3350 C.3   354  TYR354      0.1639
    111  C        -41.9950   16.6270   15.1050 C.2   354  TYR354      0.2290
    112  O        -41.2080   16.2450   14.2380 O.2   354  TYR354     -0.2864
    113  CB       -43.9870   15.6260   13.9970 C.3   354  TYR354      0.0560
    114  CG       -44.1300   14.1590   13.6730 C.ar  354  TYR354     -0.0198
    115  CD1      -43.0100   13.3560   13.4960 C.ar  354  TYR354     -0.0009
    116  CD2      -45.3860   13.5780   13.5340 C.ar  354  TYR354     -0.0009
    117  CE1      -43.1370   12.0180   13.1960 C.ar  354  TYR354      0.0417
    118  CE2      -45.5220   12.2380   13.2330 C.ar  354  TYR354      0.0417
    119  CZ       -44.3950   11.4620   13.0670 C.ar  354  TYR354      0.1957
    120  OH       -44.5240   10.1270   12.7620 O.3   354  TYR354     -0.2866
    121  N        -39.0890   16.4390   16.2090 N.3   356  TRP356     -0.1241
    122  CA       -38.1800   15.5590   16.9330 C.3   356  TRP356      0.1605
    123  C        -36.7190   15.9400   16.7180 C.2   356  TRP356      0.2264
    124  O        -35.9090   15.1250   16.2780 O.2   356  TRP356     -0.2867
    125  CB       -38.4070   14.1070   16.5120 C.3   356  TRP356      0.0550
    126  CG       -39.7620   13.5840   16.8680 C.ar  356  TRP356      0.0003
    127  CD1      -40.6700   14.1570   17.7140 C.ar  356  TRP356      0.0946
    128  CD2      -40.3690   12.3810   16.3840 C.ar  356  TRP356      0.0152
    129  NE1      -41.8010   13.3820   17.7900 N.ar  356  TRP356     -0.2442
    130  CE2      -41.6430   12.2860   16.9820 C.ar  356  TRP356      0.0810
    131  CE3      -39.9590   11.3740   15.5040 C.ar  356  TRP356      0.0012
    132  CZ2      -42.5100   11.2240   16.7270 C.ar  356  TRP356      0.0191
    133  CZ3      -40.8220   10.3190   15.2520 C.ar  356  TRP356      0.0001
    134  CH2      -42.0820   10.2520   15.8630 C.ar  356  TRP356      0.0015
    135  N        -39.9490    8.4930   24.3600 N.3   487  PHE487     -0.1241
    136  CA       -40.9300    9.5510   24.5740 C.3   487  PHE487      0.1605
    137  C        -41.4770    9.5590   25.9920 C.2   487  PHE487      0.2264
    138  O        -41.3880    8.5690   26.7160 O.2   487  PHE487     -0.2867
    139  CB       -42.1060    9.4050   23.6020 C.3   487  PHE487      0.0534
    140  CG       -41.7320    9.5470   22.1610 C.ar  487  PHE487     -0.0203
    141  CD1      -40.7340   10.4230   21.7710 C.ar  487  PHE487     -0.0042
    142  CD2      -42.3900    8.8100   21.1910 C.ar  487  PHE487     -0.0042
    143  CE1      -40.3940   10.5550   20.4400 C.ar  487  PHE487     -0.0003
    144  CE2      -42.0520    8.9370   19.8590 C.ar  487  PHE487     -0.0003
    145  CZ       -41.0530    9.8100   19.4830 C.ar  487  PHE487     -0.0000
    146  N        -46.3010   13.0620   24.5620 N.3   491  MET491     -0.1230
    147  CA       -45.9830   12.8950   23.1450 C.3   491  MET491      0.1702
    148  C        -46.8050   11.7820   22.4930 C.2   491  MET491      0.2592
    149  O        -47.3350   11.9470   21.3940 O.2   491  MET491     -0.2718
    150  CB       -44.4910   12.6040   22.9700 C.3   491  MET491      0.0401
    151  CG       -44.0720   12.3280   21.5380 C.3   491  MET491      0.0596
    152  SD       -44.0010   13.8260   20.5360 S.3   491  MET491     -0.1393
    153  CE       -42.4870   14.5610   21.1470 C.3   491  MET491      0.0692
    154  N        -46.9130   10.6500   23.1810 N.am  492  VAL492     -0.1980
    155  CA       -47.5750    9.4760   22.6220 C.3   492  VAL492      0.1595
    156  C        -49.0980    9.5730   22.6910 C.2   492  VAL492      0.2287
    157  O        -49.7900    9.2890   21.7120 O.2   492  VAL492     -0.2864
    158  CB       -47.1210    8.1890   23.3450 C.3   492  VAL492      0.0276
    159  CG1      -47.9290    6.9940   22.8660 C.3   492  VAL492      0.0022
    160  CG2      -45.6360    7.9560   23.1230 C.3   492  VAL492      0.0022
    161  N        -50.1050   12.2400   20.1390 N.3   495  GLY495     -0.1210
    162  CA       -49.7430   11.9790   18.7590 C.3   495  GLY495      0.1956
    163  C        -50.4440   10.7930   18.1250 C.2   495  GLY495      0.2611
    164  O        -50.7770   10.8280   16.9400 O.2   495  GLY495     -0.2717
    165  N        -50.6580    9.7390   18.9070 N.am  496  ALA496     -0.1979
    166  CA       -51.2930    8.5240   18.3990 C.3   496  ALA496      0.1597
    167  C        -52.6900    8.7700   17.8100 C.2   496  ALA496      0.2287
    168  O        -53.0140    8.2060   16.7640 O.2   496  ALA496     -0.2864
    169  CB       -51.3550    7.4570   19.4980 C.3   496  ALA496      0.0319
    170  N        -52.1370   10.4170   14.4530 N.3   499  SER499     -0.1202
    171  CA       -51.4930    9.4700   13.5550 C.3   499  SER499      0.2020
    172  C        -52.4850    8.4810   12.9630 C.2   499  SER499      0.2618
    173  O        -52.6560    8.4200   11.7460 O.2   499  SER499     -0.2717
    174  CB       -50.3850    8.7150   14.2890 C.3   499  SER499      0.2103
    175  OG       -49.8070    7.7220   13.4610 O.3   499  SER499     -0.2182
    176  N        -53.1440    7.7170   13.8300 N.am  500  LEU500     -0.1979
    177  CA       -54.0270    6.6440   13.3860 C.3   500  LEU500      0.1596
    178  C        -55.2280    7.1670   12.5990 C.2   500  LEU500      0.2287
    179  O        -55.6900    6.5230   11.6550 O.2   500  LEU500     -0.2864
    180  CB       -54.4970    5.8240   14.5890 C.3   500  LEU500      0.0297
    181  CG       -53.3530    5.1400   15.3440 C.3   500  LEU500      0.0022
    182  CD1      -53.8600    4.4060   16.5760 C.3   500  LEU500      0.0001
    183  CD2      -52.5990    4.1970   14.4270 C.3   500  LEU500      0.0001
@<TRIPOS>BOND
     1    22    21    2
     2    19    20    1
     3    20    21    1
     4    20    23    1
     5    25    27   ar
     6    25    24   ar
     7    27    29   ar
     8    23    24    1
     9    24    26   ar
    10    29    28   ar
    11    36    34    1
    12    30    31    1
    13    26    28   ar
    14    34    31    1
    15    34    35    1
    16    31    32    1
    17    32    33    2
    18    41    42    1
    19    41    38    1
    20    43    42   ar
    21    43    45   ar
    22    42    44   ar
    23    37    38    1
    24   179   178    2
    25   173   172    2
    26    45    47   ar
    27    44    46   ar
    28    38    39    1
    29    47    46   ar
    30    47    48    1
    31    99    97   ar
    32    99   100   ar
    33   178   177    1
    34    97    95   ar
    35   120   119    1
    36   172   171    1
    37   172   176   am
    38   119   117   ar
    39   119   118   ar
    40   117   115   ar
    41   118   116   ar
    42    85    84    2
    43   100    98   ar
    44   177   176    1
    45   177   180    1
    46   175   174    1
    47    39    49   am
    48    39    40    2
    49   115   114   ar
    50    49    50    1
    51   116   114   ar
    52   171   174    1
    53   171   170    1
    54   114   113    1
    55    55    53    1
    56    84    83    1
    57    95    94    1
    58    95    96   ar
    59   113   110    1
    60   112   111    2
    61    94    91    1
    62   183   181    1
    63    53    50    1
    64    53    54    1
    65    98    96   ar
    66   180   181    1
    67    92    93    2
    68    92    91    1
    69    50    51    1
    70   111   110    1
    71    86    83    1
    72    86    87    1
    73   133   131   ar
    74   133   134   ar
    75    91    90    1
    76    83    82    1
    77   110   109    1
    78   181   182    1
    79   131   128   ar
    80    51    52    2
    81   134   132   ar
    82   121   122    1
    83   109   103   am
    84   124   123    2
    85   128   126   ar
    86   128   130   ar
    87    88    87    1
    88   125   126    1
    89   125   122    1
    90    87    89    1
    91    63    61    1
    92   123   122    1
    93   132   130   ar
    94   168   167    2
    95   126   127   ar
    96   164   163    2
    97    61    62    1
    98    61    60    1
    99   130   129   ar
   100   103   104    2
   101   103   102    1
   102   101   102    1
   103    56    57    1
   104   127   129   ar
   105   167   166    1
   106    60    57    1
   107   163   162    1
   108   163   165   am
   109   102   105    1
   110   166   165    1
   111   166   169    1
   112     3     4    2
   113     3     2    1
   114     6     5    1
   115   105   106    1
   116    57    58    1
   117   162   161    1
   118    10    11    2
   119    10     9    1
   120     5     2    1
   121     5     7    1
   122    12     9    1
   123    12    13    1
   124   107   106    1
   125   106   108    1
   126     2     1    1
   127   145   144   ar
   128   145   143   ar
   129    69    68    1
   130    64    58   am
   131    64    65    1
   132     9     8    1
   133    13    14    1
   134    58    59    2
   135   144   142   ar
   136    68    65    1
   137   143   141   ar
   138    65    66    1
   139   152   153    1
   140   152   151    1
   141    77    79   ar
   142    77    75   ar
   143    73    72    2
   144    14    15    1
   145    79    80   ar
   146   142   140   ar
   147    74    75    1
   148    74    71    1
   149   149   148    2
   150    15    16    2
   151   151   150    1
   152    75    76   ar
   153    66    67    2
   154   157   156    2
   155    72    71    1
   156   141   140   ar
   157    70    71    1
   158    80    81    1
   159    80    78   ar
   160   140   139    1
   161    16    18    1
   162    16    17    1
   163   148   147    1
   164   148   154   am
   165   155   156    1
   166   155   154    1
   167   155   158    1
   168    76    78   ar
   169   159   158    1
   170   150   147    1
   171   160   158    1
   172   147   146    1
   173   139   136    1
   174   135   136    1
   175   136   137    1
   176   137   138    2
