@<TRIPOS>MOLECULE
tmp/4rs0A01.pdb
 157 153 0 0 0
SMALL
GASTEIGER

@<TRIPOS>ATOM
      1  N         22.1810  -27.0220  -61.8770 N.3    51  LYS51      -0.1231
      2  CA        20.9030  -26.5670  -62.4170 C.3    51  LYS51       0.1678
      3  C         20.5880  -25.1280  -62.0220 C.2    51  LYS51       0.2434
      4  O         20.4600  -24.8180  -60.8380 O.2    51  LYS51      -0.2733
      5  CB        19.7730  -27.4880  -61.9550 C.3    51  LYS51       0.0284
      6  CG        18.4440  -27.2300  -62.6440 C.3    51  LYS51       0.0035
      7  CD        17.3740  -28.1750  -62.1290 C.3    51  LYS51       0.0206
      8  CE        16.0790  -28.0090  -62.9040 C.3    51  LYS51       0.1093
      9  NZ        15.0220  -28.9330  -62.4080 N.3    51  LYS51      -0.1314
     10  N         20.4570  -24.2430  -63.0210 N.am   52  PRO52      -0.2718
     11  CA        20.1150  -22.8390  -62.7790 C.3    52  PRO52       0.1535
     12  C         18.6300  -22.6580  -62.4760 C.2    52  PRO52       0.2599
     13  O         17.8100  -23.4600  -62.9250 O.2    52  PRO52      -0.2715
     14  CB        20.4940  -22.1600  -64.0950 C.3    52  PRO52       0.0310
     15  CG        20.2880  -23.2200  -65.1200 C.3    52  PRO52       0.0237
     16  CD        20.6570  -24.5220  -64.4550 C.3    52  PRO52       0.0939
     17  N         18.2950  -21.6170  -61.7220 N.am   53  THR53      -0.1938
     18  CA        16.9060  -21.3300  -61.3810 C.3    53  THR53       0.2013
     19  C         16.1100  -20.9360  -62.6240 C.2    53  THR53       0.2484
     20  O         16.6880  -20.4810  -63.6130 O.2    53  THR53      -0.2729
     21  CB        16.8090  -20.2050  -60.3290 C.3    53  THR53       0.1807
     22  OG1       17.4230  -19.0140  -60.8380 O.3    53  THR53      -0.2208
     23  CG2       17.5070  -20.6190  -59.0440 C.3    53  THR53       0.0379
     24  N         14.7820  -21.1340  -62.5880 N.am   54  PRO54      -0.2726
     25  CA        13.9240  -20.7110  -63.7000 C.3    54  PRO54       0.1402
     26  C         14.0340  -19.2180  -64.0090 C.2    54  PRO54       0.2269
     27  O         13.9410  -18.8430  -65.1760 O.2    54  PRO54      -0.2865
     28  CB        12.5220  -21.0660  -63.2060 C.3    54  PRO54       0.0296
     29  CG        12.7420  -22.2320  -62.3160 C.3    54  PRO54       0.0237
     30  CD        14.0420  -21.9530  -61.6120 C.3    54  PRO54       0.0939
     31  N         17.3360  -18.6330  -65.9680 N.3    57  VAL57      -0.1245
     32  CA        17.1550  -19.0660  -67.3490 C.3    57  VAL57       0.1561
     33  C         16.2960  -18.0680  -68.1250 C.2    57  VAL57       0.2260
     34  O         16.5830  -17.7520  -69.2820 O.2    57  VAL57      -0.2867
     35  CB        16.5160  -20.4700  -67.4110 C.3    57  VAL57       0.0252
     36  CG1       16.0240  -20.7850  -68.8150 C.3    57  VAL57       0.0019
     37  CG2       17.5070  -21.5260  -66.9370 C.3    57  VAL57       0.0019
     38  N         18.3990  -14.9460  -69.1330 N.3    60  ILE60      -0.1231
     39  CA        19.3000  -15.2190  -70.2460 C.3    60  ILE60       0.1692
     40  C         18.5330  -15.3170  -71.5660 C.2    60  ILE60       0.2591
     41  O         19.0300  -14.9130  -72.6180 O.2    60  ILE60      -0.2718
     42  CB        20.0970  -16.5180  -70.0030 C.3    60  ILE60       0.0266
     43  CG1       20.8630  -16.4280  -68.6800 C.3    60  ILE60       0.0019
     44  CG2       21.0490  -16.7940  -71.1540 C.3    60  ILE60       0.0020
     45  CD1       21.7000  -17.6500  -68.3720 C.3    60  ILE60       0.0001
     46  N         17.3120  -15.8360  -71.5020 N.am   61  LEU61      -0.1980
     47  CA        16.4970  -16.0120  -72.6970 C.3    61  LEU61       0.1596
     48  C         15.8540  -14.7080  -73.1720 C.2    61  LEU61       0.2287
     49  O         15.4970  -14.5820  -74.3450 O.2    61  LEU61      -0.2864
     50  CB        15.4150  -17.0650  -72.4480 C.3    61  LEU61       0.0297
     51  CG        15.8710  -18.5230  -72.5110 C.3    61  LEU61       0.0022
     52  CD1       14.7670  -19.4550  -72.0460 C.3    61  LEU61       0.0001
     53  CD2       16.3070  -18.8780  -73.9230 C.3    61  LEU61       0.0001
     54  N         21.9100  -14.1550  -79.2500 N.3    68  TRP68      -0.1241
     55  CA        20.8660  -15.0310  -79.7670 C.3    68  TRP68       0.1605
     56  C         20.7050  -14.8860  -81.2770 C.2    68  TRP68       0.2264
     57  O         20.3360  -15.8420  -81.9600 O.2    68  TRP68      -0.2867
     58  CB        19.5360  -14.7540  -79.0640 C.3    68  TRP68       0.0550
     59  CG        19.5110  -15.2370  -77.6480 C.ar   68  TRP68       0.0003
     60  CD1       19.4610  -14.4710  -76.5210 C.ar   68  TRP68       0.0946
     61  CD2       19.5490  -16.6010  -77.2070 C.ar   68  TRP68       0.0152
     62  NE1       19.4590  -15.2730  -75.4040 N.ar   68  TRP68      -0.2442
     63  CE2       19.5120  -16.5840  -75.7980 C.ar   68  TRP68       0.0810
     64  CE3       19.6060  -17.8330  -77.8660 C.ar   68  TRP68       0.0012
     65  CZ2       19.5320  -17.7520  -75.0370 C.ar   68  TRP68       0.0191
     66  CZ3       19.6250  -18.9900  -77.1090 C.ar   68  TRP68       0.0001
     67  CH2       19.5880  -18.9410  -75.7100 C.ar   68  TRP68       0.0015
     68  N         19.2810  -26.4560  -79.0250 N.3    81  ILE81      -0.1245
     69  CA        18.5970  -25.7250  -77.9630 C.3    81  ILE81       0.1561
     70  C         17.1130  -26.0740  -77.9150 C.2    81  ILE81       0.2260
     71  O         16.5670  -26.3440  -76.8460 O.2    81  ILE81      -0.2867
     72  CB        18.7470  -24.2000  -78.1340 C.3    81  ILE81       0.0252
     73  CG1       20.2220  -23.7950  -78.0960 C.3    81  ILE81       0.0019
     74  CG2       17.9740  -23.4650  -77.0500 C.3    81  ILE81       0.0019
     75  CD1       20.8780  -24.0060  -76.7500 C.3    81  ILE81       0.0001
     76  N         16.4040  -29.4420  -76.4480 N.3    84  TYR84      -0.1227
     77  CA        16.4820  -29.4380  -74.9930 C.3    84  TYR84       0.1736
     78  C         15.2360  -28.8150  -74.3750 C.2    84  TYR84       0.2595
     79  O         14.7870  -29.2390  -73.3110 O.2    84  TYR84      -0.2718
     80  CB        17.7260  -28.6910  -74.5100 C.3    84  TYR84       0.0548
     81  CG        17.8070  -28.6000  -73.0020 C.ar   84  TYR84      -0.0200
     82  CD1       18.1300  -29.7150  -72.2390 C.ar   84  TYR84      -0.0009
     83  CD2       17.5490  -27.4050  -72.3400 C.ar   84  TYR84      -0.0009
     84  CE1       18.1980  -29.6440  -70.8590 C.ar   84  TYR84       0.0417
     85  CE2       17.6160  -27.3240  -70.9580 C.ar   84  TYR84       0.0417
     86  CZ        17.9410  -28.4470  -70.2240 C.ar   84  TYR84       0.1957
     87  OH        18.0100  -28.3770  -68.8520 O.3    84  TYR84      -0.2866
     88  N         14.6840  -27.8060  -75.0410 N.am   85  VAL85      -0.1980
     89  CA        13.4700  -27.1590  -74.5600 C.3    85  VAL85       0.1595
     90  C         12.3110  -28.1500  -74.5630 C.2    85  VAL85       0.2287
     91  O         11.5720  -28.2560  -73.5860 O.2    85  VAL85      -0.2864
     92  CB        13.1040  -25.9220  -75.4120 C.3    85  VAL85       0.0276
     93  CG1       11.7420  -25.3820  -75.0130 C.3    85  VAL85       0.0022
     94  CG2       14.1650  -24.8470  -75.2620 C.3    85  VAL85       0.0022
     95  N         13.0970  -31.2690  -71.9030 N.3    88  SER88      -0.1202
     96  CA        13.1310  -30.8580  -70.5010 C.3    88  SER88       0.2020
     97  C         11.7520  -30.4450  -69.9920 C.2    88  SER88       0.2618
     98  O         11.4190  -30.6840  -68.8320 O.2    88  SER88      -0.2717
     99  CB        14.1250  -29.7120  -70.2950 C.3    88  SER88       0.2103
    100  OG        13.7410  -28.5590  -71.0200 O.3    88  SER88      -0.2182
    101  N         10.9570  -29.8220  -70.8560 N.am   89  ARG89      -0.1979
    102  CA         9.6010  -29.4250  -70.4900 C.3    89  ARG89       0.1597
    103  C          8.6770  -30.6370  -70.3980 C.2    89  ARG89       0.2287
    104  O          7.8320  -30.7150  -69.5070 O.2    89  ARG89      -0.2864
    105  CB         9.0360  -28.4190  -71.4970 C.3    89  ARG89       0.0334
    106  CG         9.6650  -27.0370  -71.4370 C.3    89  ARG89       0.0492
    107  CD         9.4720  -26.3920  -70.0790 C.3    89  ARG89       0.2205
    108  NE         9.8520  -24.9820  -70.0930 N.pl3  89  ARG89      -0.0865
    109  CZ         9.9700  -24.2300  -69.0040 C.cat  89  ARG89       0.5346
    110  NH1        9.7450  -24.7540  -67.8070 N.pl3  89  ARG89       0.1354
    111  NH2       10.3180  -22.9550  -69.1110 N.pl3  89  ARG89       0.1354
    112  N          8.2950  -33.1550  -67.2410 N.3    92  LEU92      -0.1245
    113  CA         7.4810  -32.7510  -66.0990 C.3    92  LEU92       0.1561
    114  C          6.0550  -33.2920  -66.1930 C.2    92  LEU92       0.2260
    115  O          5.2860  -33.2040  -65.2350 O.2    92  LEU92      -0.2867
    116  CB         7.4530  -31.2230  -65.9780 C.3    92  LEU92       0.0270
    117  CG         8.5680  -30.5200  -65.1970 C.3    92  LEU92       0.0019
    118  CD1        8.5090  -30.9060  -63.7340 C.3    92  LEU92       0.0001
    119  CD2        9.9390  -30.8300  -65.7710 C.3    92  LEU92       0.0001
    120  N         11.1270  -14.6440  -75.5840 N.3   324  TYR324     -0.1241
    121  CA        12.5030  -15.0800  -75.7970 C.3   324  TYR324      0.1605
    122  C         13.0650  -14.4790  -77.0800 C.2   324  TYR324      0.2264
    123  O         12.3310  -14.2460  -78.0410 O.2   324  TYR324     -0.2867
    124  CB        12.5980  -16.6100  -75.8610 C.3   324  TYR324      0.0534
    125  CG        12.1140  -17.3430  -74.6220 C.ar  324  TYR324     -0.0201
    126  CD1       11.8990  -16.6720  -73.4240 C.ar  324  TYR324     -0.0009
    127  CD2       11.8790  -18.7120  -74.6540 C.ar  324  TYR324     -0.0009
    128  CE1       11.4560  -17.3420  -72.2980 C.ar  324  TYR324      0.0417
    129  CE2       11.4400  -19.3880  -73.5330 C.ar  324  TYR324      0.0417
    130  CZ        11.2290  -18.7020  -72.3590 C.ar  324  TYR324      0.1957
    131  OH        10.7890  -19.3810  -71.2440 O.3   324  TYR324     -0.2866
    132  N          6.5120  -28.6890  -59.9090 N.3   439  PHE439     -0.1227
    133  CA         7.1740  -28.2510  -61.1320 C.3   439  PHE439      0.1736
    134  C          8.5330  -27.6110  -60.8420 C.2   439  PHE439      0.2596
    135  O          8.9550  -26.6790  -61.5310 O.2   439  PHE439     -0.2718
    136  CB         6.2670  -27.2930  -61.9080 C.3   439  PHE439      0.0547
    137  CG         5.1000  -27.9790  -62.5690 C.ar  439  PHE439     -0.0202
    138  CD1        3.9240  -28.2040  -61.8710 C.ar  439  PHE439     -0.0042
    139  CD2        5.1890  -28.4200  -63.8800 C.ar  439  PHE439     -0.0042
    140  CE1        2.8550  -28.8450  -62.4730 C.ar  439  PHE439     -0.0003
    141  CE2        4.1240  -29.0620  -64.4860 C.ar  439  PHE439     -0.0003
    142  CZ         2.9560  -29.2740  -63.7810 C.ar  439  PHE439     -0.0000
    143  N          9.2010  -28.1290  -59.8130 N.am  440  SER440     -0.1952
    144  CA        10.5890  -27.7870  -59.4910 C.3   440  SER440      0.1924
    145  C         10.8150  -26.3190  -59.1400 C.2   440  SER440      0.2314
    146  O         11.8110  -25.7220  -59.5490 O.2   440  SER440     -0.2863
    147  CB        11.5030  -28.1760  -60.6550 C.3   440  SER440      0.2116
    148  OG        11.4160  -29.5650  -60.9170 O.3   440  SER440     -0.2180
    149  N          6.2170  -21.7650  -65.6870 N.3   493  GLU493     -0.1245
    150  CA         6.8200  -23.0510  -65.3460 C.3   493  GLU493      0.1567
    151  C          5.7880  -24.1730  -65.2300 C.2   493  GLU493      0.2260
    152  O          6.1420  -25.3530  -65.2500 O.2   493  GLU493     -0.2867
    153  CB         7.6150  -22.9300  -64.0460 C.3   493  GLU493      0.0388
    154  CG         8.7990  -21.9820  -64.1470 C.3   493  GLU493      0.1160
    155  CD         9.7680  -22.3720  -65.2510 C.2   493  GLU493      0.3649
    156  OE1       10.2570  -23.5220  -65.2410 O.co2 493  GLU493     -0.2457
    157  OE2       10.0440  -21.5260  -66.1290 O.co2 493  GLU493     -0.2457
@<TRIPOS>BOND
     1    57    56    2
     2    56    55    1
     3    55    54    1
     4    55    58    1
     5    58    59    1
     6    68    69    1
     7    72    73    1
     8    72    69    1
     9    72    74    1
    10    73    75    1
    11   123   122    2
    12    69    70    1
    13    70    71    2
    14    64    61   ar
    15    64    66   ar
    16    59    61   ar
    17    59    60   ar
    18    61    63   ar
    19    66    67   ar
    20   122   121    1
    21    60    62   ar
    22    76    77    1
    23   124   121    1
    24   124   125    1
    25    63    62   ar
    26    63    65   ar
    27   121   120    1
    28    67    65   ar
    29    92    94    1
    30    92    93    1
    31    92    89    1
    32    88    89    1
    33    88    78   am
    34    77    80    1
    35    77    78    1
    36   127   125   ar
    37   127   129   ar
    38   125   126   ar
    39    90    89    1
    40    90    91    2
    41    80    81    1
    42    78    79    2
    43    49    48    2
    44    53    51    1
    45   129   130   ar
    46   126   128   ar
    47    48    47    1
    48    81    83   ar
    49    81    82   ar
    50    47    50    1
    51    47    46    1
    52    41    40    2
    53    51    50    1
    54    51    52    1
    55   130   128   ar
    56   130   131    1
    57    83    85   ar
    58    82    84   ar
    59    95    96    1
    60    40    46   am
    61    40    39    1
    62   105   106    1
    63   105   102    1
    64   106   107    1
    65    44    42    1
    66   100    99    1
    67    85    86   ar
    68    84    86   ar
    69   101   102    1
    70   101    97   am
    71    96    99    1
    72    96    97    1
    73   102   103    1
    74   103   104    2
    75    39    42    1
    76    39    38    1
    77    86    87    1
    78   108   107    1
    79   108   109    2
    80    42    43    1
    81    97    98    2
    82    34    33    2
    83   111   109    1
    84   109   110    1
    85    36    35    1
    86    43    45    1
    87    33    32    1
    88    35    32    1
    89    35    37    1
    90    32    31    1
    91   112   113    1
    92   114   113    1
    93   114   115    2
    94   157   155   ar
    95   113   116    1
    96   116   117    1
    97   119   117    1
    98   149   150    1
    99   150   151    1
   100   150   153    1
   101   155   156   ar
   102   155   154    1
   103   152   151    2
   104   117   118    1
   105    27    26    2
   106    15    16    1
   107    15    14    1
   108   141   139   ar
   109   141   142   ar
   110    16    10    1
   111   154   153    1
   112    14    11    1
   113    26    25    1
   114   139   137   ar
   115   142   140   ar
   116    25    28    1
   117    25    24    1
   118    20    19    2
   119    28    29    1
   120    10    11    1
   121    10     3   am
   122    13    12    2
   123     8     9    1
   124     8     7    1
   125    11    12    1
   126     6     7    1
   127     6     5    1
   128    19    24   am
   129    19    18    1
   130    24    30    1
   131   137   136    1
   132   137   138   ar
   133    12    17   am
   134   140   138   ar
   135     2     3    1
   136     2     5    1
   137     2     1    1
   138    29    30    1
   139     3     4    2
   140   136   133    1
   141    17    18    1
   142   135   134    2
   143    18    21    1
   144   133   134    1
   145   133   132    1
   146   148   147    1
   147   134   143   am
   148    22    21    1
   149   147   144    1
   150    21    23    1
   151   143   144    1
   152   146   145    2
   153   144   145    1
