@<TRIPOS>MOLECULE
tmp/4rs0A04.pdb
 181 173 0 0 0
SMALL
GASTEIGER

@<TRIPOS>ATOM
      1  N         17.3120  -15.8360  -71.5020 N.3    61  LEU61      -0.1245
      2  CA        16.4970  -16.0120  -72.6970 C.3    61  LEU61       0.1561
      3  C         15.8540  -14.7080  -73.1720 C.2    61  LEU61       0.2260
      4  O         15.4970  -14.5820  -74.3450 O.2    61  LEU61      -0.2867
      5  CB        15.4150  -17.0650  -72.4480 C.3    61  LEU61       0.0270
      6  CG        15.8710  -18.5230  -72.5110 C.3    61  LEU61       0.0019
      7  CD1       14.7670  -19.4550  -72.0460 C.3    61  LEU61       0.0001
      8  CD2       16.3070  -18.8780  -73.9230 C.3    61  LEU61       0.0001
      9  N         16.4630  -26.0710  -79.0760 N.3    82  MET82      -0.1245
     10  CA        15.0350  -26.3610  -79.1480 C.3    82  MET82       0.1570
     11  C         14.7490  -27.7930  -78.7070 C.2    82  MET82       0.2261
     12  O         13.7280  -28.0620  -78.0740 O.2    82  MET82      -0.2867
     13  CB        14.5030  -26.1270  -80.5630 C.3    82  MET82       0.0387
     14  CG        12.9900  -26.2390  -80.6780 C.3    82  MET82       0.0595
     15  SD        12.1330  -25.0000  -79.6830 S.3    82  MET82      -0.1393
     16  CE        10.4560  -25.6270  -79.7080 C.3    82  MET82       0.0692
     17  N         14.6840  -27.8060  -75.0410 N.3    85  VAL85      -0.1245
     18  CA        13.4700  -27.1590  -74.5600 C.3    85  VAL85       0.1561
     19  C         12.3110  -28.1500  -74.5630 C.2    85  VAL85       0.2260
     20  O         11.5720  -28.2560  -73.5860 O.2    85  VAL85      -0.2867
     21  CB        13.1040  -25.9220  -75.4120 C.3    85  VAL85       0.0252
     22  CG1       11.7420  -25.3820  -75.0130 C.3    85  VAL85       0.0019
     23  CG2       14.1650  -24.8470  -75.2620 C.3    85  VAL85       0.0019
     24  N         10.9570  -29.8220  -70.8560 N.3    89  ARG89      -0.1245
     25  CA         9.6010  -29.4250  -70.4900 C.3    89  ARG89       0.1563
     26  C          8.6770  -30.6370  -70.3980 C.2    89  ARG89       0.2260
     27  O          7.8320  -30.7150  -69.5070 O.2    89  ARG89      -0.2867
     28  CB         9.0360  -28.4190  -71.4970 C.3    89  ARG89       0.0307
     29  CG         9.6650  -27.0370  -71.4370 C.3    89  ARG89       0.0489
     30  CD         9.4720  -26.3920  -70.0790 C.3    89  ARG89       0.2205
     31  NE         9.8520  -24.9820  -70.0930 N.pl3  89  ARG89      -0.0865
     32  CZ         9.9700  -24.2300  -69.0040 C.cat  89  ARG89       0.5346
     33  NH1        9.7450  -24.7540  -67.8070 N.pl3  89  ARG89       0.1354
     34  NH2       10.3180  -22.9550  -69.1110 N.pl3  89  ARG89       0.1354
     35  N          2.6430  -17.7550  -81.6740 N.3   317  TYR317     -0.1227
     36  CA         1.8940  -17.6050  -80.4280 C.3   317  TYR317      0.1736
     37  C          2.7840  -17.7360  -79.1930 C.2   317  TYR317      0.2595
     38  O          2.9060  -16.7970  -78.4080 O.2   317  TYR317     -0.2718
     39  CB         0.7650  -18.6350  -80.3760 C.3   317  TYR317      0.0548
     40  CG        -0.0750  -18.6170  -79.1190 C.ar  317  TYR317     -0.0200
     41  CD1       -1.1610  -17.7600  -78.9980 C.ar  317  TYR317     -0.0009
     42  CD2        0.1980  -19.4810  -78.0670 C.ar  317  TYR317     -0.0009
     43  CE1       -1.9430  -17.7520  -77.8540 C.ar  317  TYR317      0.0417
     44  CE2       -0.5780  -19.4790  -76.9200 C.ar  317  TYR317      0.0417
     45  CZ        -1.6460  -18.6140  -76.8200 C.ar  317  TYR317      0.1957
     46  OH        -2.4180  -18.6100  -75.6810 O.3   317  TYR317     -0.2866
     47  N          3.3960  -18.9040  -79.0210 N.am  318  VAL318     -0.1980
     48  CA         4.2810  -19.1460  -77.8850 C.3   318  VAL318      0.1595
     49  C          5.5370  -18.2780  -77.9760 C.2   318  VAL318      0.2287
     50  O          6.0340  -17.7850  -76.9610 O.2   318  VAL318     -0.2864
     51  CB         4.6710  -20.6420  -77.7880 C.3   318  VAL318      0.0276
     52  CG1        5.8560  -20.8480  -76.8550 C.3   318  VAL318      0.0022
     53  CG2        3.4790  -21.4660  -77.3220 C.3   318  VAL318      0.0022
     54  N          4.5680  -14.9510  -76.6520 N.3   321  LEU321     -0.1231
     55  CA         4.2150  -15.0800  -75.2460 C.3   321  LEU321      0.1693
     56  C          5.4460  -15.3150  -74.3700 C.2   321  LEU321      0.2592
     57  O          5.5140  -14.8330  -73.2390 O.2   321  LEU321     -0.2718
     58  CB         3.2070  -16.2170  -75.0680 C.3   321  LEU321      0.0284
     59  CG         2.4540  -16.2980  -73.7410 C.3   321  LEU321      0.0019
     60  CD1        1.8230  -14.9560  -73.4090 C.3   321  LEU321      0.0001
     61  CD2        1.3960  -17.3910  -73.8040 C.3   321  LEU321      0.0001
     62  N          6.4210  -16.0460  -74.9020 N.am  322  SER322     -0.1952
     63  CA         7.6360  -16.3610  -74.1570 C.3   322  SER322      0.1924
     64  C          8.5130  -15.1300  -73.9690 C.2   322  SER322      0.2314
     65  O          9.1430  -14.9550  -72.9270 O.2   322  SER322     -0.2863
     66  CB         8.4360  -17.4520  -74.8670 C.3   322  SER322      0.2116
     67  OG         9.0920  -16.9300  -76.0100 O.3   322  SER322     -0.2180
     68  N         11.1270  -14.6440  -75.5840 N.3   324  TYR324     -0.1241
     69  CA        12.5030  -15.0800  -75.7970 C.3   324  TYR324      0.1605
     70  C         13.0650  -14.4790  -77.0800 C.2   324  TYR324      0.2264
     71  O         12.3310  -14.2460  -78.0410 O.2   324  TYR324     -0.2867
     72  CB        12.5980  -16.6100  -75.8610 C.3   324  TYR324      0.0534
     73  CG        12.1140  -17.3430  -74.6220 C.ar  324  TYR324     -0.0201
     74  CD1       11.8990  -16.6720  -73.4240 C.ar  324  TYR324     -0.0009
     75  CD2       11.8790  -18.7120  -74.6540 C.ar  324  TYR324     -0.0009
     76  CE1       11.4560  -17.3420  -72.2980 C.ar  324  TYR324      0.0417
     77  CE2       11.4400  -19.3880  -73.5330 C.ar  324  TYR324      0.0417
     78  CZ        11.2290  -18.7020  -72.3590 C.ar  324  TYR324      0.1957
     79  OH        10.7890  -19.3810  -71.2440 O.3   324  TYR324     -0.2866
     80  N         12.1780  -19.9550  -81.6220 N.3   328  LEU328     -0.1245
     81  CA        11.6210  -21.2900  -81.4280 C.3   328  LEU328      0.1561
     82  C         11.3690  -21.9770  -82.7630 C.2   328  LEU328      0.2260
     83  O         11.2830  -21.3250  -83.8050 O.2   328  LEU328     -0.2867
     84  CB        10.3250  -21.2230  -80.6200 C.3   328  LEU328      0.0270
     85  CG        10.4430  -20.6670  -79.1990 C.3   328  LEU328      0.0019
     86  CD1        9.0780  -20.6000  -78.5370 C.3   328  LEU328      0.0001
     87  CD2       11.4040  -21.5050  -78.3690 C.3   328  LEU328      0.0001
     88  N         -4.1140  -27.4530  -66.2760 N.3   350  PHE350     -0.1241
     89  CA        -3.8230  -26.7100  -67.4950 C.3   350  PHE350      0.1605
     90  C         -5.0160  -25.8320  -67.8410 C.2   350  PHE350      0.2264
     91  O         -4.8640  -24.6670  -68.2050 O.2   350  PHE350     -0.2867
     92  CB        -3.5080  -27.6560  -68.6530 C.3   350  PHE350      0.0534
     93  CG        -2.9220  -26.9700  -69.8560 C.ar  350  PHE350     -0.0203
     94  CD1       -2.1990  -25.7950  -69.7200 C.ar  350  PHE350     -0.0042
     95  CD2       -3.0980  -27.4980  -71.1250 C.ar  350  PHE350     -0.0042
     96  CE1       -1.6550  -25.1680  -70.8250 C.ar  350  PHE350     -0.0003
     97  CE2       -2.5620  -26.8720  -72.2330 C.ar  350  PHE350     -0.0003
     98  CZ        -1.8390  -25.7050  -72.0830 C.ar  350  PHE350     -0.0000
     99  N         -5.2010  -22.8250  -65.1690 N.3   353  LEU353     -0.1231
    100  CA        -4.2030  -21.7680  -65.3210 C.3   353  LEU353      0.1693
    101  C         -4.4260  -20.9490  -66.5890 C.2   353  LEU353      0.2592
    102  O         -3.9260  -19.8290  -66.7080 O.2   353  LEU353     -0.2718
    103  CB        -2.7820  -22.3540  -65.3140 C.3   353  LEU353      0.0284
    104  CG        -2.2490  -23.2260  -66.4560 C.3   353  LEU353      0.0019
    105  CD1       -1.6720  -22.3930  -67.5990 C.3   353  LEU353      0.0001
    106  CD2       -1.1990  -24.1910  -65.9230 C.3   353  LEU353      0.0001
    107  N         -5.1740  -21.5070  -67.5350 N.am  354  TYR354     -0.1976
    108  CA        -5.4140  -20.8330  -68.8050 C.3   354  TYR354      0.1639
    109  C         -6.6300  -19.9180  -68.7420 C.2   354  TYR354      0.2290
    110  O         -7.0340  -19.3450  -69.7520 O.2   354  TYR354     -0.2864
    111  CB        -5.5920  -21.8500  -69.9300 C.3   354  TYR354      0.0560
    112  CG        -4.6770  -21.6130  -71.1090 C.ar  354  TYR354     -0.0198
    113  CD1       -4.9220  -20.5850  -72.0100 C.ar  354  TYR354     -0.0009
    114  CD2       -3.5700  -22.4210  -71.3240 C.ar  354  TYR354     -0.0009
    115  CE1       -4.0850  -20.3670  -73.0880 C.ar  354  TYR354      0.0417
    116  CE2       -2.7290  -22.2130  -72.4010 C.ar  354  TYR354      0.0417
    117  CZ        -2.9920  -21.1860  -73.2800 C.ar  354  TYR354      0.1957
    118  OH        -2.1570  -20.9760  -74.3550 O.3   354  TYR354     -0.2866
    119  N         -7.2750  -16.9380  -68.3710 N.3   356  TRP356     -0.1241
    120  CA        -6.6820  -15.6060  -68.4270 C.3   356  TRP356      0.1605
    121  C         -7.7380  -14.5230  -68.5980 C.2   356  TRP356      0.2264
    122  O         -7.7640  -13.8230  -69.6110 O.2   356  TRP356     -0.2867
    123  CB        -5.6740  -15.5180  -69.5720 C.3   356  TRP356      0.0550
    124  CG        -4.5510  -16.4940  -69.4670 C.ar  356  TRP356      0.0003
    125  CD1       -4.1510  -17.1680  -68.3520 C.ar  356  TRP356      0.0946
    126  CD2       -3.6820  -16.9140  -70.5230 C.ar  356  TRP356      0.0152
    127  NE1       -3.0820  -17.9810  -68.6450 N.ar  356  TRP356     -0.2442
    128  CE2       -2.7750  -17.8430  -69.9740 C.ar  356  TRP356      0.0810
    129  CE3       -3.5810  -16.5930  -71.8810 C.ar  356  TRP356      0.0012
    130  CZ2       -1.7830  -18.4560  -70.7350 C.ar  356  TRP356      0.0191
    131  CZ3       -2.5940  -17.2020  -72.6350 C.ar  356  TRP356      0.0001
    132  CH2       -1.7080  -18.1210  -72.0600 C.ar  356  TRP356      0.0015
    133  N          3.3580  -12.4920  -67.4030 N.3   487  PHE487     -0.1241
    134  CA         3.1880  -13.5950  -66.4640 C.3   487  PHE487      0.1605
    135  C          4.1720  -13.5430  -65.3060 C.2   487  PHE487      0.2264
    136  O          5.1950  -12.8570  -65.3700 O.2   487  PHE487     -0.2867
    137  CB         3.3470  -14.9400  -67.1790 C.3   487  PHE487      0.0534
    138  CG         2.2360  -15.2630  -68.1290 C.ar  487  PHE487     -0.0203
    139  CD1        0.9420  -14.8400  -67.8780 C.ar  487  PHE487     -0.0042
    140  CD2        2.4860  -15.9990  -69.2760 C.ar  487  PHE487     -0.0042
    141  CE1       -0.0810  -15.1430  -68.7560 C.ar  487  PHE487     -0.0003
    142  CE2        1.4680  -16.3040  -70.1560 C.ar  487  PHE487     -0.0003
    143  CZ         0.1830  -15.8740  -69.8970 C.ar  487  PHE487     -0.0000
    144  N          3.1290  -19.2890  -63.6170 N.3   491  MET491     -0.1230
    145  CA         2.3260  -19.4670  -64.8250 C.3   491  MET491      0.1702
    146  C          3.1410  -20.0770  -65.9630 C.2   491  MET491      0.2592
    147  O          2.6530  -20.9350  -66.6950 O.2   491  MET491     -0.2718
    148  CB         1.7250  -18.1330  -65.2750 C.3   491  MET491      0.0401
    149  CG         0.8710  -18.2340  -66.5260 C.3   491  MET491      0.0596
    150  SD        -0.7500  -18.9560  -66.2000 S.3   491  MET491     -0.1393
    151  CE        -1.6090  -17.5600  -65.4780 C.3   491  MET491      0.0692
    152  N          4.3850  -19.6320  -66.1040 N.am  492  VAL492     -0.1980
    153  CA         5.2470  -20.1090  -67.1790 C.3   492  VAL492      0.1595
    154  C          5.7610  -21.5200  -66.9110 C.2   492  VAL492      0.2287
    155  O          5.7360  -22.3750  -67.7940 O.2   492  VAL492     -0.2864
    156  CB         6.4520  -19.1690  -67.3950 C.3   492  VAL492      0.0276
    157  CG1        7.3530  -19.7040  -68.4980 C.3   492  VAL492      0.0022
    158  CG2        5.9740  -17.7620  -67.7210 C.3   492  VAL492      0.0022
    159  N          2.6250  -23.7500  -67.1790 N.3   495  GLY495     -0.1210
    160  CA         2.0070  -23.7070  -68.4910 C.3   495  GLY495      0.1956
    161  C          2.8450  -24.3130  -69.6010 C.2   495  GLY495      0.2611
    162  O          2.3140  -24.9760  -70.4900 O.2   495  GLY495     -0.2717
    163  N          4.1550  -24.0890  -69.5510 N.am  496  ALA496     -0.1979
    164  CA         5.0490  -24.5520  -70.6110 C.3   496  ALA496      0.1597
    165  C          5.0880  -26.0810  -70.7760 C.2   496  ALA496      0.2287
    166  O          5.0150  -26.5660  -71.9070 O.2   496  ALA496     -0.2864
    167  CB         6.4600  -24.0100  -70.3870 C.3   496  ALA496      0.0319
    168  N          1.7240  -27.1770  -72.2990 N.3   499  SER499     -0.1202
    169  CA         1.5480  -26.6400  -73.6420 C.3   499  SER499      0.2020
    170  C          2.3850  -27.3760  -74.6900 C.2   499  SER499      0.2618
    171  O          1.8520  -27.8620  -75.6920 O.2   499  SER499     -0.2717
    172  CB         1.8930  -25.1490  -73.6530 C.3   499  SER499      0.2103
    173  OG         1.6490  -24.5800  -74.9260 O.3   499  SER499     -0.2182
    174  N          3.6930  -27.4500  -74.4590 N.am  500  LEU500     -0.1979
    175  CA         4.6070  -28.0650  -75.4180 C.3   500  LEU500      0.1596
    176  C          4.3560  -29.5630  -75.5730 C.2   500  LEU500      0.2287
    177  O          4.4800  -30.1110  -76.6670 O.2   500  LEU500     -0.2864
    178  CB         6.0580  -27.8140  -75.0040 C.3   500  LEU500      0.0297
    179  CG         6.5440  -26.3660  -75.1050 C.3   500  LEU500      0.0022
    180  CD1        7.9930  -26.2600  -74.6710 C.3   500  LEU500      0.0001
    181  CD2        6.3720  -25.8500  -76.5230 C.3   500  LEU500      0.0001
@<TRIPOS>BOND
     1    83    82    2
     2    82    81    1
     3    35    36    1
     4    80    81    1
     5    81    84    1
     6    14    13    1
     7    14    15    1
     8    84    85    1
     9    13    10    1
    10    36    39    1
    11    36    37    1
    12    39    40    1
    13    16    15    1
    14    85    86    1
    15    85    87    1
    16    37    47   am
    17    37    38    2
    18    10     9    1
    19    10    11    1
    20    40    41   ar
    21    40    42   ar
    22    47    48    1
    23    41    43   ar
    24    11    12    2
    25    42    44   ar
    26    71    70    2
    27    49    48    1
    28    49    50    2
    29    48    51    1
    30    43    45   ar
    31    51    53    1
    32    51    52    1
    33    70    69    1
    34    44    45   ar
    35    45    46    1
    36   177   176    2
    37    54    55    1
    38   181   179    1
    39    67    66    1
    40    72    69    1
    41    72    73    1
    42    69    68    1
    43   171   170    2
    44   176   175    1
    45   175   178    1
    46   175   174    1
    47    21    23    1
    48    21    22    1
    49    21    18    1
    50    55    58    1
    51    55    56    1
    52   179   178    1
    53   179   180    1
    54    58    59    1
    55    17    18    1
    56   173   172    1
    57    62    56   am
    58    62    63    1
    59    66    63    1
    60   170   174   am
    61   170   169    1
    62    75    73   ar
    63    75    77   ar
    64    73    74   ar
    65    19    18    1
    66    19    20    2
    67    56    57    2
    68   118   117    1
    69     4     3    2
    70    63    64    1
    71    64    65    2
    72     8     6    1
    73    61    59    1
    74    59    60    1
    75   172   169    1
    76   169   168    1
    77    77    78   ar
    78    74    76   ar
    79   117   115   ar
    80   117   116   ar
    81     3     2    1
    82   115   113   ar
    83     2     5    1
    84     2     1    1
    85   131   132   ar
    86   131   129   ar
    87     6     5    1
    88     6     7    1
    89   116   114   ar
    90    78    76   ar
    91    78    79    1
    92    97    98   ar
    93    97    95   ar
    94    98    96   ar
    95   132   130   ar
    96   113   112   ar
    97   166   165    2
    98   129   126   ar
    99    28    29    1
   100    28    25    1
   101    29    30    1
   102   114   112   ar
   103    95    93   ar
   104   112   111    1
   105    24    25    1
   106    96    94   ar
   107   165   164    1
   108   130   128   ar
   109   164   167    1
   110   164   163    1
   111   126   128   ar
   112   126   124   ar
   113   162   161    2
   114    25    26    1
   115    26    27    2
   116   142   143   ar
   117   142   140   ar
   118    31    30    1
   119    31    32    2
   120   128   127   ar
   121   111   108    1
   122   143   141   ar
   123    93    94   ar
   124    93    92    1
   125   110   109    2
   126   122   121    2
   127   161   163   am
   128   161   160    1
   129   123   124    1
   130   123   120    1
   131   124   125   ar
   132   140   138   ar
   133    34    32    1
   134    32    33    1
   135   108   109    1
   136   108   107    1
   137   141   139   ar
   138    92    89    1
   139   127   125   ar
   140   121   120    1
   141   157   156    1
   142   160   159    1
   143   120   119    1
   144    91    90    2
   145   138   139   ar
   146   138   137    1
   147    90    89    1
   148   155   154    2
   149   158   156    1
   150   105   104    1
   151   107   101   am
   152    89    88    1
   153   133   134    1
   154   156   153    1
   155   153   154    1
   156   153   152    1
   157   137   134    1
   158   102   101    2
   159   147   146    2
   160   101   100    1
   161   149   150    1
   162   149   148    1
   163   134   135    1
   164   104   106    1
   165   104   103    1
   166   150   151    1
   167   152   146   am
   168   146   145    1
   169   136   135    2
   170   100   103    1
   171   100    99    1
   172   148   145    1
   173   145   144    1
