@<TRIPOS>MOLECULE
tmp/4rs2B00.pdb
 175 172 0 0 0
SMALL
GASTEIGER

@<TRIPOS>ATOM
      1  N         12.9050   18.1790   47.9390 N.3    32  SER32      -0.1202
      2  CA        11.9180   17.4030   48.7020 C.3    32  SER32       0.2020
      3  C         12.4030   16.5840   49.8900 C.2    32  SER32       0.2619
      4  O         11.6030   16.2450   50.7600 O.2    32  SER32      -0.2717
      5  CB        11.1640   16.4700   47.7700 C.3    32  SER32       0.2103
      6  OG        10.4870   17.2310   46.7850 O.3    32  SER32      -0.2182
      7  N         13.6850   16.2530   49.9120 N.am   33  PHE33      -0.1961
      8  CA        14.2670   15.4610   50.9670 C.3    33  PHE33       0.1771
      9  C         15.1620   16.3040   51.8520 C.2    33  PHE33       0.2619
     10  O         15.5450   17.4230   51.4930 O.2    33  PHE33      -0.2715
     11  CB        15.0070   14.2530   50.3780 C.3    33  PHE33       0.0574
     12  CG        14.0660   13.2540   49.7870 C.ar   33  PHE33      -0.0200
     13  CD1       13.4940   12.2900   50.5880 C.ar   33  PHE33      -0.0042
     14  CD2       13.6780   13.3280   48.4630 C.ar   33  PHE33      -0.0042
     15  CE1       12.5670   11.3910   50.0810 C.ar   33  PHE33      -0.0003
     16  CE2       12.7440   12.4430   47.9620 C.ar   33  PHE33      -0.0003
     17  CZ        12.1880   11.4740   48.7870 C.ar   33  PHE33      -0.0000
     18  N         15.4730   15.7710   53.0200 N.am   34  GLU34      -0.1977
     19  CA        16.3130   16.4750   53.9880 C.3    34  GLU34       0.1602
     20  C         17.7710   16.5380   53.5480 C.2    34  GLU34       0.2287
     21  O         18.5190   17.3840   54.0290 O.2    34  GLU34      -0.2864
     22  CB        16.2610   15.7890   55.3420 C.3    34  GLU34       0.0415
     23  CG        15.0810   16.2330   56.1970 C.3    34  GLU34       0.1163
     24  CD        13.7850   16.1570   55.4420 C.2    34  GLU34       0.3649
     25  OE1       13.5160   15.1020   54.8170 O.co2  34  GLU34      -0.2457
     26  OE2       13.0330   17.1580   55.4750 O.co2  34  GLU34      -0.2457
     27  N         10.3290    8.1390   46.3760 N.3    88  LEU88      -0.1231
     28  CA         8.9770    8.5640   46.0490 C.3    88  LEU88       0.1693
     29  C          8.8430    9.9990   46.5360 C.2    88  LEU88       0.2592
     30  O          9.0780   10.2960   47.7060 O.2    88  LEU88      -0.2718
     31  CB         7.9510    7.6880   46.7560 C.3    88  LEU88       0.0284
     32  CG         6.4950    8.1290   46.5850 C.3    88  LEU88       0.0019
     33  CD1        6.0110    8.1070   45.1350 C.3    88  LEU88       0.0001
     34  CD2        5.6130    7.2680   47.4810 C.3    88  LEU88       0.0001
     35  N          8.4640   10.9070   45.6390 N.am   89  ALA89      -0.1966
     36  CA         8.3740   12.3210   45.9720 C.3    89  ALA89       0.1728
     37  C          7.3290   13.0820   45.2020 C.2    89  ALA89       0.2616
     38  O          7.1250   12.8260   44.0290 O.2    89  ALA89      -0.2715
     39  CB         9.7060   12.9990   45.7520 C.3    89  ALA89       0.0334
     40  N          6.6480   13.9850   45.8940 N.am   90  VAL90      -0.1977
     41  CA         5.7120   14.9140   45.2680 C.3    90  VAL90       0.1596
     42  C          6.1070   16.3320   45.7360 C.2    90  VAL90       0.2287
     43  O          6.4000   16.5610   46.9120 O.2    90  VAL90      -0.2864
     44  CB         4.2430   14.5960   45.6350 C.3    90  VAL90       0.0276
     45  CG1        3.2890   15.7020   45.1720 C.3    90  VAL90       0.0022
     46  CG2        3.8190   13.2400   45.0880 C.3    90  VAL90       0.0022
     47  N          2.0230   20.5230   45.6320 N.3    94  TYR94      -0.1227
     48  CA         0.9590   19.6540   45.2210 C.3    94  TYR94       0.1736
     49  C          0.6750   18.4900   46.1280 C.2    94  TYR94       0.2595
     50  O          0.0080   17.5440   45.7010 O.2    94  TYR94      -0.2718
     51  CB         1.3050   19.1250   43.8400 C.3    94  TYR94       0.0548
     52  CG         1.3790   20.2230   42.8170 C.ar   94  TYR94      -0.0200
     53  CD1        0.2740   21.0390   42.5790 C.ar   94  TYR94      -0.0009
     54  CD2        2.5320   20.4370   42.0780 C.ar   94  TYR94      -0.0009
     55  CE1        0.3360   22.0580   41.6480 C.ar   94  TYR94       0.0417
     56  CE2        2.6040   21.4510   41.1480 C.ar   94  TYR94       0.0417
     57  CZ         1.5050   22.2370   40.9210 C.ar   94  TYR94       0.1957
     58  OH         1.5740   23.2360   39.9830 O.3    94  TYR94      -0.2866
     59  N          1.1250   18.5520   47.3730 N.am   95  ARG95      -0.1966
     60  CA         0.8620   17.4620   48.2800 C.3    95  ARG95       0.1729
     61  C         -0.5660   17.4370   48.7340 C.2    95  ARG95       0.2617
     62  O         -1.2430   18.4860   48.7880 O.2    95  ARG95      -0.2715
     63  CB         1.8140   17.4510   49.4640 C.3    95  ARG95       0.0348
     64  CG         3.2150   17.1420   48.9970 C.3    95  ARG95       0.0492
     65  CD         4.2310   17.1920   50.0920 C.3    95  ARG95       0.2205
     66  NE         5.5400   17.0940   49.4940 N.pl3  95  ARG95      -0.0865
     67  CZ         6.6790   17.4130   50.0900 C.cat  95  ARG95       0.5346
     68  NH1        6.6880   17.9020   51.3320 N.pl3  95  ARG95       0.1354
     69  NH2        7.7980   17.3060   49.4030 N.pl3  95  ARG95       0.1354
     70  N         -1.0180   16.2240   49.0050 N.am   96  GLY96      -0.1940
     71  CA        -2.3690   15.9980   49.4790 C.3    96  GLY96       0.2014
     72  C         -3.4040   15.9370   48.3710 C.2    96  GLY96       0.2639
     73  O         -4.6150   15.9980   48.6570 O.2    96  GLY96      -0.2714
     74  N         -2.9660   15.8190   47.1210 N.am   97  GLN97      -0.1963
     75  CA        -3.8620   15.7670   45.9810 C.3    97  GLN97       0.1733
     76  C         -4.0200   14.3500   45.3950 C.2    97  GLN97       0.2617
     77  O         -4.7460   14.1620   44.4260 O.2    97  GLN97      -0.2715
     78  CB        -3.4050   16.7550   44.9040 C.3    97  GLN97       0.0408
     79  CG        -3.3820   18.1830   45.4100 C.3    97  GLN97       0.0908
     80  CD        -2.9300   19.2060   44.3760 C.2    97  GLN97       0.2608
     81  OE1       -2.9720   18.9580   43.1700 O.2    97  GLN97      -0.2717
     82  NE2       -2.5010   20.3720   44.8550 N.am   97  GLN97      -0.0878
     83  N         -3.3680   13.3690   46.0260 N.am   98  GLY98      -0.1940
     84  CA        -3.3730   11.9740   45.6010 C.3    98  GLY98       0.2014
     85  C         -2.3590   11.5590   44.5480 C.2    98  GLY98       0.2639
     86  O         -2.4380   10.4560   43.9960 O.2    98  GLY98      -0.2714
     87  N         -1.4060   12.4360   44.2200 N.am   99  LEU99      -0.1963
     88  CA        -0.3910   12.1190   43.2070 C.3    99  LEU99       0.1728
     89  C          0.5430   10.9790   43.6170 C.2    99  LEU99       0.2616
     90  O          0.9180   10.1740   42.7740 O.2    99  LEU99      -0.2715
     91  CB         0.4680   13.3340   42.8420 C.3    99  LEU99       0.0311
     92  CG        -0.1500   14.4280   41.9710 C.3    99  LEU99       0.0022
     93  CD1        0.6880   15.6970   42.0770 C.3    99  LEU99       0.0001
     94  CD2       -0.2890   13.9640   40.5260 C.3    99  LEU99       0.0001
     95  N          0.9160   10.8890   44.8920 N.am  100  ALA100     -0.1963
     96  CA         1.8350    9.8140   45.3210 C.3   100  ALA100      0.1728
     97  C          1.1040    8.4800   45.1740 C.2   100  ALA100      0.2616
     98  O          1.6480    7.4990   44.6450 O.2   100  ALA100     -0.2715
     99  CB         2.2920   10.0000   46.7510 C.3   100  ALA100      0.0334
    100  N         -0.1400    8.4530   45.6440 N.am  101  ARG101     -0.1977
    101  CA        -0.9620    7.2660   45.5120 C.3   101  ARG101      0.1597
    102  C         -1.0240    6.8100   44.0560 C.2   101  ARG101      0.2287
    103  O         -0.8700    5.6410   43.7710 O.2   101  ARG101     -0.2864
    104  CB        -2.3630    7.5180   46.0550 C.3   101  ARG101      0.0334
    105  CG        -3.3330    6.3520   45.8100 C.3   101  ARG101      0.0492
    106  CD        -4.6680    6.5660   46.5150 C.3   101  ARG101      0.2205
    107  NE        -4.6500    6.3770   47.9680 N.pl3 101  ARG101     -0.0865
    108  CZ        -4.6730    5.1840   48.5650 C.cat 101  ARG101      0.5346
    109  NH1       -4.6940    4.0870   47.8550 N.pl3 101  ARG101      0.1354
    110  NH2       -4.6790    5.0810   49.8940 N.pl3 101  ARG101      0.1354
    111  N          7.8410    4.4800   56.0570 N.3   124  ASP124     -0.1239
    112  CA         6.8690    4.4560   57.1060 C.3   124  ASP124      0.1674
    113  C          5.6990    3.5790   56.6930 C.2   124  ASP124      0.2266
    114  O          5.0430    3.8640   55.6680 O.2   124  ASP124     -0.2867
    115  CB         6.3930    5.8850   57.3770 C.3   124  ASP124      0.1410
    116  CG         5.6190    6.0130   58.6630 C.2   124  ASP124      0.3668
    117  OD1        5.0700    5.0090   59.2000 O.co2 124  ASP124     -0.2456
    118  OD2        5.5550    7.1710   59.1650 O.co2 124  ASP124     -0.2456
    119  N          2.8650    3.5230   57.9600 N.3   126  ALA126     -0.1231
    120  CA         1.6580    4.3610   58.0320 C.3   126  ALA126      0.1694
    121  C          1.4040    4.9960   56.6690 C.2   126  ALA126      0.2592
    122  O          0.2700    5.3740   56.3760 O.2   126  ALA126     -0.2718
    123  CB         1.7670    5.4230   59.1260 C.3   126  ALA126      0.0304
    124  N          2.4590    5.1300   55.8560 N.am  127  LEU127     -0.1966
    125  CA         2.3160    5.5920   54.4680 C.3   127  LEU127      0.1728
    126  C          2.0810    4.4080   53.5110 C.2   127  LEU127      0.2616
    127  O          1.0410    4.3210   52.8410 O.2   127  LEU127     -0.2715
    128  CB         3.5530    6.4050   54.0320 C.3   127  LEU127      0.0311
    129  CG         3.6490    6.7880   52.5560 C.3   127  LEU127      0.0022
    130  CD1        2.4980    7.6680   52.1050 C.3   127  LEU127      0.0001
    131  CD2        4.9210    7.5220   52.2720 C.3   127  LEU127      0.0001
    132  N          3.0160    3.4520   53.4830 N.am  128  TYR128     -0.1974
    133  CA         2.9680    2.3980   52.4500 C.3   128  TYR128      0.1639
    134  C          1.9030    1.3670   52.5950 C.2   128  TYR128      0.2290
    135  O          1.4720    0.7690   51.5970 O.2   128  TYR128     -0.2864
    136  CB         4.3600    1.7790   52.2210 C.3   128  TYR128      0.0560
    137  CG         5.2830    2.8310   51.6840 C.ar  128  TYR128     -0.0198
    138  CD1        5.2520    3.1580   50.3350 C.ar  128  TYR128     -0.0009
    139  CD2        6.0980    3.5560   52.5060 C.ar  128  TYR128     -0.0009
    140  CE1        6.0630    4.1390   49.8330 C.ar  128  TYR128      0.0417
    141  CE2        6.9280    4.5550   52.0150 C.ar  128  TYR128      0.0417
    142  CZ         6.8890    4.8460   50.6630 C.ar  128  TYR128      0.1957
    143  OH         7.6840    5.8520   50.1380 O.3   128  TYR128     -0.2866
    144  N         -1.0160    2.0250   53.0160 N.3   130  ARG130     -0.1231
    145  CA        -2.1470    2.6260   52.3040 C.3   130  ARG130      0.1694
    146  C         -2.2040    2.1990   50.8490 C.2   130  ARG130      0.2592
    147  O         -3.2750    2.2360   50.2270 O.2   130  ARG130     -0.2718
    148  CB        -2.0500    4.1500   52.3460 C.3   130  ARG130      0.0321
    149  CG        -2.0640    4.7490   53.7300 C.3   130  ARG130      0.0489
    150  CD        -1.7830    6.2250   53.6490 C.3   130  ARG130      0.2205
    151  NE        -1.8020    6.8350   54.9580 N.pl3 130  ARG130     -0.0865
    152  CZ        -2.8960    7.1950   55.6100 C.cat 130  ARG130      0.5346
    153  NH1       -4.1110    6.9900   55.0960 N.pl3 130  ARG130      0.1354
    154  NH2       -2.7820    7.7210   56.8190 N.pl3 130  ARG130      0.1354
    155  N         -1.0490    1.7910   50.3230 N.am  131  PHE131     -0.1976
    156  CA        -0.9100    1.3890   48.9350 C.3   131  PHE131      0.1639
    157  C         -0.8420   -0.1340   48.7570 C.2   131  PHE131      0.2290
    158  O         -0.5000   -0.6210   47.6700 O.2   131  PHE131     -0.2864
    159  CB         0.3150    2.0460   48.3210 C.3   131  PHE131      0.0560
    160  CG         0.4220    3.5140   48.6090 C.ar  131  PHE131     -0.0200
    161  CD1       -0.7000    4.3450   48.5200 C.ar  131  PHE131     -0.0042
    162  CD2        1.6340    4.0730   48.9030 C.ar  131  PHE131     -0.0042
    163  CE1       -0.5930    5.6930   48.7690 C.ar  131  PHE131     -0.0003
    164  CE2        1.7520    5.4230   49.1610 C.ar  131  PHE131     -0.0003
    165  CZ         0.6290    6.2390   49.0920 C.ar  131  PHE131     -0.0000
    166  N         15.7070    8.0320   53.1190 N.3   181  CYS181     -0.1221
    167  CA        14.4540    7.9280   53.8610 C.3   181  CYS181      0.1808
    168  C         14.1550    6.4640   54.2300 C.2   181  CYS181      0.2601
    169  O         14.3550    5.5560   53.4280 O.2   181  CYS181     -0.2717
    170  CB        13.3200    8.5390   53.0130 C.3   181  CYS181      0.0970
    171  SG        11.7820    8.8110   53.9150 S.3   181  CYS181     -0.0800
    172  N         13.6880    6.2340   55.4620 N.am  182  GLY182     -0.1957
    173  CA        13.3890    4.9010   55.9360 C.3   182  GLY182      0.1869
    174  C         14.5610    4.1770   56.5720 C.2   182  GLY182      0.2309
    175  O         14.3690    3.1320   57.1800 O.2   182  GLY182     -0.2863
@<TRIPOS>BOND
     1    58    57    1
     2    94    92    1
     3    57    56   ar
     4    57    55   ar
     5    56    54   ar
     6    55    53   ar
     7    92    93    1
     8    92    91    1
     9    54    52   ar
    10    53    52   ar
    11    90    89    2
    12    52    51    1
    13    91    88    1
    14    81    80    2
    15    88    89    1
    16    88    87    1
    17    89    95   am
    18   103   102    2
    19    51    48    1
    20    86    85    2
    21    38    37    2
    22   102   101    1
    23    87    85   am
    24    80    82   am
    25    80    79    1
    26    77    76    2
    27    85    84    1
    28    98    97    2
    29    95    96    1
    30    78    79    1
    31    78    75    1
    32    46    44    1
    33    33    32    1
    34    45    44    1
    35    97    96    1
    36    97   100   am
    37    37    40   am
    38    37    36    1
    39    48    47    1
    40    48    49    1
    41    41    44    1
    42    41    42    1
    43    41    40    1
    44    96    99    1
    45    76    75    1
    46    76    83   am
    47   101   100    1
    48   101   104    1
    49    84    83    1
    50    35    36    1
    51    35    29   am
    52    50    49    2
    53    42    43    2
    54    39    36    1
    55   105   104    1
    56   105   106    1
    57    75    74    1
    58    28    27    1
    59    28    29    1
    60    28    31    1
    61    49    59   am
    62   106   107    1
    63    29    30    2
    64    32    31    1
    65    32    34    1
    66     6     5    1
    67    74    72   am
    68    59    60    1
    69   158   157    2
    70     5     2    1
    71   109   108    1
    72     1     2    1
    73    16    14   ar
    74    16    17   ar
    75   107   108    2
    76    60    61    1
    77    60    63    1
    78   159   160    1
    79   159   156    1
    80    72    73    2
    81    72    71    1
    82    14    12   ar
    83   161   160   ar
    84   161   163   ar
    85   108   110    1
    86   160   162   ar
    87     2     3    1
    88    61    62    2
    89    61    70   am
    90   157   156    1
    91   163   165   ar
    92    17    15   ar
    93   162   164   ar
    94   156   155    1
    95    64    63    1
    96    64    65    1
    97    70    71    1
    98   165   164   ar
    99    69    67    1
   100    66    67    2
   101    66    65    1
   102    12    11    1
   103    12    13   ar
   104   140   138   ar
   105   140   142   ar
   106     3     7   am
   107     3     4    2
   108     7     8    1
   109    15    13   ar
   110    67    68    1
   111   143   142    1
   112   147   146    2
   113   155   146   am
   114   138   137   ar
   115    11     8    1
   116   142   141   ar
   117   146   145    1
   118     8     9    1
   119    10     9    2
   120   135   134    2
   121   137   136    1
   122   137   139   ar
   123     9    18   am
   124   141   139   ar
   125   130   129    1
   126   136   133    1
   127   131   129    1
   128   145   148    1
   129   145   144    1
   130   148   149    1
   131   133   134    1
   132   133   132    1
   133   129   128    1
   134   127   126    2
   135   170   167    1
   136   170   171    1
   137    18    19    1
   138   166   167    1
   139   169   168    2
   140   132   126   am
   141   126   125    1
   142    20    19    1
   143    20    21    2
   144   150   149    1
   145   150   151    1
   146   167   168    1
   147    19    22    1
   148   128   125    1
   149   168   172   am
   150   125   124    1
   151    25    24   ar
   152   151   152    2
   153   153   152    1
   154    22    23    1
   155    24    26   ar
   156    24    23    1
   157   172   173    1
   158   152   154    1
   159   114   113    2
   160   124   121   am
   161   173   174    1
   162   111   112    1
   163   122   121    2
   164   174   175    2
   165   121   120    1
   166   113   112    1
   167   112   115    1
   168   115   116    1
   169   119   120    1
   170   120   123    1
   171   116   118   ar
   172   116   117   ar
