@<TRIPOS>MOLECULE
tmp/4rs3A00.pdb
 126 118 0 0 0
SMALL
GASTEIGER

@<TRIPOS>ATOM
      1  N         51.1220    3.0800   10.9700 N.3     9  TYR9       -0.1241
      2  CA        52.3200    2.5680   10.3060 C.3     9  TYR9        0.1605
      3  C         52.9650    1.4360   11.0870 C.2     9  TYR9        0.2264
      4  O         53.4530    0.4450   10.4760 O.2     9  TYR9       -0.2867
      5  CB        53.3580    3.6640    9.9010 C.3     9  TYR9        0.0534
      6  CG        53.8570    4.4030   11.1300 C.ar    9  TYR9       -0.0201
      7  CD1       53.2030    5.4960   11.5680 C.ar    9  TYR9       -0.0009
      8  CD2       55.0170    4.0300   11.7350 C.ar    9  TYR9       -0.0009
      9  CE1       53.6430    6.1750   12.7210 C.ar    9  TYR9        0.0417
     10  CE2       55.4720    4.6760   12.8960 C.ar    9  TYR9        0.0417
     11  CZ        54.7750    5.7650   13.3390 C.ar    9  TYR9        0.1957
     12  OH        55.2570    6.4170   14.4790 O.3     9  TYR9       -0.2866
     13  N         55.1920    2.0730   17.1160 N.3    11  SER11      -0.1217
     14  CA        56.3200    2.7960   17.5860 C.3    11  SER11       0.1889
     15  C         56.1140    3.2330   19.0250 C.2    11  SER11       0.2288
     16  O         55.0260    3.1650   19.5310 O.2    11  SER11      -0.2866
     17  CB        56.5120    4.0070   16.6690 C.3    11  SER11       0.2089
     18  OG        55.3990    4.8970   16.8270 O.3    11  SER11      -0.2183
     19  N         55.9480    6.2770   20.1960 N.3    13  PHE13      -0.1241
     20  CA        54.9540    7.3570   20.1720 C.3    13  PHE13       0.1605
     21  C         53.5650    6.7770   20.0850 C.2    13  PHE13       0.2264
     22  O         52.6600    7.2020   20.8100 O.2    13  PHE13      -0.2867
     23  CB        55.2490    8.3390   19.0270 C.3    13  PHE13       0.0534
     24  CG        54.1350    9.2730   18.7570 C.ar   13  PHE13      -0.0203
     25  CD1       53.9910   10.4210   19.5900 C.ar   13  PHE13      -0.0042
     26  CD2       53.2060    9.0460   17.7790 C.ar   13  PHE13      -0.0042
     27  CE1       52.9480   11.2540   19.4100 C.ar   13  PHE13      -0.0003
     28  CE2       52.1210    9.8670   17.6270 C.ar   13  PHE13      -0.0003
     29  CZ        52.0120   11.0020   18.4130 C.ar   13  PHE13      -0.0000
     30  N         49.7220    7.3090    8.4310 N.3    62  PRO62      -0.2116
     31  CA        50.2400    6.6570    7.2160 C.3    62  PRO62       0.1372
     32  C         51.7080    6.2580    7.2770 C.2    62  PRO62       0.2244
     33  O         52.5090    6.8080    8.0170 O.2    62  PRO62      -0.2868
     34  CB        50.0560    7.7370    6.1510 C.3    62  PRO62       0.0268
     35  CG        50.0420    8.9970    6.8820 C.3    62  PRO62       0.0207
     36  CD        49.3700    8.7020    8.1840 C.3    62  PRO62       0.0892
     37  N         48.5390   12.4620   12.5930 N.3    86  ASN86      -0.1225
     38  CA        49.9430   12.3470   12.9710 C.3    86  ASN86       0.1785
     39  C         50.9540   12.3960   11.8340 C.2    86  ASN86       0.2597
     40  O         51.9970   13.0070   11.9900 O.2    86  ASN86      -0.2718
     41  CB        50.1230   11.1200   13.9470 C.3    86  ASN86       0.1169
     42  CG        51.5770   10.8770   14.3210 C.2    86  ASN86       0.2627
     43  OD1       52.0800    9.7720   14.0740 O.2    86  ASN86      -0.2716
     44  ND2       52.2120   11.8270   14.9780 N.am   86  ASN86      -0.0877
     45  N         50.6670   11.7550   10.7090 N.am   87  ALA87      -0.1979
     46  CA        51.4520   11.9730    9.5040 C.3    87  ALA87       0.1597
     47  C         50.4720   12.2130    8.3540 C.2    87  ALA87       0.2287
     48  O         49.3030   11.8630    8.4590 O.2    87  ALA87      -0.2864
     49  CB        52.4020   10.8140    9.2110 C.3    87  ALA87       0.0319
     50  N         50.6950   17.2710   13.4740 N.3   100  PRO100     -0.2116
     51  CA        51.7250   18.1130   14.0700 C.3   100  PRO100      0.1372
     52  C         52.3080   19.0540   13.0510 C.2   100  PRO100      0.2244
     53  O         52.3640   18.7560   11.8660 O.2   100  PRO100     -0.2868
     54  CB        52.8200   17.1050   14.5200 C.3   100  PRO100      0.0268
     55  CG        52.6810   15.9950   13.5690 C.3   100  PRO100      0.0207
     56  CD        51.1860   15.8900   13.2440 C.3   100  PRO100      0.0892
     57  N         55.3050   19.6210   11.8150 N.3   102  ASP102     -0.1239
     58  CA        56.5890   18.9610   11.7610 C.3   102  ASP102      0.1674
     59  C         57.7260   19.8660   11.2270 C.2   102  ASP102      0.2266
     60  O         58.8830   19.6600   11.5890 O.2   102  ASP102     -0.2867
     61  CB        56.5100   17.6570   10.9260 C.3   102  ASP102      0.1410
     62  CG        56.1160   16.4310   11.7370 C.2   102  ASP102      0.3668
     63  OD1       56.3330   16.4430   12.9530 O.co2 102  ASP102     -0.2456
     64  OD2       55.6170   15.4620   11.1040 O.co2 102  ASP102     -0.2456
     65  N         56.7760   12.9570    8.1280 N.3   131  GLY131     -0.1225
     66  CA        57.6760   13.2880    9.2880 C.3   131  GLY131      0.1811
     67  C         59.0700   13.6860    8.8190 C.2   131  GLY131      0.2280
     68  O         59.5710   14.7420    9.1460 O.2   131  GLY131     -0.2866
     69  N         60.0930   17.5310    8.8460 N.3   135  ARG135     -0.1245
     70  CA        61.1690   17.8180    9.8480 C.3   135  ARG135      0.1563
     71  C         62.4250   18.1760    9.1030 C.2   135  ARG135      0.2260
     72  O         63.1820   19.0290    9.5580 O.2   135  ARG135     -0.2867
     73  CB        61.3880   16.6680   10.8220 C.3   135  ARG135      0.0307
     74  CG        60.1810   16.5220   11.7510 C.3   135  ARG135      0.0489
     75  CD        60.2270   15.3220   12.6910 C.3   135  ARG135      0.2205
     76  NE        58.9510   15.2330   13.3540 N.pl3 135  ARG135     -0.0865
     77  CZ        58.5070   14.1950   14.0520 C.cat 135  ARG135      0.5346
     78  NH1       59.3110   13.2190   14.4350 N.pl3 135  ARG135      0.1354
     79  NH2       57.2530   14.1170   14.3500 N.pl3 135  ARG135      0.1354
     80  N         62.4780    5.4780   12.2970 N.3   159  TRP159     -0.1241
     81  CA        61.9500    5.7410   13.6700 C.3   159  TRP159      0.1605
     82  C         62.4480    4.7440   14.7180 C.2   159  TRP159      0.2264
     83  O         62.0010    4.7970   15.8260 O.2   159  TRP159     -0.2867
     84  CB        60.4110    5.7720   13.7430 C.3   159  TRP159      0.0550
     85  CG        59.6950    6.7210   12.8510 C.ar  159  TRP159      0.0003
     86  CD1       58.5200    6.4700   12.1510 C.ar  159  TRP159      0.0946
     87  CD2       59.9370    8.1190   12.6910 C.ar  159  TRP159      0.0152
     88  NE1       58.0700    7.6100   11.5570 N.ar  159  TRP159     -0.2442
     89  CE2       58.9200    8.6280   11.8670 C.ar  159  TRP159      0.0810
     90  CE3       60.9270    9.0200   13.1390 C.ar  159  TRP159      0.0012
     91  CZ2       58.8710    9.9700   11.4730 C.ar  159  TRP159      0.0191
     92  CZ3       60.8490   10.3540   12.7510 C.ar  159  TRP159      0.0001
     93  CH2       59.8460   10.8160   11.9290 C.ar  159  TRP159      0.0015
     94  N         63.5090   11.5790   15.7960 N.3   185  ASN185     -0.1240
     95  CA        62.6800   11.2300   16.9430 C.3   185  ASN185      0.1653
     96  C         63.5740   10.8200   18.1060 C.2   185  ASN185      0.2266
     97  O         64.7810   10.5750   17.9400 O.2   185  ASN185     -0.2867
     98  CB        61.5610   10.2200   16.6340 C.3   185  ASN185      0.1155
     99  CG        62.0130    8.7730   16.5220 C.2   185  ASN185      0.2627
    100  OD1       63.2220    8.4800   16.4330 O.2   185  ASN185     -0.2716
    101  ND2       61.0380    7.8730   16.4830 N.am  185  ASN185     -0.0877
    102  N         63.4130    7.9710   19.8030 N.3   187  ASP187     -0.1239
    103  CA        63.8110    6.5820   19.6180 C.3   187  ASP187      0.1674
    104  C         65.1730    6.4650   18.9400 C.2   187  ASP187      0.2266
    105  O         66.0310    5.7040   19.3880 O.2   187  ASP187     -0.2867
    106  CB        62.7560    5.8270   18.8060 C.3   187  ASP187      0.1410
    107  CG        61.5700    5.3990   19.6470 C.2   187  ASP187      0.3668
    108  OD1       61.7210    4.4600   20.4560 O.co2 187  ASP187     -0.2456
    109  OD2       60.4850    6.0010   19.4990 O.co2 187  ASP187     -0.2456
    110  N         59.7380   14.0840   20.4060 N.3   209  ASP209     -0.1239
    111  CA        58.5480   13.3760   20.8760 C.3   209  ASP209      0.1674
    112  C         58.3170   13.4920   22.3940 C.2   209  ASP209      0.2266
    113  O         57.1890   13.5870   22.8250 O.2   209  ASP209     -0.2867
    114  CB        58.5220   11.8760   20.6130 C.3   209  ASP209      0.1410
    115  CG        58.2130   11.4870   19.1770 C.2   209  ASP209      0.3668
    116  OD1       57.5840   12.2780   18.4330 O.co2 209  ASP209     -0.2456
    117  OD2       58.6240   10.3460   18.7910 O.co2 209  ASP209     -0.2456
    118  N         55.5490   15.6680   21.8480 N.3   229  GLN229     -0.1245
    119  CA        54.4380   15.1960   21.0120 C.3   229  GLN229      0.1566
    120  C         53.7540   14.1250   21.8390 C.2   229  GLN229      0.2260
    121  O         54.1100   12.9570   21.8180 O.2   229  GLN229     -0.2867
    122  CB        54.9410   14.6390   19.6710 C.3   229  GLN229      0.0367
    123  CG        53.7760   14.6250   18.6860 C.3   229  GLN229      0.0905
    124  CD        54.0180   14.0250   17.3460 C.2   229  GLN229      0.2608
    125  OE1       53.1490   14.1640   16.4570 O.2   229  GLN229     -0.2717
    126  NE2       55.0960   13.3010   17.2030 N.am  229  GLN229     -0.0878
@<TRIPOS>BOND
     1    34    35    1
     2    34    31    1
     3    35    36    1
     4    31    32    1
     5    31    30    1
     6    32    33    2
     7    65    66    1
     8    36    30    1
     9    47    48    2
    10    47    46    1
    11    67    68    2
    12    67    66    1
    13    69    70    1
    14    71    72    2
    15    71    70    1
    16    49    46    1
    17    46    45    1
    18    70    73    1
    19     5     2    1
    20     5     6    1
    21     2     1    1
    22     2     3    1
    23     4     3    2
    24    45    39   am
    25    73    74    1
    26    61    62    1
    27    61    58    1
    28    64    62   ar
    29     6     7   ar
    30     6     8   ar
    31    59    60    2
    32    59    58    1
    33    91    89   ar
    34    91    93   ar
    35    88    89   ar
    36    88    86   ar
    37     7     9   ar
    38     8    10   ar
    39    62    63   ar
    40    74    75    1
    41    58    57    1
    42    39    40    2
    43    39    38    1
    44    53    52    2
    45    89    87   ar
    46    93    92   ar
    47    86    85   ar
    48    80    81    1
    49    37    38    1
    50    75    76    1
    51    87    85   ar
    52    87    90   ar
    53     9    11   ar
    54    92    90   ar
    55    85    84    1
    56    10    11   ar
    57    38    41    1
    58    52    51    1
    59    56    50    1
    60    56    55    1
    61    11    12    1
    62    76    77    2
    63    50    51    1
    64    55    54    1
    65    81    84    1
    66    81    82    1
    67    41    42    1
    68    77    79    1
    69    77    78    1
    70    51    54    1
    71    43    42    2
    72    42    44   am
    73    82    83    2
    74    94    95    1
    75   100    99    2
    76   125   124    2
    77   101    99   am
    78    99    98    1
    79    98    95    1
    80    17    18    1
    81    17    14    1
    82    95    96    1
    83    13    14    1
    84   126   124   am
    85   124   123    1
    86    14    15    1
    87    28    26   ar
    88    28    29   ar
    89    26    24   ar
    90    97    96    2
    91    29    27   ar
    92   116   115   ar
    93   123   122    1
    94    24    23    1
    95    24    25   ar
    96   117   115   ar
    97   106   103    1
    98   106   107    1
    99   104   105    2
   100   104   103    1
   101    15    16    2
   102    23    20    1
   103   115   114    1
   104    27    25   ar
   105   109   107   ar
   106   103   102    1
   107   107   108   ar
   108   122   119    1
   109    21    20    1
   110    21    22    2
   111    20    19    1
   112   110   111    1
   113   114   111    1
   114   111   112    1
   115   119   120    1
   116   119   118    1
   117   121   120    2
   118   112   113    2
