@<TRIPOS>MOLECULE
tmp/4rseB01.pdb
 196 191 0 0 0
SMALL
GASTEIGER

@<TRIPOS>ATOM
      1  N        -44.9250  114.7960  -44.9830 N.3    60  PHE60      -0.1241
      2  CA       -45.9890  113.8140  -44.9360 C.3    60  PHE60       0.1605
      3  C        -46.8260  113.7300  -46.2250 C.2    60  PHE60       0.2264
      4  O        -47.8640  113.0680  -46.2250 O.2    60  PHE60      -0.2867
      5  CB       -46.8810  114.0900  -43.7260 C.3    60  PHE60       0.0534
      6  CG       -46.1350  114.1840  -42.4310 C.ar   60  PHE60      -0.0203
      7  CD1      -45.2010  113.2280  -42.0720 C.ar   60  PHE60      -0.0042
      8  CD2      -46.3970  115.2210  -41.5410 C.ar   60  PHE60      -0.0042
      9  CE1      -44.5160  113.3210  -40.8750 C.ar   60  PHE60      -0.0003
     10  CE2      -45.7160  115.3180  -40.3370 C.ar   60  PHE60      -0.0003
     11  CZ       -44.7740  114.3650  -40.0040 C.ar   60  PHE60      -0.0000
     12  N        -51.3700  116.2230  -46.9570 N.3   102  PHE102     -0.1241
     13  CA       -51.2620  116.9610  -45.7010 C.3   102  PHE102      0.1605
     14  C        -50.8980  118.4510  -45.8300 C.2   102  PHE102      0.2264
     15  O        -51.5650  119.3220  -45.2870 O.2   102  PHE102     -0.2867
     16  CB       -50.2300  116.2710  -44.8060 C.3   102  PHE102      0.0534
     17  CG       -50.1640  116.8460  -43.4360 C.ar  102  PHE102     -0.0203
     18  CD1      -51.2400  116.6850  -42.5570 C.ar  102  PHE102     -0.0042
     19  CD2      -49.0520  117.5670  -43.0270 C.ar  102  PHE102     -0.0042
     20  CE1      -51.2020  117.2320  -41.2890 C.ar  102  PHE102     -0.0003
     21  CE2      -49.0080  118.1080  -41.7600 C.ar  102  PHE102     -0.0003
     22  CZ       -50.0860  117.9410  -40.8900 C.ar  102  PHE102     -0.0000
     23  N        -60.7450  112.7100  -49.2700 N.3   110  VAL110     -0.1231
     24  CA       -59.6750  112.5340  -48.2620 C.3   110  VAL110      0.1692
     25  C        -58.5450  111.6050  -48.7300 C.2   110  VAL110      0.2592
     26  O        -58.7900  110.5440  -49.3140 O.2   110  VAL110     -0.2718
     27  CB       -60.2700  112.0020  -46.9280 C.3   110  VAL110      0.0266
     28  CG1      -59.1980  111.7650  -45.8650 C.3   110  VAL110      0.0020
     29  CG2      -61.3240  112.9720  -46.3960 C.3   110  VAL110      0.0020
     30  N        -57.3040  111.9970  -48.4600 N.am  111  THR111     -0.1953
     31  CA       -56.1540  111.1650  -48.8180 C.3   111  THR111      0.1897
     32  C        -56.1500  109.8310  -48.0750 C.2   111  THR111      0.2313
     33  O        -56.5590  109.7500  -46.8970 O.2   111  THR111     -0.2863
     34  CB       -54.7890  111.8930  -48.6180 C.3   111  THR111      0.1794
     35  OG1      -53.7270  111.0940  -49.1560 O.3   111  THR111     -0.2208
     36  CG2      -54.4790  112.2220  -47.1420 C.3   111  THR111      0.0378
     37  N        -48.5610  106.3040  -45.7520 N.3   115  LEU115     -0.1231
     38  CA       -47.1080  106.4110  -45.7020 C.3   115  LEU115      0.1693
     39  C        -46.4590  106.2300  -44.3170 C.2   115  LEU115      0.2591
     40  O        -45.2280  106.1810  -44.2300 O.2   115  LEU115     -0.2718
     41  CB       -46.6780  107.7400  -46.3160 C.3   115  LEU115      0.0284
     42  CG       -46.7830  109.0500  -45.5260 C.3   115  LEU115      0.0019
     43  CD1      -45.8660  110.0640  -46.1810 C.3   115  LEU115      0.0001
     44  CD2      -48.1820  109.6350  -45.4460 C.3   115  LEU115      0.0001
     45  N        -47.2640  106.1040  -43.2590 N.am  116  VAL116     -0.1980
     46  CA       -46.7670  106.2620  -41.8850 C.3   116  VAL116      0.1595
     47  C        -46.4180  104.9500  -41.1730 C.2   116  VAL116      0.2287
     48  O        -45.3520  104.8320  -40.5850 O.2   116  VAL116     -0.2864
     49  CB       -47.7560  107.0780  -41.0160 C.3   116  VAL116      0.0276
     50  CG1      -47.0990  107.4670  -39.7020 C.3   116  VAL116      0.0022
     51  CG2      -48.1910  108.3350  -41.7520 C.3   116  VAL116      0.0022
     52  N        -52.1890  105.9700  -42.8920 N.3   129  THR129     -0.1203
     53  CA       -51.7680  107.3020  -42.5090 C.3   129  THR129      0.1994
     54  C        -52.5620  107.5500  -41.2270 C.2   129  THR129      0.2618
     55  O        -52.6160  106.6340  -40.3780 O.2   129  THR129     -0.2717
     56  CB       -51.9620  108.3410  -43.6280 C.3   129  THR129      0.1784
     57  OG1      -51.8940  109.6650  -43.0820 O.3   129  THR129     -0.2211
     58  CG2      -53.2950  108.1390  -44.3930 C.3   129  THR129      0.0376
     59  N        -53.1810  108.7250  -41.0800 N.am  130  GLU130     -0.1965
     60  CA       -53.9950  109.0360  -39.9070 C.3   130  GLU130      0.1733
     61  C        -55.4410  109.3740  -40.2720 C.2   130  GLU130      0.2617
     62  O        -56.1760  109.9620  -39.4690 O.2   130  GLU130     -0.2715
     63  CB       -53.3850  110.1970  -39.1430 C.3   130  GLU130      0.0429
     64  CG       -52.0000  109.8880  -38.6250 C.3   130  GLU130      0.1163
     65  CD       -51.3520  111.0410  -37.8840 C.2   130  GLU130      0.3649
     66  OE1      -52.0380  112.0360  -37.5800 O.co2 130  GLU130     -0.2457
     67  OE2      -50.1400  110.9340  -37.6040 O.co2 130  GLU130     -0.2457
     68  N        -55.8600  108.9790  -41.4680 N.am  131  THR131     -0.1937
     69  CA       -57.1950  109.3100  -41.9630 C.3   131  THR131      0.2028
     70  C        -58.1570  108.1530  -41.7040 C.2   131  THR131      0.2642
     71  O        -57.8090  107.1880  -41.0140 O.2   131  THR131     -0.2714
     72  CB       -57.1340  109.6480  -43.4540 C.3   131  THR131      0.1808
     73  OG1      -56.7050  108.4830  -44.1770 O.3   131  THR131     -0.2208
     74  CG2      -56.1610  110.8040  -43.6860 C.3   131  THR131      0.0379
     75  N        -59.3770  108.2840  -42.2130 N.am  132  ASN132     -0.1971
     76  CA       -60.3630  107.1990  -42.1950 C.3   132  ASN132      0.1688
     77  C        -60.0490  106.0320  -43.1420 C.2   132  ASN132      0.2292
     78  O        -60.6240  104.9580  -42.9920 O.2   132  ASN132     -0.2864
     79  CB       -61.7550  107.7450  -42.4970 C.3   132  ASN132      0.1181
     80  CG       -61.8240  108.3790  -43.8590 C.2   132  ASN132      0.2629
     81  OD1      -61.1160  109.3640  -44.1290 O.2   132  ASN132     -0.2716
     82  ND2      -62.6270  107.7960  -44.7480 N.am  132  ASN132     -0.0877
     83  N        -63.7630  110.0730  -37.6830 N.3   157  ASN157     -0.1225
     84  CA       -63.2820  110.8070  -38.8590 C.3   157  ASN157      0.1785
     85  C        -61.8550  110.4310  -39.2580 C.2   157  ASN157      0.2597
     86  O        -61.4040  110.7590  -40.3580 O.2   157  ASN157     -0.2718
     87  CB       -63.3820  112.3180  -38.6200 C.3   157  ASN157      0.1169
     88  CG       -64.8180  112.7900  -38.4600 C.2   157  ASN157      0.2627
     89  OD1      -65.2550  113.1400  -37.3710 O.2   157  ASN157     -0.2716
     90  ND2      -65.5520  112.8110  -39.5540 N.am  157  ASN157     -0.0877
     91  N        -61.1400  109.7670  -38.3580 N.am  158  GLY158     -0.1957
     92  CA       -59.8180  109.2400  -38.6480 C.3   158  GLY158      0.1869
     93  C        -59.3610  108.3780  -37.4980 C.2   158  GLY158      0.2309
     94  O        -60.0110  108.3300  -36.4760 O.2   158  GLY158     -0.2863
     95  N        -60.5870  111.1950  -33.7990 N.3   176  ASN176     -0.1240
     96  CA       -61.5080  112.3220  -33.7330 C.3   176  ASN176      0.1653
     97  C        -62.8950  111.8750  -34.2040 C.2   176  ASN176      0.2266
     98  O        -63.0150  110.9520  -35.0410 O.2   176  ASN176     -0.2867
     99  CB       -61.0090  113.4840  -34.6060 C.3   176  ASN176      0.1155
    100  CG       -59.6180  113.9640  -34.2010 C.2   176  ASN176      0.2627
    101  OD1      -58.6390  113.7780  -34.9310 O.2   176  ASN176     -0.2716
    102  ND2      -59.5240  114.5570  -33.0190 N.am  176  ASN176     -0.0877
    103  N        -66.4670  114.1810  -35.2270 N.3   178  PHE178     -0.1241
    104  CA       -67.1000  115.5120  -35.3700 C.3   178  PHE178      0.1605
    105  C        -68.6360  115.4520  -35.3900 C.2   178  PHE178      0.2264
    106  O        -69.2740  114.8870  -34.5010 O.2   178  PHE178     -0.2867
    107  CB       -66.6580  116.2120  -36.6670 C.3   178  PHE178      0.0534
    108  CG       -65.1630  116.2190  -36.9140 C.ar  178  PHE178     -0.0203
    109  CD1      -64.2440  116.3550  -35.8750 C.ar  178  PHE178     -0.0042
    110  CD2      -64.6710  116.1190  -38.2130 C.ar  178  PHE178     -0.0042
    111  CE1      -62.8710  116.3700  -36.1290 C.ar  178  PHE178     -0.0003
    112  CE2      -63.3030  116.1360  -38.4710 C.ar  178  PHE178     -0.0003
    113  CZ       -62.4020  116.2660  -37.4290 C.ar  178  PHE178     -0.0000
    114  N        -55.3440  117.7370  -32.1710 N.3   216  TYR216     -0.1227
    115  CA       -54.6200  116.7540  -32.9480 C.3   216  TYR216      0.1736
    116  C        -54.1750  115.6560  -32.0080 C.2   216  TYR216      0.2595
    117  O        -53.6480  115.9310  -30.9450 O.2   216  TYR216     -0.2718
    118  CB       -53.3960  117.3820  -33.5920 C.3   216  TYR216      0.0548
    119  CG       -52.5600  116.3930  -34.3510 C.ar  216  TYR216     -0.0200
    120  CD1      -53.0480  115.7880  -35.5090 C.ar  216  TYR216     -0.0009
    121  CD2      -51.2880  116.0480  -33.9150 C.ar  216  TYR216     -0.0009
    122  CE1      -52.2790  114.8740  -36.2080 C.ar  216  TYR216      0.0417
    123  CE2      -50.5220  115.1260  -34.6020 C.ar  216  TYR216      0.0417
    124  CZ       -51.0160  114.5430  -35.7410 C.ar  216  TYR216      0.1957
    125  OH       -50.2300  113.6480  -36.4120 O.3   216  TYR216     -0.2866
    126  N        -54.3970  114.4160  -32.3990 N.am  217  VAL217     -0.1966
    127  CA       -54.0200  113.2890  -31.5760 C.3   217  VAL217      0.1727
    128  C        -53.3080  112.2620  -32.4320 C.2   217  VAL217      0.2616
    129  O        -53.8300  111.8200  -33.4330 O.2   217  VAL217     -0.2715
    130  CB       -55.2180  112.6870  -30.8190 C.3   217  VAL217      0.0290
    131  CG1      -56.3620  112.3170  -31.7510 C.3   217  VAL217      0.0023
    132  CG2      -54.7580  111.4820  -30.0050 C.3   217  VAL217      0.0023
    133  N        -52.1070  111.9010  -31.9990 N.am  218  HIS218     -0.1973
    134  CA       -51.1820  111.0880  -32.7530 C.3   218  HIS218      0.1656
    135  C        -50.9520  109.6960  -32.1810 C.2   218  HIS218      0.2291
    136  O        -50.5470  108.8140  -32.9060 O.2   218  HIS218     -0.2864
    137  CB       -49.8620  111.8200  -32.7810 C.3   218  HIS218      0.0771
    138  CG       -48.8790  111.2240  -33.7190 C.ar  218  HIS218      0.0820
    139  ND1      -48.9060  111.4820  -35.0690 N.ar  218  HIS218     -0.2267
    140  CD2      -47.8560  110.3580  -33.5160 C.ar  218  HIS218      0.1154
    141  CE1      -47.9250  110.8190  -35.6570 C.ar  218  HIS218      0.1986
    142  NE2      -47.2770  110.1290  -34.7390 N.ar  218  HIS218     -0.2212
    143  N        -57.3510  121.5390  -34.1940 N.3   236  ILE236     -0.1245
    144  CA       -57.8280  121.5160  -35.5680 C.3   236  ILE236      0.1561
    145  C        -58.9950  122.4800  -35.6510 C.2   236  ILE236      0.2260
    146  O        -59.9810  122.3100  -34.9340 O.2   236  ILE236     -0.2867
    147  CB       -58.3010  120.1110  -35.9790 C.3   236  ILE236      0.0252
    148  CG1      -57.1280  119.1250  -35.9110 C.3   236  ILE236      0.0019
    149  CG2      -58.8970  120.1340  -37.3930 C.3   236  ILE236      0.0019
    150  CD1      -57.5680  117.6980  -35.7250 C.3   236  ILE236      0.0001
    151  N        -61.5550  123.8360  -41.6320 N.3   241  PHE241     -0.1241
    152  CA       -61.4540  122.4100  -42.0520 C.3   241  PHE241      0.1605
    153  C        -62.5920  121.9690  -42.9860 C.2   241  PHE241      0.2264
    154  O        -62.3420  121.3700  -44.0470 O.2   241  PHE241     -0.2867
    155  CB       -61.4090  121.4860  -40.8100 C.3   241  PHE241      0.0534
    156  CG       -60.8470  120.0990  -41.0650 C.ar  241  PHE241     -0.0203
    157  CD1      -59.4710  119.8840  -41.1180 C.ar  241  PHE241     -0.0042
    158  CD2      -61.6980  118.9910  -41.1900 C.ar  241  PHE241     -0.0042
    159  CE1      -58.9570  118.6060  -41.3250 C.ar  241  PHE241     -0.0003
    160  CE2      -61.1880  117.7110  -41.3950 C.ar  241  PHE241     -0.0003
    161  CZ       -59.8170  117.5190  -41.4630 C.ar  241  PHE241     -0.0000
    162  N        -54.4830  120.3570  -45.2010 N.3   252  TYR252     -0.1241
    163  CA       -54.7410  119.9730  -43.7910 C.3   252  TYR252      0.1605
    164  C        -53.9400  120.8790  -42.8470 C.2   252  TYR252      0.2264
    165  O        -54.4590  121.4430  -41.8940 O.2   252  TYR252     -0.2867
    166  CB       -54.4150  118.4880  -43.5400 C.3   252  TYR252      0.0534
    167  CG       -55.2710  117.5240  -44.3380 C.ar  252  TYR252     -0.0201
    168  CD1      -56.4550  116.9960  -43.8070 C.ar  252  TYR252     -0.0009
    169  CD2      -54.9010  117.1280  -45.6290 C.ar  252  TYR252     -0.0009
    170  CE1      -57.2470  116.1170  -44.5510 C.ar  252  TYR252      0.0417
    171  CE2      -55.6810  116.2520  -46.3700 C.ar  252  TYR252      0.0417
    172  CZ       -56.8480  115.7550  -45.8300 C.ar  252  TYR252      0.1957
    173  OH       -57.5940  114.9070  -46.5890 O.3   252  TYR252     -0.2866
    174  N        -54.5760  123.9310  -38.7600 N.3   256  PHE256     -0.1241
    175  CA       -54.0910  123.7830  -37.3860 C.3   256  PHE256      0.1605
    176  C        -53.8470  125.1280  -36.7490 C.2   256  PHE256      0.2264
    177  O        -53.3220  126.0220  -37.3870 O.2   256  PHE256     -0.2867
    178  CB       -52.8050  122.9660  -37.3240 C.3   256  PHE256      0.0534
    179  CG       -53.0070  121.5250  -37.6430 C.ar  256  PHE256     -0.0203
    180  CD1      -52.7550  121.0490  -38.9200 C.ar  256  PHE256     -0.0042
    181  CD2      -53.4650  120.6450  -36.6800 C.ar  256  PHE256     -0.0042
    182  CE1      -52.9360  119.7080  -39.2310 C.ar  256  PHE256     -0.0003
    183  CE2      -53.6520  119.3010  -36.9800 C.ar  256  PHE256     -0.0003
    184  CZ       -53.3860  118.8320  -38.2560 C.ar  256  PHE256     -0.0000
    185  N        -44.9080  120.2280  -36.5900 N.3   315  TYR315     -0.1241
    186  CA       -45.1000  119.9600  -38.0190 C.3   315  TYR315      0.1605
    187  C        -44.7820  121.1770  -38.9240 C.2   315  TYR315      0.2264
    188  O        -44.2790  121.0110  -40.0210 O.2   315  TYR315     -0.2867
    189  CB       -46.5190  119.3930  -38.2640 C.3   315  TYR315      0.0534
    190  CG       -46.7540  117.9460  -37.8110 C.ar  315  TYR315     -0.0201
    191  CD1      -45.7660  117.1980  -37.1440 C.ar  315  TYR315     -0.0009
    192  CD2      -47.9750  117.3210  -38.0570 C.ar  315  TYR315     -0.0009
    193  CE1      -45.9970  115.8840  -36.7610 C.ar  315  TYR315      0.0417
    194  CE2      -48.2220  116.0080  -37.6590 C.ar  315  TYR315      0.0417
    195  CZ       -47.2270  115.2950  -37.0080 C.ar  315  TYR315      0.1957
    196  OH       -47.4260  114.0000  -36.6070 O.3   315  TYR315     -0.2866
@<TRIPOS>BOND
     1    26    25    2
     2    23    24    1
     3    35    34    1
     4    31    34    1
     5    31    30    1
     6    31    32    1
     7    25    30   am
     8    25    24    1
     9    34    36    1
    10    24    27    1
    11    32    33    2
    12    12    13    1
    13    27    29    1
    14    27    28    1
    15   173   172    1
    16   171   172   ar
    17   171   169   ar
    18    41    38    1
    19    41    42    1
    20     4     3    2
    21     3     2    1
    22    43    42    1
    23   172   170   ar
    24    14    13    1
    25    14    15    2
    26    37    38    1
    27    38    39    1
    28    13    16    1
    29   169   167   ar
    30    42    44    1
    31   162   163    1
    32     1     2    1
    33     2     5    1
    34    16    17    1
    35    82    80   am
    36   170   168   ar
    37    58    56    1
    38   167   168   ar
    39   167   166    1
    40    39    40    2
    41    39    45   am
    42    73    72    1
    43    81    80    2
    44   154   153    2
    45    80    79    1
    46   163   166    1
    47   163   164    1
    48     5     6    1
    49    74    72    1
    50    56    57    1
    51    56    53    1
    52    72    69    1
    53    17    19   ar
    54    17    18   ar
    55    45    46    1
    56    77    78    2
    57    77    76    1
    58    19    21   ar
    59   153   152    1
    60    52    53    1
    61   164   165    2
    62    18    20   ar
    63    53    54    1
    64    79    76    1
    65     6     7   ar
    66     6     8   ar
    67    75    76    1
    68    75    70   am
    69     7     9   ar
    70   152   151    1
    71   152   155    1
    72    69    70    1
    73    69    68    1
    74    46    47    1
    75    46    49    1
    76    21    22   ar
    77    51    49    1
    78    70    71    2
    79     8    10   ar
    80    68    61   am
    81   161   160   ar
    82   161   159   ar
    83   160   158   ar
    84   159   157   ar
    85    20    22   ar
    86    54    59   am
    87    54    55    2
    88   158   156   ar
    89    47    48    2
    90   157   156   ar
    91    59    60    1
    92   156   155    1
    93    49    50    1
    94     9    11   ar
    95    86    85    2
    96    10    11   ar
    97    61    60    1
    98    61    62    2
    99   188   187    2
   100    60    63    1
   101    90    88   am
   102    85    84    1
   103    85    91   am
   104   182   180   ar
   105   182   184   ar
   106    63    64    1
   107   187   186    1
   108   180   179   ar
   109    84    87    1
   110    84    83    1
   111   174   175    1
   112    92    91    1
   113    92    93    1
   114    64    65    1
   115    87    88    1
   116   112   110   ar
   117   112   113   ar
   118    88    89    2
   119   189   186    1
   120   189   190    1
   121   184   183   ar
   122   110   108   ar
   123   192   190   ar
   124   192   194   ar
   125   186   185    1
   126    65    67   ar
   127    65    66   ar
   128   190   191   ar
   129   194   195   ar
   130   179   178    1
   131   179   181   ar
   132    93    94    2
   133   113   111   ar
   134   149   147    1
   135   177   176    2
   136   175   178    1
   137   175   176    1
   138   191   193   ar
   139   195   193   ar
   140   195   196    1
   141   183   181   ar
   142   108   107    1
   143   108   109   ar
   144   107   104    1
   145   125   124    1
   146   122   124   ar
   147   122   120   ar
   148   111   109   ar
   149   147   148    1
   150   147   144    1
   151   148   150    1
   152   124   123   ar
   153   141   139   ar
   154   141   142   ar
   155   145   144    1
   156   145   146    2
   157   144   143    1
   158   120   119   ar
   159   105   104    1
   160   105   106    2
   161   104   103    1
   162   139   138   ar
   163    98    97    2
   164   101   100    2
   165   142   140   ar
   166    99   100    1
   167    99    96    1
   168   123   121   ar
   169   119   121   ar
   170   119   118    1
   171    97    96    1
   172   100   102   am
   173    95    96    1
   174   138   140   ar
   175   138   137    1
   176   118   115    1
   177   129   128    2
   178   115   114    1
   179   115   116    1
   180   136   135    2
   181   137   134    1
   182   134   135    1
   183   134   133    1
   184   128   133   am
   185   128   127    1
   186   126   116   am
   187   126   127    1
   188   116   117    2
   189   131   130    1
   190   127   130    1
   191   130   132    1
