@<TRIPOS>MOLECULE
tmp/4rsmA00.pdb
 121 112 0 0 0
SMALL
GASTEIGER

@<TRIPOS>ATOM
      1  N         52.8970   13.0960   51.2840 N.3    10  TYR10      -0.1241
      2  CA        52.4230   14.4110   50.8070 C.3    10  TYR10       0.1605
      3  C         51.9190   14.3630   49.3770 C.2    10  TYR10       0.2264
      4  O         50.9890   15.0660   49.0480 O.2    10  TYR10      -0.2867
      5  CB        53.5170   15.4820   50.9700 C.3    10  TYR10       0.0534
      6  CG        54.7820   15.1710   50.2240 C.ar   10  TYR10      -0.0201
      7  CD1       54.9100   15.5410   48.9140 C.ar   10  TYR10      -0.0009
      8  CD2       55.8360   14.4960   50.8200 C.ar   10  TYR10      -0.0009
      9  CE1       56.0400   15.2460   48.1840 C.ar   10  TYR10       0.0417
     10  CE2       57.0030   14.1880   50.0750 C.ar   10  TYR10       0.0417
     11  CZ        57.0720   14.5640   48.7680 C.ar   10  TYR10       0.1957
     12  OH        58.2370   14.2570   48.0930 O.3    10  TYR10      -0.2866
     13  N         55.4940   12.1550   44.4230 N.3    13  SER13      -0.1217
     14  CA        56.6560   12.7300   43.7570 C.3    13  SER13       0.1889
     15  C         57.5440   11.6500   43.1230 C.2    13  SER13       0.2288
     16  O         57.4580   10.4600   43.4280 O.2    13  SER13      -0.2866
     17  CB        57.4570   13.5240   44.7490 C.3    13  SER13       0.2089
     18  OG        57.9480   12.6500   45.7180 O.3    13  SER13      -0.2183
     19  N         60.6670   11.0710   43.8090 N.3    15  PHE15      -0.1241
     20  CA        61.3620   10.4970   44.9490 C.3    15  PHE15       0.1605
     21  C         60.5320    9.4280   45.6530 C.2    15  PHE15       0.2264
     22  O         60.9950    8.2940   45.8580 O.2    15  PHE15      -0.2867
     23  CB        61.7970   11.5880   45.9480 C.3    15  PHE15       0.0534
     24  CG        62.3070   11.0320   47.2370 C.ar   15  PHE15      -0.0203
     25  CD1       63.6060   10.5640   47.3300 C.ar   15  PHE15      -0.0042
     26  CD2       61.4510   10.8720   48.3160 C.ar   15  PHE15      -0.0042
     27  CE1       64.0740    9.9880   48.5070 C.ar   15  PHE15      -0.0003
     28  CE2       61.8960   10.2990   49.5020 C.ar   15  PHE15      -0.0003
     29  CZ        63.1970    9.8530   49.6110 C.ar   15  PHE15      -0.0000
     30  N         61.1880   11.0800   56.0570 N.3    89  ASN89      -0.1225
     31  CA        61.5520   11.8630   54.8690 C.3    89  ASN89       0.1785
     32  C         61.2860   13.3500   54.9500 C.2    89  ASN89       0.2597
     33  O         62.1910   14.1400   54.6460 O.2    89  ASN89      -0.2718
     34  CB        61.0060   11.2510   53.5680 C.3    89  ASN89       0.1169
     35  CG        61.3250   12.1140   52.3520 C.2    89  ASN89       0.2627
     36  OD1       62.5320   12.3240   51.9780 O.2    89  ASN89      -0.2716
     37  ND2       60.3130   12.5750   51.7000 N.am   89  ASN89      -0.0877
     38  N         60.0670   13.7370   55.3580 N.am   90  ALA90      -0.1979
     39  CA        59.7740   15.1040   55.7340 C.3    90  ALA90       0.1597
     40  C         59.3880   15.0300   57.2050 C.2    90  ALA90       0.2287
     41  O         58.8990   13.9680   57.6610 O.2    90  ALA90      -0.2864
     42  CB        58.6250   15.6740   54.8780 C.3    90  ALA90       0.0319
     43  N         68.4690   17.8100   55.6970 N.3   105  ASP105     -0.1239
     44  CA        68.1110   18.6920   54.5880 C.3   105  ASP105      0.1674
     45  C         68.8280   20.0390   54.6150 C.2   105  ASP105      0.2266
     46  O         68.9570   20.6640   53.5730 O.2   105  ASP105     -0.2867
     47  CB        66.5780   18.8940   54.5470 C.3   105  ASP105      0.1410
     48  CG        65.8660   17.8610   53.7330 C.2   105  ASP105      0.3668
     49  OD1       66.4330   17.3110   52.7670 O.co2 105  ASP105     -0.2456
     50  OD2       64.6970   17.6160   54.0320 O.co2 105  ASP105     -0.2456
     51  N         56.9280   22.8690   53.8440 N.3   135  GLN135     -0.1245
     52  CA        57.3720   21.5070   54.0240 C.3   135  GLN135      0.1566
     53  C         58.7920   21.5460   54.5820 C.2   135  GLN135      0.2260
     54  O         59.5840   22.4440   54.2690 O.2   135  GLN135     -0.2867
     55  CB        57.3240   20.7540   52.7170 C.3   135  GLN135      0.0367
     56  CG        57.5070   19.2510   52.9310 C.3   135  GLN135      0.0905
     57  CD        57.2000   18.4260   51.7150 C.2   135  GLN135      0.2608
     58  OE1       58.0960   17.8740   51.1170 O.2   135  GLN135     -0.2717
     59  NE2       55.9300   18.3960   51.3080 N.am  135  GLN135     -0.0878
     60  N         61.5680   19.9950   54.0590 N.3   137  GLY137     -0.1225
     61  CA        62.7000   19.9870   53.1400 C.3   137  GLY137      0.1811
     62  C         62.8700   21.3360   52.4340 C.2   137  GLY137      0.2280
     63  O         63.9840   21.7510   52.1670 O.2   137  GLY137     -0.2866
     64  N         66.1670   23.1500   53.3740 N.3   141  ARG141     -0.1245
     65  CA        67.1100   23.3490   52.2600 C.3   141  ARG141      0.1563
     66  C         67.3040   24.8540   52.0090 C.2   141  ARG141      0.2260
     67  O         68.4220   25.2890   51.6810 O.2   141  ARG141     -0.2867
     68  CB        66.6790   22.6450   51.0010 C.3   141  ARG141      0.0307
     69  CG        66.8530   21.1510   51.0700 C.3   141  ARG141      0.0489
     70  CD        66.1980   20.3830   49.9340 C.3   141  ARG141      0.2205
     71  NE        66.0930   18.9860   50.3670 N.pl3 141  ARG141     -0.0865
     72  CZ        65.4810   18.0120   49.7000 C.cat 141  ARG141      0.5346
     73  NH1       64.9800   18.2460   48.4910 N.pl3 141  ARG141      0.1354
     74  NH2       65.3720   16.7850   50.2530 N.pl3 141  ARG141      0.1354
     75  N         58.0420   20.5610   44.1200 N.3   165  TRP165     -0.1241
     76  CA        58.8300   19.3850   43.7230 C.3   165  TRP165      0.1605
     77  C         58.5740   18.9020   42.2810 C.2   165  TRP165      0.2264
     78  O         59.1130   17.8550   41.9150 O.2   165  TRP165     -0.2867
     79  CB        58.5870   18.1930   44.6530 C.3   165  TRP165      0.0550
     80  CG        58.8520   18.3560   46.1090 C.ar  165  TRP165      0.0003
     81  CD1       58.0660   17.8730   47.1250 C.ar  165  TRP165      0.0946
     82  CD2       60.0240   18.8850   46.7290 C.ar  165  TRP165      0.0152
     83  NE1       58.6560   18.1050   48.3180 N.ar  165  TRP165     -0.2442
     84  CE2       59.8420   18.7680   48.1200 C.ar  165  TRP165      0.0810
     85  CE3       61.1800   19.5140   46.2570 C.ar  165  TRP165      0.0012
     86  CZ2       60.7980   19.2100   49.0450 C.ar  165  TRP165      0.0191
     87  CZ3       62.1250   19.9760   47.1720 C.ar  165  TRP165      0.0001
     88  CH2       61.9280   19.8180   48.5640 C.ar  165  TRP165      0.0015
     89  N         65.0340   20.1770   44.2580 N.3   192  ASN192     -0.1240
     90  CA        65.1850   18.7710   43.8780 C.3   192  ASN192      0.1653
     91  C         65.5350   18.6180   42.4110 C.2   192  ASN192      0.2266
     92  O         65.4770   19.5840   41.6160 O.2   192  ASN192     -0.2867
     93  CB        63.9770   17.8930   44.2520 C.3   192  ASN192      0.1155
     94  CG        62.7840   18.1240   43.3650 C.2   192  ASN192      0.2627
     95  OD1       62.7500   19.0670   42.5920 O.2   192  ASN192     -0.2716
     96  ND2       61.7400   17.3030   43.5530 N.am  192  ASN192     -0.0877
     97  N         63.8410   17.0540   40.0950 N.3   194  ASP194     -0.1239
     98  CA        62.7370   17.2040   39.1610 C.3   194  ASP194      0.1674
     99  C         62.6290   18.6640   38.6960 C.2   194  ASP194      0.2266
    100  O         62.3740   18.9300   37.5250 O.2   194  ASP194     -0.2867
    101  CB        61.4140   16.8890   39.8220 C.3   194  ASP194      0.1410
    102  CG        61.1770   15.4170   40.0720 C.2   194  ASP194      0.3668
    103  OD1       60.7270   14.7470   39.1480 O.co2 194  ASP194     -0.2456
    104  OD2       61.2930   14.9720   41.2490 O.co2 194  ASP194     -0.2456
    105  N         68.6200   14.7720   45.0530 N.3   217  ASP217     -0.1239
    106  CA        67.8750   13.4780   45.1080 C.3   217  ASP217      0.1674
    107  C         68.6460   12.3350   44.3800 C.2   217  ASP217      0.2266
    108  O         68.6820   11.1780   44.8340 O.2   217  ASP217     -0.2867
    109  CB        66.4580   13.5050   44.5300 C.3   217  ASP217      0.1410
    110  CG        65.4150   14.0910   45.4970 C.2   217  ASP217      0.3668
    111  OD1       65.6810   14.1250   46.7280 O.co2 217  ASP217     -0.2456
    112  OD2       64.3280   14.4500   44.9820 O.co2 217  ASP217     -0.2456
    113  N         69.6150   11.0020   47.4720 N.3   237  GLN237     -0.1245
    114  CA        68.6090   10.6220   48.4870 C.3   237  GLN237      0.1566
    115  C         67.9630    9.4100   47.8690 C.2   237  GLN237      0.2260
    116  O         67.0290    9.5250   47.0620 O.2   237  GLN237     -0.2867
    117  CB        67.5870   11.7110   48.7410 C.3   237  GLN237      0.0367
    118  CG        66.9680   11.5310   50.1070 C.3   237  GLN237      0.0905
    119  CD        65.8590   12.4990   50.4160 C.2   237  GLN237      0.2608
    120  OE1       65.3700   13.2870   49.5580 O.2   237  GLN237     -0.2717
    121  NE2       65.4270   12.4360   51.6290 N.am  237  GLN237     -0.0878
@<TRIPOS>BOND
     1   100    99    2
     2    99    98    1
     3   103   102   ar
     4    98   101    1
     5    98    97    1
     6   101   102    1
     7   102   104   ar
     8    92    91    2
     9    78    77    2
    10    77    76    1
    11    91    90    1
    12    95    94    2
    13    15    16    2
    14    15    14    1
    15    94    96   am
    16    94    93    1
    17    76    75    1
    18    76    79    1
    19    14    13    1
    20    14    17    1
    21    19    20    1
    22    90    93    1
    23    90    89    1
    24   107   108    2
    25   107   106    1
    26   109   106    1
    27   109   110    1
    28    79    80    1
    29    17    18    1
    30    20    21    1
    31    20    23    1
    32   112   110   ar
    33   105   106    1
    34   110   111   ar
    35    21    22    2
    36    23    24    1
    37    80    82   ar
    38    80    81   ar
    39    85    82   ar
    40    85    87   ar
    41    82    84   ar
    42   116   115    2
    43    81    83   ar
    44    87    88   ar
    45    24    25   ar
    46    24    26   ar
    47    25    27   ar
    48   113   114    1
    49   115   114    1
    50    12    11    1
    51    84    83   ar
    52    84    86   ar
    53     9    11   ar
    54     9     7   ar
    55    26    28   ar
    56   114   117    1
    57    73    72    1
    58    27    29   ar
    59    88    86   ar
    60   117   118    1
    61    11    10   ar
    62     7     6   ar
    63     4     3    2
    64     3     2    1
    65    28    29   ar
    66   120   119    2
    67    72    74    1
    68    72    71    2
    69    70    71    1
    70    70    69    1
    71    10     8   ar
    72   118   119    1
    73     6     8   ar
    74     6     5    1
    75   119   121   am
    76     2     5    1
    77     2     1    1
    78    68    69    1
    79    68    65    1
    80    58    57    2
    81    59    57   am
    82    67    66    2
    83    37    35   am
    84    57    56    1
    85    36    35    2
    86    66    65    1
    87    63    62    2
    88    65    64    1
    89    35    34    1
    90    62    61    1
    91    55    56    1
    92    55    52    1
    93    49    48   ar
    94    61    60    1
    95    34    31    1
    96    46    45    2
    97    48    50   ar
    98    48    47    1
    99    51    52    1
   100    52    53    1
   101    54    53    2
   102    47    44    1
   103    44    45    1
   104    44    43    1
   105    33    32    2
   106    31    32    1
   107    31    30    1
   108    42    39    1
   109    32    38   am
   110    38    39    1
   111    39    40    1
   112    40    41    2
