@<TRIPOS>MOLECULE
tmp/4rspA00.pdb
 206 202 0 0 0
SMALL
GASTEIGER

@<TRIPOS>ATOM
      1  N        -28.1790    8.6980    1.7400 N.3    25  MET25      -0.1230
      2  CA       -27.1490    7.9270    2.4350 C.3    25  MET25       0.1702
      3  C        -26.3420    8.8090    3.3670 C.2    25  MET25       0.2593
      4  O        -25.9930    9.9270    3.0230 O.2    25  MET25      -0.2718
      5  CB       -26.1980    7.2680    1.4370 C.3    25  MET25       0.0401
      6  CG       -26.8460    6.2010    0.5690 C.3    25  MET25       0.0596
      7  SD       -26.8990    4.6140    1.4090 S.3    25  MET25      -0.1393
      8  CE       -25.7130    3.7090    0.4180 C.3    25  MET25       0.0692
      9  N        -26.0200    8.2930    4.5420 N.am   26  THR26      -0.1939
     10  CA       -25.1740    9.0390    5.4500 C.3    26  THR26       0.2028
     11  C        -24.1840    8.0360    6.0360 C.2    26  THR26       0.2642
     12  O        -24.5160    6.8610    6.2060 O.2    26  THR26      -0.2714
     13  CB       -25.9680    9.7300    6.5560 C.3    26  THR26       0.1808
     14  OG1      -25.0990   10.5920    7.3110 O.3    26  THR26      -0.2208
     15  CG2      -26.5810    8.7130    7.4700 C.3    26  THR26       0.0379
     16  N        -22.9570    8.4860    6.2390 N.am   27  LEU27      -0.1977
     17  CA       -21.9140    7.6290    6.8090 C.3    27  LEU27       0.1596
     18  C        -20.7950    8.5040    7.4160 C.2    27  LEU27       0.2287
     19  O        -20.9740    9.7040    7.5990 O.2    27  LEU27      -0.2864
     20  CB       -21.3640    6.6450    5.7550 C.3    27  LEU27       0.0297
     21  CG       -21.1480    7.0610    4.2880 C.3    27  LEU27       0.0022
     22  CD1      -20.1250    8.1870    4.2340 C.3    27  LEU27       0.0001
     23  CD2      -20.6930    5.8630    3.4480 C.3    27  LEU27       0.0001
     24  N        -19.6610    4.8900   -1.9860 N.3    41  HIS41      -0.1241
     25  CA       -21.0450    4.4030   -2.0630 C.3    41  HIS41       0.1621
     26  C        -22.0220    5.3170   -1.3390 C.2    41  HIS41       0.2264
     27  O        -23.2400    5.0910   -1.4010 O.2    41  HIS41      -0.2867
     28  CB       -21.2160    2.9320   -1.5960 C.3    41  HIS41       0.0745
     29  CG       -20.8460    2.6450   -0.1720 C.ar   41  HIS41       0.0817
     30  ND1      -21.5830    3.0900    0.9050 N.ar   41  HIS41      -0.2268
     31  CD2      -19.8750    1.8500    0.3440 C.ar   41  HIS41       0.1154
     32  CE1      -21.0410    2.6430    2.0260 C.ar   41  HIS41       0.1986
     33  NE2      -20.0080    1.8840    1.7140 N.ar   41  HIS41      -0.2212
     34  N        -30.0030    4.5120   -2.0420 N.3    46  ALA46      -0.1245
     35  CA       -30.0390    3.5200   -0.9750 C.3    46  ALA46       0.1562
     36  C        -30.7290    2.2310   -1.4150 C.2    46  ALA46       0.2260
     37  O        -30.5830    1.2010   -0.7620 O.2    46  ALA46      -0.2867
     38  CB       -30.7270    4.1070    0.2580 C.3    46  ALA46       0.0290
     39  N        -28.0840   -0.5780   -4.5650 N.3    49  LEU49      -0.1245
     40  CA       -26.7650   -0.9850   -4.0940 C.3    49  LEU49       0.1561
     41  C        -26.1670   -2.1900   -4.8020 C.2    49  LEU49       0.2260
     42  O        -24.9960   -2.5110   -4.5960 O.2    49  LEU49      -0.2867
     43  CB       -26.8360   -1.2550   -2.6010 C.3    49  LEU49       0.0270
     44  CG       -27.1850   -0.0130   -1.7750 C.3    49  LEU49       0.0019
     45  CD1      -27.3740   -0.3800   -0.3060 C.3    49  LEU49       0.0001
     46  CD2      -26.1360    1.0730   -1.9130 C.3    49  LEU49       0.0001
     47  N        -23.8680   -0.6420   -8.8090 N.3    52  PRO52      -0.2116
     48  CA       -23.9040    0.7880   -9.1470 C.3    52  PRO52       0.1372
     49  C        -22.9140    1.1590  -10.2460 C.2    52  PRO52       0.2244
     50  O        -21.8880    0.4960  -10.3920 O.2    52  PRO52      -0.2868
     51  CB       -23.5240    1.4770   -7.8290 C.3    52  PRO52       0.0268
     52  CG       -22.9000    0.4370   -7.0010 C.3    52  PRO52       0.0207
     53  CD       -23.4390   -0.8790   -7.4230 C.3    52  PRO52       0.0892
     54  N        -20.5480    3.8790  -10.6730 N.3    54  TYR54      -0.1241
     55  CA       -20.0120    4.9960   -9.8910 C.3    54  TYR54       0.1605
     56  C        -19.5500    6.1550  -10.7550 C.2    54  TYR54       0.2264
     57  O        -19.6320    7.3100  -10.3200 O.2    54  TYR54      -0.2867
     58  CB       -18.8630    4.5230   -9.0030 C.3    54  TYR54       0.0534
     59  CG       -19.3620    3.7230   -7.8360 C.ar   54  TYR54      -0.0201
     60  CD1      -20.0490    4.3380   -6.7970 C.ar   54  TYR54      -0.0009
     61  CD2      -19.1510    2.3640   -7.7700 C.ar   54  TYR54      -0.0009
     62  CE1      -20.5050    3.6090   -5.7340 C.ar   54  TYR54       0.0417
     63  CE2      -19.6010    1.6150   -6.6990 C.ar   54  TYR54       0.0417
     64  CZ       -20.2760    2.2540   -5.6700 C.ar   54  TYR54       0.1957
     65  OH       -20.7490    1.5190   -4.6050 O.3    54  TYR54      -0.2866
     66  N        -18.9920   -4.7740   13.0710 N.3   143  PHE143     -0.1227
     67  CA       -19.5270   -3.6310   12.3520 C.3   143  PHE143      0.1736
     68  C        -20.9650   -3.8470   11.9900 C.2   143  PHE143      0.2595
     69  O        -21.3240   -4.9370   11.5190 O.2   143  PHE143     -0.2718
     70  CB       -18.8060   -3.3920   11.0510 C.3   143  PHE143      0.0547
     71  CG       -17.3530   -3.0870   11.1580 C.ar  143  PHE143     -0.0202
     72  CD1      -16.9110   -1.8040   11.4470 C.ar  143  PHE143     -0.0042
     73  CD2      -16.4240   -4.0610   10.8970 C.ar  143  PHE143     -0.0042
     74  CE1      -15.5760   -1.4960   11.4550 C.ar  143  PHE143     -0.0003
     75  CE2      -15.0540   -3.7720   10.9300 C.ar  143  PHE143     -0.0003
     76  CZ       -14.6290   -2.4790   11.2010 C.ar  143  PHE143     -0.0000
     77  N        -21.7700   -2.7960   12.1480 N.am  144  LEU144     -0.1980
     78  CA       -23.1770   -2.8240   11.7550 C.3   144  LEU144      0.1596
     79  C        -23.4900   -1.7540   10.7040 C.2   144  LEU144      0.2287
     80  O        -22.6330   -0.9390   10.3560 O.2   144  LEU144     -0.2864
     81  CB       -24.0870   -2.6120   12.9700 C.3   144  LEU144      0.0297
     82  CG       -23.9170   -3.5670   14.1480 C.3   144  LEU144      0.0022
     83  CD1      -24.7970   -3.0930   15.3160 C.3   144  LEU144      0.0001
     84  CD2      -24.2460   -4.9840   13.7860 C.3   144  LEU144      0.0001
     85  N        -24.3120    1.5750    9.2130 N.3   145  GLY145     -0.1210
     86  CA       -23.9760    2.9050    9.6970 C.3   145  GLY145      0.1956
     87  C        -22.4970    3.1030    9.9450 C.2   145  GLY145      0.2613
     88  O        -22.0260    4.2420   10.1270 O.2   145  GLY145     -0.2717
     89  N        -21.7610    1.9920    9.9240 N.am  146  SER146     -0.1938
     90  CA       -20.3450    1.9960   10.3140 C.3   146  SER146      0.2055
     91  C        -19.3590    2.3150    9.1850 C.2   146  SER146      0.2643
     92  O        -18.1600    2.4310    9.4150 O.2   146  SER146     -0.2714
     93  CB       -19.9720    0.6320   10.9120 C.3   146  SER146      0.2130
     94  OG       -20.1320   -0.4120    9.9580 O.3   146  SER146     -0.2179
     95  N        -19.8300    2.4230    7.9400 N.am  147  CYS147     -0.1967
     96  CA       -18.8840    2.6540    6.8640 C.3   147  CYS147      0.1712
     97  C        -18.2290    4.0360    7.0230 C.2   147  CYS147      0.2296
     98  O        -18.8560    4.9880    7.5130 O.2   147  CYS147     -0.2864
     99  CB       -19.5520    2.5160    5.4900 C.3   147  CYS147      0.0983
    100  SG       -19.9270    0.7610    5.1050 S.3   147  CYS147     -0.0798
    101  N        -13.5670    1.5990    6.4180 N.3   165  HIS165     -0.1226
    102  CA       -14.4780    0.4630    6.3560 C.3   165  HIS165      0.1752
    103  C        -15.5250    0.6080    5.2440 C.2   165  HIS165      0.2596
    104  O        -16.1080    1.6850    5.0640 O.2   165  HIS165     -0.2718
    105  CB       -15.1730    0.2480    7.7190 C.3   165  HIS165      0.0759
    106  CG       -16.0580   -0.9370    7.7210 C.ar  165  HIS165      0.0818
    107  ND1      -15.5940   -2.2010    7.4070 N.ar  165  HIS165     -0.2268
    108  CD2      -17.3920   -1.0590    7.9200 C.ar  165  HIS165      0.1154
    109  CE1      -16.5960   -3.0510    7.4660 C.ar  165  HIS165      0.1986
    110  NE2      -17.7070   -2.3840    7.7410 N.ar  165  HIS165     -0.2212
    111  N        -15.7540   -0.4900    4.5220 N.am  166  GLN166     -0.1965
    112  CA       -16.6680   -0.5090    3.3800 C.3   166  GLN166      0.1733
    113  C        -17.7620   -1.5850    3.4060 C.2   166  GLN166      0.2616
    114  O        -18.8970   -1.3150    2.9820 O.2   166  GLN166     -0.2715
    115  CB       -15.8730   -0.6930    2.0910 C.3   166  GLN166      0.0408
    116  CG       -14.9890    0.4660    1.7360 C.3   166  GLN166      0.0908
    117  CD       -15.5540    1.3830    0.6720 C.2   166  GLN166      0.2608
    118  OE1      -16.7240    1.3190    0.3250 O.2   166  GLN166     -0.2717
    119  NE2      -14.7060    2.2670    0.1760 N.am  166  GLN166     -0.0878
    120  N        -17.4670   -2.8070    3.8370 N.am  167  MET167     -0.1963
    121  CA       -18.4440   -3.8830    3.6450 C.3   167  MET167      0.1736
    122  C        -18.2800   -5.0970    4.5430 C.2   167  MET167      0.2616
    123  O        -17.2370   -5.2890    5.1500 O.2   167  MET167     -0.2715
    124  CB       -18.4060   -4.3530    2.1890 C.3   167  MET167      0.0427
    125  CG       -17.2690   -5.3170    1.8590 C.3   167  MET167      0.0599
    126  SD       -17.1700   -5.7280    0.1030 S.3   167  MET167     -0.1393
    127  CE       -16.7190   -4.1190   -0.5530 C.3   167  MET167      0.0692
    128  N        -19.3560   -5.8950    4.6000 N.am  168  GLU168     -0.1963
    129  CA       -19.3760   -7.1770    5.3030 C.3   168  GLU168      0.1733
    130  C        -19.5270   -8.2520    4.2340 C.2   168  GLU168      0.2616
    131  O        -20.4500   -8.1830    3.4010 O.2   168  GLU168     -0.2715
    132  CB       -20.5100   -7.2550    6.3130 C.3   168  GLU168      0.0429
    133  CG       -20.5120   -8.5300    7.0750 C.3   168  GLU168      0.1163
    134  CD       -21.3900   -8.4680    8.3070 C.2   168  GLU168      0.3649
    135  OE1      -21.1110   -7.6290    9.1950 O.co2 168  GLU168     -0.2457
    136  OE2      -22.3400   -9.2650    8.3840 O.co2 168  GLU168     -0.2457
    137  N        -18.5720   -9.1780    4.2150 N.am  169  LEU169     -0.1977
    138  CA       -18.5140  -10.2400    3.1890 C.3   169  LEU169      0.1596
    139  C        -19.2310  -11.5000    3.6000 C.2   169  LEU169      0.2287
    140  O        -19.7060  -12.2520    2.7640 O.2   169  LEU169     -0.2864
    141  CB       -17.0620  -10.5840    2.8810 C.3   169  LEU169      0.0297
    142  CG       -16.2550   -9.4190    2.3270 C.3   169  LEU169      0.0022
    143  CD1      -14.7760   -9.7170    2.3580 C.3   169  LEU169      0.0001
    144  CD2      -16.7340   -9.1600    0.9070 C.3   169  LEU169      0.0001
    145  N        -15.0460   -8.8440    7.2340 N.3   174  HIS174     -0.1241
    146  CA       -15.1490   -7.4710    6.7350 C.3   174  HIS174      0.1621
    147  C        -14.0070   -7.0540    5.8430 C.2   174  HIS174      0.2264
    148  O        -12.9340   -7.6510    5.8840 O.2   174  HIS174     -0.2867
    149  CB       -15.2050   -6.5130    7.9330 C.3   174  HIS174      0.0745
    150  CG       -16.3160   -6.8260    8.8730 C.ar  174  HIS174      0.0817
    151  ND1      -16.1130   -7.4870   10.0650 N.ar  174  HIS174     -0.2268
    152  CD2      -17.6530   -6.6360    8.7660 C.ar  174  HIS174      0.1154
    153  CE1      -17.2820   -7.6660   10.6630 C.ar  174  HIS174      0.1986
    154  NE2      -18.2330   -7.1730    9.8850 N.ar  174  HIS174     -0.2212
    155  N        -17.1170   -2.8310   -4.3970 N.3   189  ASP189     -0.1225
    156  CA       -18.1010   -2.1360   -3.5600 C.3   189  ASP189      0.1805
    157  C        -19.4910   -2.1620   -4.1960 C.2   189  ASP189      0.2598
    158  O        -20.0730   -1.1320   -4.5360 O.2   189  ASP189     -0.2718
    159  CB       -17.6560   -0.6820   -3.2190 C.3   189  ASP189      0.1424
    160  CG       -17.1860    0.1500   -4.4240 C.2   189  ASP189      0.3668
    161  OD1      -16.9170   -0.3720   -5.5350 O.co2 189  ASP189     -0.2456
    162  OD2      -17.0570    1.3800   -4.2280 O.co2 189  ASP189     -0.2456
    163  N        -20.0440   -3.3650   -4.2450 N.am  190  LYS190     -0.1966
    164  CA       -21.4310   -3.5770   -4.6440 C.3   190  LYS190      0.1728
    165  C        -21.9590   -4.7930   -3.9070 C.2   190  LYS190      0.2616
    166  O        -21.1860   -5.5680   -3.3530 O.2   190  LYS190     -0.2715
    167  CB       -21.5370   -3.7850   -6.1510 C.3   190  LYS190      0.0311
    168  CG       -20.7780   -5.0140   -6.6240 C.3   190  LYS190      0.0038
    169  CD       -20.8080   -5.1570   -8.1560 C.3   190  LYS190      0.0206
    170  CE       -20.3260   -3.8850   -8.8280 C.3   190  LYS190      0.1093
    171  NZ       -19.8410   -4.0830  -10.2250 N.3   190  LYS190     -0.1314
    172  N        -23.2690   -4.9900   -3.9370 N.am  191  GLN191     -0.1963
    173  CA       -23.8870   -6.0830   -3.1960 C.3   191  GLN191      0.1733
    174  C        -24.1860   -7.2350   -4.1260 C.2   191  GLN191      0.2616
    175  O        -25.2700   -7.3430   -4.6770 O.2   191  GLN191     -0.2715
    176  CB       -25.1510   -5.5990   -2.4810 C.3   191  GLN191      0.0408
    177  CG       -24.8500   -4.4530   -1.5130 C.3   191  GLN191      0.0908
    178  CD       -25.9450   -4.1540   -0.5020 C.2   191  GLN191      0.2608
    179  OE1      -25.6580   -3.7470    0.6320 O.2   191  GLN191     -0.2717
    180  NE2      -27.1950   -4.3110   -0.9040 N.am  191  GLN191     -0.0878
    181  N        -23.1730   -8.0680   -4.3180 N.am  192  VAL192     -0.1963
    182  CA       -23.2390   -9.2460   -5.1580 C.3   192  VAL192      0.1727
    183  C        -22.4370  -10.3330   -4.4610 C.2   192  VAL192      0.2616
    184  O        -21.6230  -10.0310   -3.5920 O.2   192  VAL192     -0.2715
    185  CB       -22.6970   -8.9740   -6.5770 C.3   192  VAL192      0.0290
    186  CG1      -23.4330   -7.7830   -7.2040 C.3   192  VAL192      0.0023
    187  CG2      -21.1780   -8.7190   -6.5840 C.3   192  VAL192      0.0023
    188  N        -22.6410  -11.5930   -4.8310 N.am  193  HIS193     -0.1959
    189  CA       -21.8660  -12.6640   -4.2240 C.3   193  HIS193      0.1787
    190  C        -20.3920  -12.5510   -4.6120 C.2   193  HIS193      0.2620
    191  O        -20.0690  -12.4070   -5.7800 O.2   193  HIS193     -0.2715
    192  CB       -22.3840  -14.0510   -4.6300 C.3   193  HIS193      0.0785
    193  CG       -21.5380  -15.1630   -4.0840 C.ar  193  HIS193      0.0821
    194  ND1      -21.3780  -15.3680   -2.7360 N.ar  193  HIS193     -0.2267
    195  CD2      -20.7500  -16.0700   -4.7080 C.ar  193  HIS193      0.1154
    196  CE1      -20.5470  -16.3830   -2.5430 C.ar  193  HIS193      0.1986
    197  NE2      -20.1630  -16.8280   -3.7190 N.ar  193  HIS193     -0.2212
    198  N        -19.5210  -12.5980   -3.6140 N.am  194  GLN194     -0.1977
    199  CA       -18.0720  -12.4780   -3.8100 C.3   194  GLN194      0.1601
    200  C        -17.3380  -13.4820   -2.9370 C.2   194  GLN194      0.2287
    201  O        -17.2440  -13.3200   -1.7170 O.2   194  GLN194     -0.2864
    202  CB       -17.5720  -11.0480   -3.4920 C.3   194  GLN194      0.0394
    203  CG       -18.2210   -9.9570   -4.3200 C.3   194  GLN194      0.0908
    204  CD       -17.5430   -8.6040   -4.1620 C.2   194  GLN194      0.2608
    205  OE1      -16.4290   -8.3780   -4.6740 O.2   194  GLN194     -0.2717
    206  NE2      -18.2060   -7.6960   -3.4500 N.am  194  GLN194     -0.0878
@<TRIPOS>BOND
     1    56    57    2
     2    56    55    1
     3    54    55    1
     4    50    49    2
     5    49    48    1
     6   171   170    1
     7    55    58    1
     8    48    47    1
     9    48    51    1
    10    58    59    1
    11   170   169    1
    12    47    53    1
    13   169   168    1
    14    59    61   ar
    15    59    60   ar
    16    51    52    1
    17    61    63   ar
    18    53    52    1
    19   186   185    1
    20    60    62   ar
    21    63    64   ar
    22   168   167    1
    23   187   185    1
    24   185   182    1
    25   167   164    1
    26   191   190    2
    27    62    64   ar
    28    64    65    1
    29   161   160   ar
    30   182   183    1
    31   182   181    1
    32   188   183   am
    33   188   189    1
    34    41    42    2
    35    41    40    1
    36   195   193   ar
    37   195   197   ar
    38   175   174    2
    39   205   204    2
    40   164   163    1
    41   164   165    1
    42   192   189    1
    43   192   193    1
    44   190   189    1
    45   190   198   am
    46    39    40    1
    47   158   157    2
    48   183   184    2
    49   160   162   ar
    50   160   159    1
    51   155   156    1
    52   203   204    1
    53   203   202    1
    54   181   174   am
    55   163   157   am
    56   157   156    1
    57   204   206   am
    58   174   173    1
    59    40    43    1
    60   193   194   ar
    61   172   165   am
    62   172   173    1
    63   165   166    2
    64   199   198    1
    65   199   202    1
    66   199   200    1
    67   197   196   ar
    68   156   159    1
    69   173   176    1
    70   200   201    2
    71   194   196   ar
    72    43    44    1
    73   176   177    1
    74    25    24    1
    75    25    28    1
    76    25    26    1
    77    34    35    1
    78    46    44    1
    79    44    45    1
    80    28    29    1
    81   177   178    1
    82    36    35    1
    83    36    37    2
    84    27    26    2
    85    35    38    1
    86   180   178   am
    87   127   126    1
    88   178   179    2
    89    29    31   ar
    90    29    30   ar
    91   126   125    1
    92   119   117   am
    93   118   117    2
    94    31    33   ar
    95     8     7    1
    96     6     7    1
    97     6     5    1
    98   117   116    1
    99    30    32   ar
   100   144   142    1
   101     5     2    1
   102    33    32   ar
   103   116   115    1
   104     1     2    1
   105   125   124    1
   106   115   112    1
   107   124   121    1
   108   142   143    1
   109   142   141    1
   110     2     3    1
   111   140   139    2
   112   141   138    1
   113   114   113    2
   114     4     3    2
   115   138   139    1
   116   138   137    1
   117     3     9   am
   118   112   113    1
   119   112   111    1
   120   131   130    2
   121   113   120   am
   122    23    21    1
   123   121   120    1
   124   121   122    1
   125   137   130   am
   126   130   129    1
   127    22    21    1
   128    21    20    1
   129   111   103   am
   130     9    10    1
   131   122   128   am
   132   122   123    2
   133   128   129    1
   134   104   103    2
   135   100    99    1
   136   103   102    1
   137   129   132    1
   138    10    11    1
   139    10    13    1
   140    99    96    1
   141    20    17    1
   142   147   148    2
   143   147   146    1
   144    11    12    2
   145    11    16   am
   146    16    17    1
   147   132   133    1
   148   102   101    1
   149   102   105    1
   150    13    14    1
   151    13    15    1
   152   146   145    1
   153   146   149    1
   154    17    18    1
   155    96    97    1
   156    96    95    1
   157    97    98    2
   158   133   134    1
   159   107   109   ar
   160   107   106   ar
   161    18    19    2
   162   109   110   ar
   163   105   106    1
   164   106   108   ar
   165   110   108   ar
   166   149   150    1
   167    95    91   am
   168   134   136   ar
   169   134   135   ar
   170   152   150   ar
   171   152   154   ar
   172   150   151   ar
   173    91    92    2
   174    91    90    1
   175    85    86    1
   176    86    87    1
   177   154   153   ar
   178    89    87   am
   179    89    90    1
   180    87    88    2
   181    94    93    1
   182   151   153   ar
   183    90    93    1
   184    80    79    2
   185    79    78    1
   186    73    75   ar
   187    73    71   ar
   188    75    76   ar
   189    70    71    1
   190    70    67    1
   191    71    72   ar
   192    76    74   ar
   193    72    74   ar
   194    69    68    2
   195    78    77    1
   196    78    81    1
   197    68    77   am
   198    68    67    1
   199    67    66    1
   200    81    82    1
   201    84    82    1
   202    82    83    1
