@<TRIPOS>MOLECULE
tmp/4rsrA00.pdb
 82 76 0 0 0
SMALL
GASTEIGER

@<TRIPOS>ATOM
      1  N          3.0750  -23.4100   21.0990 N.3     1  CYS1       -0.1221
      2  CA         2.1960  -23.9510   22.1870 C.3     1  CYS1        0.1808
      3  C          2.3550  -25.4640   22.4520 C.2     1  CYS1        0.2601
      4  O          3.4690  -26.0000   22.3050 O.2     1  CYS1       -0.2717
      5  CB         0.7510  -23.5960   21.8880 C.3     1  CYS1        0.0970
      6  SG        -0.4870  -24.6720   22.6090 S.3     1  CYS1       -0.0800
      7  N          1.2510  -26.1340   22.8320 N.am    2  LYS2       -0.1965
      8  CA         1.2280  -27.5320   23.3600 C.3     2  LYS2        0.1728
      9  C          1.7260  -28.6370   22.4060 C.2     2  LYS2        0.2616
     10  O          2.4970  -28.4000   21.4710 O.2     2  LYS2       -0.2715
     11  CB        -0.2100  -27.9080   23.8160 C.3     2  LYS2        0.0311
     12  CG        -1.0030  -26.8300   24.5550 C.3     2  LYS2        0.0038
     13  CD        -2.5130  -26.9590   24.3820 C.3     2  LYS2        0.0206
     14  CE        -3.2180  -26.4880   25.6420 C.3     2  LYS2        0.1093
     15  NZ        -4.5720  -25.9360   25.3810 N.3     2  LYS2       -0.1314
     16  N          1.3030  -29.8640   22.6820 N.am    3  LEU3       -0.1977
     17  CA         1.0690  -30.7890   21.5880 C.3     3  LEU3        0.1596
     18  C         -0.4080  -30.5940   21.1800 C.2     3  LEU3        0.2287
     19  O         -0.7540  -30.6640   19.9950 O.2     3  LEU3       -0.2864
     20  CB         1.4520  -32.2540   21.9290 C.3     3  LEU3        0.0297
     21  CG         1.2990  -32.9480   23.2940 C.3     3  LEU3        0.0022
     22  CD1       -0.1090  -33.5020   23.4970 C.3     3  LEU3        0.0001
     23  CD2        2.3410  -34.0580   23.4400 C.3     3  LEU3        0.0001
     24  N          1.2890  -18.7120   15.1750 N.3    27  TYR27      -0.1241
     25  CA         1.9030  -18.9800   16.4860 C.3    27  TYR27       0.1605
     26  C          0.9450  -19.7570   17.4270 C.2    27  TYR27       0.2264
     27  O         -0.2540  -19.4100   17.5520 O.2    27  TYR27      -0.2867
     28  CB         2.3920  -17.6670   17.1010 C.3    27  TYR27       0.0534
     29  CG         2.9540  -17.8310   18.4670 C.ar   27  TYR27      -0.0201
     30  CD1        4.2690  -18.2760   18.6560 C.ar   27  TYR27      -0.0009
     31  CD2        2.1640  -17.5650   19.5890 C.ar   27  TYR27      -0.0009
     32  CE1        4.7720  -18.4530   19.9350 C.ar   27  TYR27       0.0417
     33  CE2        2.6560  -17.7380   20.8660 C.ar   27  TYR27       0.0417
     34  CZ         3.9550  -18.1690   21.0340 C.ar   27  TYR27       0.1957
     35  OH         4.4240  -18.3160   22.3080 O.3    27  TYR27      -0.2866
     36  N         -5.0270  -20.9180   25.2550 N.3   131  CYS131     -0.1235
     37  CA        -3.7910  -20.6640   26.0260 C.3   131  CYS131      0.1677
     38  C         -3.3190  -19.1700   26.0410 C.2   131  CYS131      0.2270
     39  O         -2.1440  -18.9110   25.8670 O.2   131  CYS131     -0.2867
     40  CB        -2.6790  -21.6190   25.5380 C.3   131  CYS131      0.0956
     41  SG        -1.5480  -22.3520   26.7680 S.3   131  CYS131     -0.0801
     42  N         -0.5550  -15.8300   30.4740 N.3   135  LEU135     -0.1245
     43  CA         0.5250  -14.9330   30.1080 C.3   135  LEU135      0.1561
     44  C          0.3710  -13.5230   30.7030 C.2   135  LEU135      0.2260
     45  O          1.3840  -12.8610   30.9870 O.2   135  LEU135     -0.2867
     46  CB         0.8030  -14.9790   28.5930 C.3   135  LEU135      0.0270
     47  CG         1.1220  -16.4310   28.1550 C.3   135  LEU135      0.0019
     48  CD1        1.0500  -16.6190   26.6440 C.3   135  LEU135      0.0001
     49  CD2        2.4390  -16.9720   28.7220 C.3   135  LEU135      0.0001
     50  N         -4.6630  -23.7780   30.5150 N.3   161  VAL161     -0.1245
     51  CA        -4.0130  -24.6310   31.4750 C.3   161  VAL161      0.1561
     52  C         -4.3970  -24.1890   32.9070 C.2   161  VAL161      0.2260
     53  O         -4.3560  -22.9750   33.2140 O.2   161  VAL161     -0.2867
     54  CB        -2.4650  -24.5320   31.2680 C.3   161  VAL161      0.0252
     55  CG1       -1.7110  -25.3580   32.2970 C.3   161  VAL161      0.0019
     56  CG2       -2.0700  -24.9480   29.8510 C.3   161  VAL161      0.0019
     57  N          6.7010  -19.1040   30.6370 N.3   179  GLY179     -0.1210
     58  CA         6.6130  -19.1530   29.1730 C.3   179  GLY179      0.1956
     59  C          5.9670  -20.4550   28.6980 C.2   179  GLY179      0.2612
     60  O          5.5240  -20.5140   27.5550 O.2   179  GLY179     -0.2717
     61  N          5.8990  -21.4820   29.5610 N.am  180  GLU180     -0.1965
     62  CA         5.1270  -22.6800   29.2490 C.3   180  GLU180      0.1733
     63  C          3.6470  -22.5450   29.6690 C.2   180  GLU180      0.2616
     64  O          2.9500  -23.5450   29.6500 O.2   180  GLU180     -0.2715
     65  CB         5.6760  -23.9160   29.9630 C.3   180  GLU180      0.0429
     66  CG         7.1680  -24.1500   29.8520 C.3   180  GLU180      0.1163
     67  CD         7.5990  -25.0010   28.6640 C.2   180  GLU180      0.3649
     68  OE1        8.3550  -25.9790   28.8940 O.co2 180  GLU180     -0.2457
     69  OE2        7.2170  -24.6870   27.5050 O.co2 180  GLU180     -0.2457
     70  N          3.2060  -21.3690   30.1160 N.am  181  CYS181     -0.1968
     71  CA         1.7990  -21.1700   30.5480 C.3   181  CYS181      0.1712
     72  C          1.4290  -21.9120   31.7890 C.2   181  CYS181      0.2296
     73  O          0.2560  -22.0710   32.0960 O.2   181  CYS181     -0.2864
     74  CB         0.7980  -21.5610   29.4380 C.3   181  CYS181      0.0983
     75  SG         0.9770  -20.3180   28.1950 S.3   181  CYS181     -0.0798
     76  N         -1.7560  -32.3390   31.8080 N.3   211  VAL211     -0.1245
     77  CA        -0.6210  -31.5990   31.2190 C.3   211  VAL211      0.1561
     78  C          0.5100  -32.0320   32.1600 C.2   211  VAL211      0.2260
     79  O          0.3770  -31.9260   33.3740 O.2   211  VAL211     -0.2867
     80  CB        -0.7810  -30.0420   31.2710 C.3   211  VAL211      0.0252
     81  CG1        0.5900  -29.3060   31.0680 C.3   211  VAL211      0.0019
     82  CG2       -1.7910  -29.5190   30.2400 C.3   211  VAL211      0.0019
@<TRIPOS>BOND
     1    24    25    1
     2    25    28    1
     3    25    26    1
     4    28    29    1
     5    26    27    2
     6    29    30   ar
     7    29    31   ar
     8    30    32   ar
     9    31    33   ar
    10    32    34   ar
    11    19    18    2
    12    33    34   ar
    13    34    35    1
    14     1     2    1
    15    18    17    1
    16    10     9    2
    17    17    20    1
    18    17    16    1
    19     5     2    1
    20     5     6    1
    21    20    21    1
    22     2     3    1
    23     4     3    2
    24     9    16   am
    25     9     8    1
    26     3     7   am
    27     7     8    1
    28    21    23    1
    29    21    22    1
    30     8    11    1
    31    11    12    1
    32    13    12    1
    33    13    14    1
    34    36    37    1
    35    15    14    1
    36    40    37    1
    37    40    41    1
    38    39    38    2
    39    37    38    1
    40    48    47    1
    41    69    67   ar
    42    60    59    2
    43    47    46    1
    44    47    49    1
    45    75    74    1
    46    46    43    1
    47    67    68   ar
    48    67    66    1
    49    59    58    1
    50    59    61   am
    51    58    57    1
    52    62    61    1
    53    62    63    1
    54    62    65    1
    55    74    71    1
    56    64    63    2
    57    63    70   am
    58    56    54    1
    59    66    65    1
    60    43    42    1
    61    43    44    1
    62    70    71    1
    63    82    80    1
    64    50    51    1
    65    71    72    1
    66    44    45    2
    67    81    80    1
    68    77    80    1
    69    77    76    1
    70    77    78    1
    71    54    51    1
    72    54    55    1
    73    51    52    1
    74    72    73    2
    75    78    79    2
    76    52    53    2
