@<TRIPOS>MOLECULE
tmp/4rssA00.pdb
 165 154 0 0 0
SMALL
GASTEIGER

@<TRIPOS>ATOM
      1  N        -21.2190   -1.7650   -8.3560 N.3    14  LEU14      -0.1231
      2  CA       -21.7220   -2.6170   -9.4410 C.3    14  LEU14       0.1693
      3  C        -22.3980   -3.8630   -8.8830 C.2    14  LEU14       0.2592
      4  O        -23.5030   -4.2120   -9.3000 O.2    14  LEU14      -0.2718
      5  CB       -20.5850   -2.9900  -10.4070 C.3    14  LEU14       0.0284
      6  CG       -19.9590   -1.7890  -11.1160 C.3    14  LEU14       0.0019
      7  CD1      -18.7410   -2.1790  -11.9430 C.3    14  LEU14       0.0001
      8  CD2      -20.9820   -1.0700  -11.9820 C.3    14  LEU14       0.0001
      9  N        -21.7300   -4.5260   -7.9440 N.am   15  GLY15      -0.1957
     10  CA       -22.2910   -5.6800   -7.2430 C.3    15  GLY15       0.1869
     11  C        -21.4770   -6.0440   -6.0100 C.2    15  GLY15       0.2309
     12  O        -20.4020   -5.4710   -5.7710 O.2    15  GLY15      -0.2863
     13  N        -17.4800   -4.7460   -6.1850 N.3    22  VAL22      -0.1245
     14  CA       -16.8430   -4.3760   -7.4380 C.3    22  VAL22       0.1561
     15  C        -17.3270   -2.9780   -7.7370 C.2    22  VAL22       0.2260
     16  O        -18.5210   -2.7270   -7.7600 O.2    22  VAL22      -0.2867
     17  CB       -17.2250   -5.3290   -8.5880 C.3    22  VAL22       0.0252
     18  CG1      -16.4910   -4.9420   -9.8740 C.3    22  VAL22       0.0019
     19  CG2      -16.9340   -6.7660   -8.1920 C.3    22  VAL22       0.0019
     20  N        -12.4840   -1.4730  -13.5370 N.3    37  ALA37      -0.1245
     21  CA       -13.3650   -2.1110  -12.5540 C.3    37  ALA37       0.1562
     22  C        -12.4490   -2.6100  -11.4530 C.2    37  ALA37       0.2260
     23  O        -11.3640   -3.1470  -11.7240 O.2    37  ALA37      -0.2867
     24  CB       -14.1560   -3.2430  -13.1650 C.3    37  ALA37       0.0290
     25  N        -12.1850   -4.7400   -7.8950 N.3    39  LYS39      -0.1245
     26  CA       -12.6540   -5.7130   -6.8930 C.3    39  LYS39       0.1561
     27  C        -12.0800   -5.2760   -5.5390 C.2    39  LYS39       0.2260
     28  O        -10.8660   -5.2500   -5.3640 O.2    39  LYS39      -0.2867
     29  CB       -12.1880   -7.1240   -7.2360 C.3    39  LYS39       0.0271
     30  CG       -12.6250   -8.2040   -6.2590 C.3    39  LYS39       0.0035
     31  CD       -12.2000   -9.5800   -6.7400 C.3    39  LYS39       0.0206
     32  CE       -12.3920  -10.6020   -5.6470 C.3    39  LYS39       0.1093
     33  NZ       -12.3350  -11.9850   -6.1400 N.3    39  LYS39      -0.1314
     34  N         -5.1520  -14.3380   -6.8090 N.3    55  GLU55      -0.1245
     35  CA        -5.9940  -14.0670   -7.9570 C.3    55  GLU55       0.1567
     36  C         -5.2260  -13.1350   -8.8860 C.2    55  GLU55       0.2260
     37  O         -5.1240  -13.4040  -10.1020 O.2    55  GLU55      -0.2867
     38  CB        -7.3290  -13.4490   -7.5040 C.3    55  GLU55       0.0388
     39  CG        -8.3040  -13.1580   -8.6340 C.3    55  GLU55       0.1160
     40  CD        -9.6510  -12.6690   -8.1320 C.2    55  GLU55       0.3649
     41  OE1       -9.8630  -12.5810   -6.8770 O.co2  55  GLU55      -0.2457
     42  OE2      -10.5330  -12.3960   -8.9800 O.co2  55  GLU55      -0.2457
     43  N         -3.6540  -13.5530  -12.9890 N.3    59  MET59      -0.1245
     44  CA        -4.0600  -12.6410  -14.0530 C.3    59  MET59       0.1570
     45  C         -2.8090  -11.9880  -14.6620 C.2    59  MET59       0.2261
     46  O         -2.7390  -11.8010  -15.8640 O.2    59  MET59      -0.2867
     47  CB        -5.0070  -11.5480  -13.5380 C.3    59  MET59       0.0387
     48  CG        -6.3580  -12.0790  -13.0510 C.3    59  MET59       0.0595
     49  SD        -7.5560  -10.7730  -12.7020 S.3    59  MET59      -0.1393
     50  CE        -8.1520  -10.3780  -14.3320 C.3    59  MET59       0.0692
     51  N         -9.9510  -10.8920  -19.2650 N.3    68  VAL68      -0.1245
     52  CA        -9.8080   -9.6080  -18.5700 C.3    68  VAL68       0.1561
     53  C         -8.3620   -9.3140  -18.1810 C.2    68  VAL68       0.2260
     54  O         -7.6960  -10.1320  -17.5280 O.2    68  VAL68      -0.2867
     55  CB       -10.6660   -9.5450  -17.3070 C.3    68  VAL68       0.0252
     56  CG1      -10.3640   -8.2700  -16.5170 C.3    68  VAL68       0.0019
     57  CG2      -12.1360   -9.6120  -17.6880 C.3    68  VAL68       0.0019
     58  N         -8.7450   -3.6850  -12.6920 N.3    83  MET83      -0.1230
     59  CA        -8.8000   -4.3550  -13.9850 C.3    83  MET83       0.1702
     60  C         -9.3320   -3.4080  -15.0460 C.2    83  MET83       0.2592
     61  O        -10.0800   -2.4840  -14.7270 O.2    83  MET83      -0.2718
     62  CB        -9.7090   -5.6060  -13.8740 C.3    83  MET83       0.0401
     63  CG        -9.1820   -6.7310  -12.9940 C.3    83  MET83       0.0596
     64  SD       -10.4700   -7.8720  -12.4190 S.3    83  MET83      -0.1393
     65  CE       -11.3170   -6.7940  -11.3170 C.3    83  MET83       0.0692
     66  N         -8.9950   -3.6480  -16.3100 N.am   84  GLU84      -0.1966
     67  CA        -9.6130   -2.9190  -17.4170 C.3    84  GLU84       0.1733
     68  C        -11.1210   -3.1930  -17.4000 C.2    84  GLU84       0.2616
     69  O        -11.5630   -4.3430  -17.2960 O.2    84  GLU84      -0.2715
     70  CB        -8.9360   -3.3220  -18.7430 C.3    84  GLU84       0.0429
     71  CG        -9.5280   -2.7680  -20.0200 C.3    84  GLU84       0.1163
     72  CD        -8.6970   -3.1450  -21.2570 C.2    84  GLU84       0.3649
     73  OE1       -8.6620   -2.3290  -22.2230 O.co2  84  GLU84      -0.2457
     74  OE2       -8.0760   -4.2380  -21.2680 O.co2  84  GLU84      -0.2457
     75  N        -11.9080   -2.1260  -17.4770 N.am   85  MET85      -0.1963
     76  CA       -13.3680   -2.2080  -17.4080 C.3    85  MET85       0.1736
     77  C        -13.9890   -2.8080  -18.6680 C.2    85  MET85       0.2616
     78  O        -13.7700   -2.3070  -19.7710 O.2    85  MET85      -0.2715
     79  CB       -13.9580   -0.8110  -17.1660 C.3    85  MET85       0.0427
     80  CG       -15.4310   -0.7060  -17.4470 C.3    85  MET85       0.0599
     81  SD       -16.3500   -1.7090  -16.2930 S.3    85  MET85      -0.1393
     82  CE       -16.5100   -0.4990  -15.0190 C.3    85  MET85       0.0692
     83  N        -14.7720   -3.8590  -18.4890 N.am   86  ALA86      -0.1963
     84  CA       -15.6230   -4.4060  -19.5450 C.3    86  ALA86       0.1728
     85  C        -17.0090   -3.8560  -19.2060 C.2    86  ALA86       0.2616
     86  O        -17.6450   -4.3230  -18.2740 O.2    86  ALA86      -0.2715
     87  CB       -15.6000   -5.9050  -19.5420 C.3    86  ALA86       0.0334
     88  N        -17.4460   -2.8300  -19.9390 N.am   87  GLU87      -0.1963
     89  CA       -18.5620   -1.9770  -19.5200 C.3    87  GLU87       0.1733
     90  C        -19.9150   -2.6170  -19.3490 C.2    87  GLU87       0.2616
     91  O        -20.7060   -2.2070  -18.4990 O.2    87  GLU87      -0.2715
     92  CB       -18.7340   -0.8380  -20.5300 C.3    87  GLU87       0.0429
     93  CG       -17.6380    0.1810  -20.4250 C.3    87  GLU87       0.1163
     94  CD       -18.0270    1.3530  -19.5670 C.2    87  GLU87       0.3649
     95  OE1      -17.2370    2.2900  -19.5370 O.co2  87  GLU87      -0.2457
     96  OE2      -19.0980    1.3390  -18.9340 O.co2  87  GLU87      -0.2457
     97  N        -20.2030   -3.6010  -20.1760 N.am   88  LEU88      -0.1963
     98  CA       -21.5400   -4.1510  -20.2040 C.3    88  LEU88       0.1728
     99  C        -21.7750   -5.2010  -19.1290 C.2    88  LEU88       0.2617
    100  O        -22.9140   -5.5590  -18.8770 O.2    88  LEU88      -0.2715
    101  CB       -21.8290   -4.7140  -21.5860 C.3    88  LEU88       0.0311
    102  CG       -21.9740   -3.6560  -22.6840 C.3    88  LEU88       0.0022
    103  CD1      -22.4570   -4.3280  -23.9690 C.3    88  LEU88       0.0001
    104  CD2      -22.9110   -2.5380  -22.2550 C.3    88  LEU88       0.0001
    105  N        -20.6980   -5.6930  -18.5030 N.am   89  GLY89      -0.1941
    106  CA       -20.8360   -6.5740  -17.3410 C.3    89  GLY89       0.1998
    107  C        -21.0950   -8.0280  -17.6850 C.2    89  GLY89       0.2480
    108  O        -20.8560   -8.4390  -18.8040 O.2    89  GLY89      -0.2729
    109  N        -21.5900   -8.8050  -16.7130 N.am   90  PRO90      -0.2726
    110  CA       -21.7250  -10.2620  -16.8550 C.3    90  PRO90       0.1402
    111  C        -22.6600  -10.6980  -17.9680 C.2    90  PRO90       0.2269
    112  O        -23.7610  -10.1190  -18.1660 O.2    90  PRO90      -0.2865
    113  CB       -22.2720  -10.7060  -15.4950 C.3    90  PRO90       0.0296
    114  CG       -21.8310   -9.6530  -14.5650 C.3    90  PRO90       0.0237
    115  CD       -21.8790   -8.3790  -15.3350 C.3    90  PRO90       0.0939
    116  N        -26.4420  -11.8960  -16.9230 N.3    93  LYS93      -0.1245
    117  CA       -27.3400  -10.7810  -16.5810 C.3    93  LYS93       0.1561
    118  C        -27.6600   -9.9700  -17.8300 C.2    93  LYS93       0.2260
    119  O        -28.7930   -9.5280  -17.9950 O.2    93  LYS93      -0.2867
    120  CB       -26.7380   -9.8880  -15.4890 C.3    93  LYS93       0.0271
    121  CG       -26.4760  -10.6000  -14.1730 C.3    93  LYS93       0.0035
    122  CD       -27.7080  -10.8090  -13.3180 C.3    93  LYS93       0.0206
    123  CE       -27.4520  -11.8720  -12.2470 C.3    93  LYS93       0.1093
    124  NZ       -28.0850  -11.5630  -10.9360 N.3    93  LYS93      -0.1314
    125  N        -21.7720  -16.1850  -15.6060 N.3   133  ARG133     -0.1231
    126  CA       -21.5670  -15.0600  -14.7000 C.3   133  ARG133      0.1694
    127  C        -20.1210  -14.5060  -14.7360 C.2   133  ARG133      0.2592
    128  O        -19.8720  -13.3690  -14.3180 O.2   133  ARG133     -0.2718
    129  CB       -21.9180  -15.4350  -13.2590 C.3   133  ARG133      0.0321
    130  CG       -21.1270  -16.6090  -12.7020 C.3   133  ARG133      0.0489
    131  CD       -21.5540  -17.0830  -11.3060 C.3   133  ARG133      0.2205
    132  NE       -20.7090  -18.2010  -10.8660 N.pl3 133  ARG133     -0.0865
    133  CZ       -20.9700  -19.4800  -11.0990 C.cat 133  ARG133      0.5346
    134  NH1      -22.0730  -19.8310  -11.7360 N.pl3 133  ARG133      0.1354
    135  NH2      -20.1440  -20.4130  -10.6760 N.pl3 133  ARG133      0.1354
    136  N        -19.1910  -15.3520  -15.1250 N.am  134  ASN134     -0.1974
    137  CA       -17.7890  -14.9950  -15.1740 C.3   134  ASN134      0.1688
    138  C        -17.3100  -14.7560  -16.6270 C.2   134  ASN134      0.2292
    139  O        -16.1190  -14.8770  -16.9460 O.2   134  ASN134     -0.2864
    140  CB       -16.9820  -16.1060  -14.4790 C.3   134  ASN134      0.1181
    141  CG       -17.2680  -16.1870  -13.0020 C.2   134  ASN134      0.2629
    142  OD1      -17.5900  -15.1780  -12.3860 O.2   134  ASN134     -0.2716
    143  ND2      -17.0710  -17.3730  -12.4070 N.am  134  ASN134     -0.0877
    144  N        -17.5260  -11.5210  -19.1580 N.3   136  LEU136     -0.1245
    145  CA       -17.9210  -10.0980  -19.1730 C.3   136  LEU136      0.1561
    146  C        -17.9200   -9.5400  -20.5970 C.2   136  LEU136      0.2260
    147  O        -17.0680   -9.8910  -21.4050 O.2   136  LEU136     -0.2867
    148  CB       -16.9860   -9.2850  -18.3140 C.3   136  LEU136      0.0270
    149  CG       -16.8750   -9.7030  -16.8470 C.3   136  LEU136      0.0019
    150  CD1      -15.7430   -8.9690  -16.1840 C.3   136  LEU136      0.0001
    151  CD2      -18.1810   -9.4340  -16.1300 C.3   136  LEU136      0.0001
    152  N        -13.4780  -13.6890  -17.0040 N.3   146  SER146     -0.1202
    153  CA       -13.0960  -13.0510  -15.7860 C.3   146  SER146      0.2020
    154  C        -12.9900  -14.0990  -14.6430 C.2   146  SER146      0.2618
    155  O        -13.2680  -15.2880  -14.8620 O.2   146  SER146     -0.2717
    156  CB       -14.1700  -12.0370  -15.4110 C.3   146  SER146      0.2103
    157  OG       -15.3340  -12.6940  -14.8660 O.3   146  SER146     -0.2182
    158  N        -12.6150  -13.6280  -13.4490 N.am  147  ASP147     -0.1973
    159  CA       -12.8000  -14.3930  -12.1830 C.3   147  ASP147      0.1709
    160  C        -11.8950  -15.5970  -12.0380 C.2   147  ASP147      0.2293
    161  O        -12.3100  -16.7600  -12.1100 O.2   147  ASP147     -0.2864
    162  CB       -14.2570  -14.7570  -11.9620 C.3   147  ASP147      0.1436
    163  CG       -15.0480  -13.5670  -11.4940 C.2   147  ASP147      0.3671
    164  OD1      -15.5250  -12.7790  -12.3320 O.co2 147  ASP147     -0.2456
    165  OD2      -15.1920  -13.4020  -10.2760 O.co2 147  ASP147     -0.2456
@<TRIPOS>BOND
     1   103   102    1
     2   102   104    1
     3   102   101    1
     4    73    72   ar
     5   101    98    1
     6   147   146    2
     7    74    72   ar
     8    72    71    1
     9   146   145    1
    10    92    93    1
    11    92    89    1
    12    93    94    1
    13    98    97    1
    14    98    99    1
    15    97    90   am
    16    71    70    1
    17    88    89    1
    18    88    85   am
    19    78    77    2
    20    94    95   ar
    21    94    96   ar
    22    84    87    1
    23    84    85    1
    24    84    83    1
    25    89    90    1
    26    90    91    2
    27    51    52    1
    28    85    86    2
    29   145   144    1
    30   145   148    1
    31    99   100    2
    32    99   105   am
    33   108   107    2
    34    70    67    1
    35    77    83   am
    36    77    76    1
    37    52    53    1
    38    52    55    1
    39   105   106    1
    40   148   149    1
    41    53    54    2
    42   112   111    2
    43   119   118    2
    44   111   110    1
    45   118   117    1
    46    57    55    1
    47   107   106    1
    48   107   109   am
    49    75    76    1
    50    75    68   am
    51    80    79    1
    52    80    81    1
    53    67    68    1
    54    67    66    1
    55    76    79    1
    56    68    69    2
    57    55    56    1
    58   152   153    1
    59   139   138    2
    60   116   117    1
    61   110   109    1
    62   110   113    1
    63   149   150    1
    64   149   151    1
    65   109   115    1
    66   138   137    1
    67   117   120    1
    68    66    60   am
    69    81    82    1
    70    46    45    2
    71   153   156    1
    72   153   154    1
    73   125   126    1
    74   113   114    1
    75   120   121    1
    76   156   157    1
    77   115   114    1
    78   137   136    1
    79   137   140    1
    80   136   127   am
    81    60    61    2
    82    60    59    1
    83   155   154    2
    84   127   126    1
    85   127   128    2
    86   126   129    1
    87    45    44    1
    88   154   158   am
    89   140   141    1
    90    50    49    1
    91   121   122    1
    92    44    47    1
    93    44    43    1
    94    59    62    1
    95    59    58    1
    96    62    63    1
    97    47    48    1
    98    20    21    1
    99   158   159    1
   100   122   123    1
   101   129   130    1
   102    24    21    1
   103    48    49    1
   104   141   143   am
   105   141   142    2
   106    63    64    1
   107   130   131    1
   108    21    22    1
   109    64    65    1
   110   164   163   ar
   111   123   124    1
   112   159   160    1
   113   159   162    1
   114   161   160    2
   115     8     6    1
   116   162   163    1
   117     7     6    1
   118   134   133    1
   119    23    22    2
   120   163   165   ar
   121   131   132    1
   122     6     5    1
   123   133   132    2
   124   133   135    1
   125     5     2    1
   126    37    36    2
   127    18    17    1
   128     2     3    1
   129     2     1    1
   130     4     3    2
   131    42    40   ar
   132    36    35    1
   133     3     9   am
   134    39    40    1
   135    39    38    1
   136    17    19    1
   137    17    14    1
   138    40    41   ar
   139    35    38    1
   140    35    34    1
   141     9    10    1
   142    25    26    1
   143    16    15    2
   144    15    14    1
   145    14    13    1
   146    10    11    1
   147    29    26    1
   148    29    30    1
   149    26    27    1
   150    31    30    1
   151    31    32    1
   152    33    32    1
   153    11    12    2
   154    27    28    2
