@<TRIPOS>MOLECULE
tmp/4rsyA00.pdb
 216 212 0 0 0
SMALL
GASTEIGER

@<TRIPOS>ATOM
      1  N        -36.4950    2.2560   -8.8460 N.3   131  GLN131     -0.1245
      2  CA       -35.8700    1.7410   -7.6100 C.3   131  GLN131      0.1566
      3  C        -34.6990    2.6860   -7.2460 C.2   131  GLN131      0.2260
      4  O        -33.6360    2.6660   -7.8840 O.2   131  GLN131     -0.2867
      5  CB       -35.4130    0.3130   -7.7790 C.3   131  GLN131      0.0367
      6  CG       -34.5980   -0.2360   -6.5960 C.3   131  GLN131      0.0905
      7  CD       -35.3550   -0.1710   -5.2680 C.2   131  GLN131      0.2608
      8  OE1      -36.5170   -0.5390   -5.1820 O.2   131  GLN131     -0.2717
      9  NE2      -34.6840    0.2700   -4.2150 N.am  131  GLN131     -0.0878
     10  N        -33.4060    3.4280   -3.9250 N.3   133  GLN133     -0.1231
     11  CA       -32.4470    3.0460   -2.9300 C.3   133  GLN133      0.1698
     12  C        -31.3120    2.2430   -3.5660 C.2   133  GLN133      0.2592
     13  O        -31.5260    1.3030   -4.3440 O.2   133  GLN133     -0.2718
     14  CB       -33.1200    2.2950   -1.7440 C.3   133  GLN133      0.0381
     15  CG       -32.2900    2.3160   -0.5060 C.3   133  GLN133      0.0905
     16  CD       -32.8970    1.5160    0.6410 C.2   133  GLN133      0.2608
     17  OE1      -34.0230    1.0480    0.5860 O.2   133  GLN133     -0.2717
     18  NE2      -32.1280    1.3640    1.6910 N.am  133  GLN133     -0.0878
     19  N        -30.0800    2.5330   -3.2340 N.am  134  ALA134     -0.1980
     20  CA       -29.6120    3.5570   -2.2830 C.3   134  ALA134      0.1597
     21  C        -29.4480    4.9400   -2.9550 C.2   134  ALA134      0.2287
     22  O        -29.9220    5.9710   -2.4140 O.2   134  ALA134     -0.2864
     23  CB       -28.2910    3.0880   -1.7690 C.3   134  ALA134      0.0319
     24  N        -35.7300   -6.6530   -5.9810 N.3   264  TYR264     -0.1227
     25  CA       -35.7140   -6.9180   -4.5540 C.3   264  TYR264      0.1736
     26  C        -37.0110   -7.6000   -4.0640 C.2   264  TYR264      0.2596
     27  O        -38.0540   -7.4970   -4.7150 O.2   264  TYR264     -0.2718
     28  CB       -35.4710   -5.6120   -3.8210 C.3   264  TYR264      0.0548
     29  CG       -34.0850   -5.0060   -4.1130 C.ar  264  TYR264     -0.0200
     30  CD1      -32.9340   -5.6280   -3.6800 C.ar  264  TYR264     -0.0009
     31  CD2      -33.9580   -3.8110   -4.8320 C.ar  264  TYR264     -0.0009
     32  CE1      -31.6550   -5.0740   -3.9440 C.ar  264  TYR264      0.0417
     33  CE2      -32.7140   -3.2470   -5.0640 C.ar  264  TYR264      0.0417
     34  CZ       -31.5710   -3.8810   -4.6410 C.ar  264  TYR264      0.1957
     35  OH       -30.3890   -3.2670   -4.9250 O.3   264  TYR264     -0.2866
     36  N        -36.9370   -8.3320   -2.9450 N.am  265  GLY265     -0.1942
     37  CA       -38.1370   -8.9100   -2.3400 C.3   265  GLY265      0.2014
     38  C        -39.1690   -7.8100   -2.1280 C.2   265  GLY265      0.2639
     39  O        -40.3890   -7.9330   -2.4610 O.2   265  GLY265     -0.2714
     40  N        -38.7220   -6.7650   -1.4870 N.am  266  GLY266     -0.1939
     41  CA       -39.6130   -5.6370   -1.2350 C.3   266  GLY266      0.2014
     42  C        -38.8330   -4.3130   -1.1500 C.2   266  GLY266      0.2639
     43  O        -37.6260   -4.2630   -0.8750 O.2   266  GLY266     -0.2714
     44  N        -39.5440   -3.2190   -1.3000 N.am  267  MET267     -0.1963
     45  CA       -38.9390   -1.9120   -1.1270 C.3   267  MET267      0.1736
     46  C        -39.9550   -1.0720   -0.3990 C.2   267  MET267      0.2616
     47  O        -41.0970   -0.9760   -0.8190 O.2   267  MET267     -0.2715
     48  CB       -38.6440   -1.2390   -2.4900 C.3   267  MET267      0.0427
     49  CG       -37.9600    0.1250   -2.3390 C.3   267  MET267      0.0599
     50  SD       -36.5470    0.1560   -1.2150 S.3   267  MET267     -0.1393
     51  CE       -36.8550    1.7710   -0.4560 C.3   267  MET267      0.0692
     52  N        -39.5390   -0.4380    0.6850 N.am  268  GLU268     -0.1977
     53  CA       -40.5190    0.2320    1.6070 C.3   268  GLU268      0.1602
     54  C        -40.8980    1.6540    1.2270 C.2   268  GLU268      0.2287
     55  O        -40.9120    2.6120    2.0690 O.2   268  GLU268     -0.2864
     56  CB       -39.8620    0.2640    2.9960 C.3   268  GLU268      0.0415
     57  CG       -38.6440    1.1970    3.0960 C.3   268  GLU268      0.1163
     58  CD       -37.2800    0.5190    2.9180 C.2   268  GLU268      0.3649
     59  OE1      -37.1320   -0.5330    2.2400 O.co2 268  GLU268     -0.2457
     60  OE2      -36.2860    1.0920    3.4240 O.co2 268  GLU268     -0.2457
     61  N        -41.6970   -6.9880    7.0500 N.3   292  HIS292     -0.1226
     62  CA       -40.4360   -6.2350    6.9370 C.3   292  HIS292      0.1752
     63  C        -40.6800   -4.8260    6.3970 C.2   292  HIS292      0.2595
     64  O        -40.2470   -3.8300    6.9970 O.2   292  HIS292     -0.2718
     65  CB       -39.3930   -7.0400    6.1080 C.3   292  HIS292      0.0759
     66  CG       -38.0560   -6.4020    6.0390 C.ar  292  HIS292      0.0818
     67  ND1      -37.7670   -5.3700    5.1710 N.ar  292  HIS292     -0.2268
     68  CD2      -36.9270   -6.6260    6.7530 C.ar  292  HIS292      0.1154
     69  CE1      -36.5050   -5.0050    5.3330 C.ar  292  HIS292      0.1986
     70  NE2      -35.9790   -5.7430    6.2870 N.ar  292  HIS292     -0.2212
     71  N        -41.3860   -4.7180    5.2790 N.am  293  GLU293     -0.1979
     72  CA       -41.5620   -3.4330    4.6860 C.3   293  GLU293      0.1602
     73  C        -42.3890   -2.5650    5.5760 C.2   293  GLU293      0.2287
     74  O        -42.1120   -1.4110    5.7010 O.2   293  GLU293     -0.2864
     75  CB       -42.1480   -3.5430    3.2810 C.3   293  GLU293      0.0415
     76  CG       -41.3430   -4.4290    2.3340 C.3   293  GLU293      0.1163
     77  CD       -39.8550   -4.1950    2.2520 C.2   293  GLU293      0.3649
     78  OE1      -39.3750   -3.0710    2.4060 O.co2 293  GLU293     -0.2457
     79  OE2      -39.1270   -5.2250    2.0310 O.co2 293  GLU293     -0.2457
     80  N        -40.2310   -0.8960    8.2540 N.3   296  HIS296     -0.1241
     81  CA       -39.5250    0.3160    7.7810 C.3   296  HIS296      0.1621
     82  C        -40.3400    1.6570    7.9220 C.2   296  HIS296      0.2264
     83  O        -39.7540    2.7500    7.9830 O.2   296  HIS296     -0.2867
     84  CB       -39.1470    0.1740    6.3220 C.3   296  HIS296      0.0745
     85  CG       -37.9100   -0.6490    6.0610 C.ar  296  HIS296      0.0817
     86  ND1      -36.6820   -0.2990    6.5760 N.ar  296  HIS296     -0.2268
     87  CD2      -37.6830   -1.7040    5.2450 C.ar  296  HIS296      0.1154
     88  CE1      -35.7580   -1.1240    6.1370 C.ar  296  HIS296      0.1986
     89  NE2      -36.3390   -1.9800    5.3170 N.ar  296  HIS296     -0.2212
     90  N        -24.9790    5.8380    4.1700 N.3   308  TRP308     -0.1227
     91  CA       -25.2240    4.4250    3.8740 C.3   308  TRP308      0.1737
     92  C        -24.2380    3.5670    4.6470 C.2   308  TRP308      0.2595
     93  O        -24.4140    2.3610    4.7780 O.2   308  TRP308     -0.2718
     94  CB       -25.1700    4.1860    2.3740 C.3   308  TRP308      0.0564
     95  CG       -26.2930    4.8800    1.6830 C.ar  308  TRP308      0.0003
     96  CD1      -26.2040    5.9040    0.8560 C.ar  308  TRP308      0.0946
     97  CD2      -27.6680    4.6080    1.8510 C.ar  308  TRP308      0.0152
     98  NE1      -27.4370    6.3200    0.4730 N.ar  308  TRP308     -0.2442
     99  CE2      -28.3660    5.5540    1.1240 C.ar  308  TRP308      0.0810
    100  CE3      -28.3830    3.6720    2.6100 C.ar  308  TRP308      0.0012
    101  CZ2      -29.7540    5.5400    1.0130 C.ar  308  TRP308      0.0191
    102  CZ3      -29.7440    3.6950    2.5720 C.ar  308  TRP308      0.0001
    103  CH2      -30.4310    4.6220    1.7930 C.ar  308  TRP308      0.0015
    104  N        -23.2020    4.2010    5.1920 N.am  309  ASP309     -0.1974
    105  CA       -22.2950    3.5350    6.1190 C.3   309  ASP309      0.1709
    106  C        -23.0510    2.9400    7.3430 C.2   309  ASP309      0.2293
    107  O        -22.6320    1.9450    7.9010 O.2   309  ASP309     -0.2864
    108  CB       -21.1870    4.4970    6.5830 C.3   309  ASP309      0.1436
    109  CG       -20.1570    4.7750    5.4670 C.2   309  ASP309      0.3671
    110  OD1      -20.1420    4.0980    4.4310 O.co2 309  ASP309     -0.2456
    111  OD2      -19.3650    5.6880    5.6080 O.co2 309  ASP309     -0.2456
    112  N        -26.2640    1.7990    7.3390 N.3   311  PHE311     -0.1241
    113  CA       -27.4110    1.0580    6.7780 C.3   311  PHE311      0.1605
    114  C        -27.9190    0.0650    7.7670 C.2   311  PHE311      0.2264
    115  O        -29.1090   -0.2520    7.7960 O.2   311  PHE311     -0.2867
    116  CB       -26.9320    0.3340    5.5280 C.3   311  PHE311      0.0534
    117  CG       -28.0130   -0.3670    4.6990 C.ar  311  PHE311     -0.0203
    118  CD1      -29.1480    0.2790    4.2810 C.ar  311  PHE311     -0.0042
    119  CD2      -27.8110   -1.6650    4.2710 C.ar  311  PHE311     -0.0042
    120  CE1      -30.0440   -0.3470    3.4710 C.ar  311  PHE311     -0.0003
    121  CE2      -28.7140   -2.3020    3.4450 C.ar  311  PHE311     -0.0003
    122  CZ       -29.8580   -1.6500    3.0880 C.ar  311  PHE311     -0.0000
    123  N        -31.7430   -1.5120    8.4530 N.3   315  GLU315     -0.1245
    124  CA       -32.1360   -2.9130    8.2150 C.3   315  GLU315      0.1567
    125  C        -32.1840   -3.8010    9.4650 C.2   315  GLU315      0.2260
    126  O        -33.0760   -4.6450    9.6020 O.2   315  GLU315     -0.2867
    127  CB       -31.2790   -3.5480    7.1320 C.3   315  GLU315      0.0388
    128  CG       -31.3690   -2.8020    5.7900 C.3   315  GLU315      0.1160
    129  CD       -32.7650   -2.6800    5.2050 C.2   315  GLU315      0.3649
    130  OE1      -33.6080   -3.5030    5.5310 O.co2 315  GLU315     -0.2457
    131  OE2      -33.0090   -1.7180    4.3860 O.co2 315  GLU315     -0.2457
    132  N        -16.7010   -5.8720    4.1270 N.3   359  PHE359     -0.1241
    133  CA       -18.1450   -5.7540    4.0480 C.3   359  PHE359      0.1605
    134  C        -18.8770   -6.7430    4.9410 C.2   359  PHE359      0.2264
    135  O        -20.1310   -6.8230    4.9620 O.2   359  PHE359     -0.2867
    136  CB       -18.5600   -5.7250    2.6010 C.3   359  PHE359      0.0534
    137  CG       -18.2310   -4.4120    1.9860 C.ar  359  PHE359     -0.0203
    138  CD1      -18.8270   -3.2770    2.4970 C.ar  359  PHE359     -0.0042
    139  CD2      -17.2430   -4.2790    1.0320 C.ar  359  PHE359     -0.0042
    140  CE1      -18.4900   -2.0140    2.0230 C.ar  359  PHE359     -0.0003
    141  CE2      -16.8920   -3.0380    0.5450 C.ar  359  PHE359     -0.0003
    142  CZ       -17.5220   -1.8930    1.0490 C.ar  359  PHE359     -0.0000
    143  N        -20.1800   -4.6020   10.5170 N.3   362  LEU362     -0.1245
    144  CA       -21.5410   -4.0710   10.7030 C.3   362  LEU362      0.1561
    145  C        -21.5890   -2.6260   10.1970 C.2   362  LEU362      0.2260
    146  O        -22.4710   -2.2710    9.3810 O.2   362  LEU362     -0.2867
    147  CB       -21.9360   -4.1030   12.1750 C.3   362  LEU362      0.0270
    148  CG       -23.3680   -3.6910   12.5040 C.3   362  LEU362      0.0019
    149  CD1      -24.3440   -4.5460   11.7390 C.3   362  LEU362      0.0001
    150  CD2      -23.6540   -3.7690   13.9830 C.3   362  LEU362      0.0001
    151  N        -19.6710    0.0850    7.9430 N.3   364  VAL364     -0.1245
    152  CA       -18.7620   -0.0520    6.8260 C.3   364  VAL364      0.1561
    153  C        -18.2930    1.3120    6.3160 C.2   364  VAL364      0.2260
    154  O        -18.8010    2.3750    6.7450 O.2   364  VAL364     -0.2867
    155  CB       -19.4110   -0.8830    5.6830 C.3   364  VAL364      0.0252
    156  CG1      -19.8530   -2.2320    6.1960 C.3   364  VAL364      0.0019
    157  CG2      -20.5960   -0.2100    5.0510 C.3   364  VAL364      0.0019
    158  N        -17.9740    3.1860    2.8720 N.3   366  LEU366     -0.1245
    159  CA       -18.3720    3.0750    1.4510 C.3   366  LEU366      0.1561
    160  C        -17.5890    4.0150    0.5210 C.2   366  LEU366      0.2260
    161  O        -17.9410    4.1620   -0.6500 O.2   366  LEU366     -0.2867
    162  CB       -19.8880    3.2800    1.2620 C.3   366  LEU366      0.0270
    163  CG       -20.6990    2.0430    1.6410 C.3   366  LEU366      0.0019
    164  CD1      -22.1740    2.3920    1.8150 C.3   366  LEU366      0.0001
    165  CD2      -20.5170    0.9000    0.6260 C.3   366  LEU366      0.0001
    166  N        -22.6360    1.1030   -3.4620 N.3   371  PRO371     -0.2102
    167  CA       -23.4400    0.3300   -2.4800 C.3   371  PRO371      0.1504
    168  C        -24.0780   -0.9440   -3.1110 C.2   371  PRO371      0.2575
    169  O        -24.1300   -1.9430   -2.4370 O.2   371  PRO371     -0.2718
    170  CB       -24.4710    1.3420   -1.9720 C.3   371  PRO371      0.0282
    171  CG       -23.8610    2.7040   -2.2730 C.3   371  PRO371      0.0208
    172  CD       -23.0270    2.5230   -3.5210 C.3   371  PRO371      0.0893
    173  N        -24.4840   -0.9350   -4.3780 N.am  372  ASP372     -0.1974
    174  CA       -25.0500   -2.1840   -4.9730 C.3   372  ASP372      0.1708
    175  C        -24.0280   -3.3620   -5.0110 C.2   372  ASP372      0.2293
    176  O        -24.4010   -4.5220   -4.8850 O.2   372  ASP372     -0.2864
    177  CB       -25.6130   -1.9030   -6.3680 C.3   372  ASP372      0.1436
    178  CG       -26.7590   -0.9070   -6.3400 C.2   372  ASP372      0.3671
    179  OD1      -27.4990   -0.8480   -5.3410 O.co2 372  ASP372     -0.2456
    180  OD2      -26.9480   -0.2050   -7.3410 O.co2 372  ASP372     -0.2456
    181  N        -21.6550   -3.8650   -2.7990 N.3   374  ALA374     -0.1231
    182  CA       -21.3160   -4.3170   -1.4870 C.3   374  ALA374      0.1694
    183  C        -22.5100   -4.9170   -0.6850 C.2   374  ALA374      0.2592
    184  O        -22.3400   -5.4320    0.4390 O.2   374  ALA374     -0.2718
    185  CB       -20.7160   -3.1420   -0.7550 C.3   374  ALA374      0.0304
    186  N        -23.7030   -4.8080   -1.2780 N.am  375  TYR375     -0.1976
    187  CA       -24.9700   -5.2130   -0.6500 C.3   375  TYR375      0.1639
    188  C        -24.9770   -6.7100   -0.3000 C.2   375  TYR375      0.2290
    189  O        -24.5890   -7.5110   -1.0920 O.2   375  TYR375     -0.2864
    190  CB       -26.1180   -4.9740   -1.5950 C.3   375  TYR375      0.0560
    191  CG       -27.4840   -5.4080   -1.0360 C.ar  375  TYR375     -0.0198
    192  CD1      -28.0800   -4.6800    0.0080 C.ar  375  TYR375     -0.0009
    193  CD2      -28.1730   -6.5010   -1.5620 C.ar  375  TYR375     -0.0009
    194  CE1      -29.3470   -5.0060    0.4820 C.ar  375  TYR375      0.0417
    195  CE2      -29.4510   -6.8250   -1.1020 C.ar  375  TYR375      0.0417
    196  CZ       -29.9970   -6.0850   -0.0480 C.ar  375  TYR375      0.1957
    197  OH       -31.1900   -6.4120    0.4780 O.3   375  TYR375     -0.2866
    198  N        -25.7010   -6.4570    7.0260 N.2   379  PRO379     -0.2571
    199  CA       -26.2620   -5.3880    7.8840 C.3   379  PRO379      0.2026
    200  C        -27.6070   -5.8170    8.4900 C.2   379  PRO379      0.2683
    201  O        -27.9990   -5.3800    9.5880 O.2   379  PRO379     -0.2709
    202  CB       -26.4570   -4.2370    6.9180 C.2   379  PRO379      0.0085
    203  CG       -26.1480   -4.7190    5.5900 C.2   379  PRO379      0.0180
    204  CD       -25.5190   -6.0490    5.6250 C.2   379  PRO379      0.0938
    205  N        -28.3040   -6.7280    7.7780 N.am  380  TYR380     -0.1969
    206  CA       -29.5380   -7.2640    8.2510 C.3   380  TYR380      0.1640
    207  C        -29.3430   -8.1860    9.4380 C.2   380  TYR380      0.2290
    208  O        -30.0060   -8.0280   10.4800 O.2   380  TYR380     -0.2864
    209  CB       -30.2480   -8.0730    7.1700 C.3   380  TYR380      0.0560
    210  CG       -30.6760   -7.2680    5.9380 C.ar  380  TYR380     -0.0198
    211  CD1      -29.7690   -6.9520    4.9340 C.ar  380  TYR380     -0.0009
    212  CD2      -31.9840   -6.9250    5.7550 C.ar  380  TYR380     -0.0009
    213  CE1      -30.1670   -6.2180    3.8200 C.ar  380  TYR380      0.0417
    214  CE2      -32.4150   -6.1780    4.6270 C.ar  380  TYR380      0.0417
    215  CZ       -31.4950   -5.8220    3.6620 C.ar  380  TYR380      0.1957
    216  OH       -31.8630   -5.0920    2.5490 O.3   380  TYR380     -0.2866
@<TRIPOS>BOND
     1     1     2    1
     2     4     3    2
     3     5     2    1
     4     5     6    1
     5     2     3    1
     6   180   178   ar
     7     6     7    1
     8   177   178    1
     9   177   174    1
    10   178   179   ar
    11    24    25    1
    12     7     8    2
    13     7     9   am
    14    33    31   ar
    15    33    34   ar
    16   175   174    1
    17   175   176    2
    18   174   173    1
    19    35    34    1
    20    31    29   ar
    21    27    26    2
    22    34    32   ar
    23    25    26    1
    24    25    28    1
    25   173   168   am
    26    13    12    2
    27    29    28    1
    28    29    30   ar
    29    26    36   am
    30    32    30   ar
    31    10    11    1
    32    12    19   am
    33    12    11    1
    34   172   166    1
    35   172   171    1
    36   166   167    1
    37    19    20    1
    38   168   167    1
    39   168   169    2
    40    21    22    2
    41    21    20    1
    42    36    37    1
    43    11    14    1
    44   181   182    1
    45    48    49    1
    46    48    45    1
    47   167   170    1
    48    39    38    2
    49    37    38    1
    50    49    50    1
    51    20    23    1
    52   171   170    1
    53    38    40   am
    54    14    15    1
    55   190   191    1
    56   190   187    1
    57   193   195   ar
    58   193   191   ar
    59   182   185    1
    60   182   183    1
    61    40    41    1
    62    44    42   am
    63    44    45    1
    64   186   183   am
    65   186   187    1
    66    41    42    1
    67    50    51    1
    68    42    43    2
    69    45    46    1
    70   195   196   ar
    71   189   188    2
    72   191   192   ar
    73    47    46    2
    74   183   184    2
    75   161   160    2
    76   187   188    1
    77    15    16    1
    78    46    52   am
    79   196   197    1
    80   196   194   ar
    81   192   194   ar
    82    98    96   ar
    83    98    99   ar
    84   160   159    1
    85   141   139   ar
    86   141   142   ar
    87    17    16    2
    88   165   163    1
    89    16    18   am
    90    52    53    1
    91    96    95   ar
    92   101    99   ar
    93   101   103   ar
    94   139   137   ar
    95   142   140   ar
    96    99    97   ar
    97    54    53    1
    98    54    55    2
    99   162   159    1
   100   162   163    1
   101   159   158    1
   102    53    56    1
   103   163   164    1
   104    95    97   ar
   105    95    94    1
   106   103   102   ar
   107    97   100   ar
   108   137   138   ar
   109   137   136    1
   110   140   138   ar
   111    79    77   ar
   112    59    58   ar
   113    77    76    1
   114    77    78   ar
   115    76    75    1
   116    94    91    1
   117   216   215    1
   118   102   100   ar
   119   136   133    1
   120    58    57    1
   121    58    60   ar
   122    56    57    1
   123   122   121   ar
   124   122   120   ar
   125    75    72    1
   126   121   119   ar
   127   120   118   ar
   128   215   213   ar
   129   215   214   ar
   130   213   211   ar
   131    91    90    1
   132    91    92    1
   133   133   132    1
   134   133   134    1
   135   119   117   ar
   136   118   117   ar
   137   131   129   ar
   138   110   109   ar
   139   214   212   ar
   140    92    93    2
   141    92   104   am
   142    72    71    1
   143    72    73    1
   144   117   116    1
   145   211   210   ar
   146   134   135    2
   147   157   155    1
   148    67    69   ar
   149    67    66   ar
   150   104   105    1
   151   129   130   ar
   152   129   128    1
   153    87    89   ar
   154    87    85   ar
   155    71    63   am
   156    89    88   ar
   157    69    70   ar
   158   109   111   ar
   159   109   108    1
   160   116   113    1
   161    73    74    2
   162   203   204    1
   163   203   202    2
   164   204   198    2
   165   155   156    1
   166   155   152    1
   167   212   210   ar
   168   128   127    1
   169   210   209    1
   170    66    65    1
   171    66    68   ar
   172    85    84    1
   173    85    86   ar
   174    65    62    1
   175   105   108    1
   176   105   106    1
   177    88    86   ar
   178    70    68   ar
   179   153   154    2
   180   153   152    1
   181    84    81    1
   182    63    62    1
   183    63    64    2
   184   113   112    1
   185   113   114    1
   186   152   151    1
   187   202   199    1
   188    62    61    1
   189   198   199    1
   190   127   124    1
   191   209   206    1
   192   106   107    2
   193   114   115    2
   194   205   206    1
   195   205   200   am
   196    81    82    1
   197    81    80    1
   198   199   200    1
   199    82    83    2
   200   124   123    1
   201   124   125    1
   202   206   207    1
   203   200   201    2
   204   146   145    2
   205   207   208    2
   206   125   126    2
   207   145   144    1
   208   143   144    1
   209   144   147    1
   210   149   148    1
   211   147   148    1
   212   148   150    1
