@<TRIPOS>MOLECULE
tmp/4rt1B00.pdb
 138 134 0 0 0
SMALL
GASTEIGER

@<TRIPOS>ATOM
      1  N         53.2410  -13.7500  150.2870 N.3     1  ALA1       -0.1231
      2  CA        52.6750  -14.3100  149.0620 C.3     1  ALA1        0.1694
      3  C         53.0180  -13.4420  147.8680 C.2     1  ALA1        0.2592
      4  O         52.8030  -12.2300  147.8860 O.2     1  ALA1       -0.2718
      5  CB        51.1920  -14.4720  149.1910 C.3     1  ALA1        0.0304
      6  N         53.5290  -14.0880  146.8280 N.am    2  GLN2       -0.1966
      7  CA        53.9970  -13.4140  145.6340 C.3     2  GLN2        0.1733
      8  C         53.0030  -13.5810  144.4890 C.2     2  GLN2        0.2616
      9  O         52.4040  -14.6520  144.3020 O.2     2  GLN2       -0.2715
     10  CB        55.3590  -13.9670  145.2110 C.3     2  GLN2        0.0408
     11  CG        56.4770  -13.6850  146.2240 C.3     2  GLN2        0.0908
     12  CD        56.7740  -12.2020  146.3560 C.2     2  GLN2        0.2608
     13  OE1       57.1740  -11.5480  145.3920 O.2     2  GLN2       -0.2717
     14  NE2       56.5870  -11.6630  147.5570 N.am    2  GLN2       -0.0878
     15  N         52.8260  -12.5080  143.7370 N.am    3  ARG3       -0.1963
     16  CA        51.9400  -12.5060  142.5750 C.3     3  ARG3        0.1729
     17  C         52.3950  -13.4870  141.5060 C.2     3  ARG3        0.2616
     18  O         53.5640  -13.4600  141.0720 O.2     3  ARG3       -0.2715
     19  CB        51.9310  -11.1020  141.9740 C.3     3  ARG3        0.0348
     20  CG        50.8810  -10.9110  140.8980 C.3     3  ARG3        0.0492
     21  CD        50.9680   -9.4560  140.4130 C.3     3  ARG3        0.2205
     22  NE        50.4350   -8.5180  141.4090 N.pl3   3  ARG3       -0.0865
     23  CZ        50.0820   -7.2670  141.1190 C.cat   3  ARG3        0.5346
     24  NH1       50.2080   -6.8060  139.8770 N.pl3   3  ARG3        0.1354
     25  NH2       49.5680   -6.4820  142.0490 N.pl3   3  ARG3        0.1354
     26  N         51.4790  -14.3530  141.0810 N.am    4  GLN4       -0.1963
     27  CA        51.8310  -15.3820  140.0960 C.3     4  GLN4        0.1733
     28  C         51.4800  -14.9940  138.6630 C.2     4  GLN4        0.2616
     29  O         52.0340  -15.5620  137.7150 O.2     4  GLN4       -0.2715
     30  CB        51.1170  -16.6940  140.4290 C.3     4  GLN4        0.0408
     31  CG        51.4910  -17.2250  141.8000 C.3     4  GLN4        0.0908
     32  CD        52.9630  -17.5760  141.9020 C.2     4  GLN4        0.2608
     33  OE1       53.4510  -18.4410  141.1720 O.2     4  GLN4       -0.2717
     34  NE2       53.6820  -16.9090  142.8130 N.am    4  GLN4       -0.0878
     35  N         50.5500  -14.0570  138.5070 N.am    5  PHE5       -0.1974
     36  CA        50.0020  -13.7270  137.1770 C.3     5  PHE5        0.1639
     37  C         50.0290  -12.2250  136.9620 C.2     5  PHE5        0.2290
     38  O         49.5540  -11.4570  137.7870 O.2     5  PHE5       -0.2864
     39  CB        48.5430  -14.1970  137.0570 C.3     5  PHE5        0.0560
     40  CG        48.3540  -15.6440  137.3830 C.ar    5  PHE5       -0.0200
     41  CD1       48.9000  -16.6100  136.5710 C.ar    5  PHE5       -0.0042
     42  CD2       47.6380  -16.0300  138.5090 C.ar    5  PHE5       -0.0042
     43  CE1       48.7220  -17.9600  136.8490 C.ar    5  PHE5       -0.0003
     44  CE2       47.4580  -17.3750  138.8040 C.ar    5  PHE5       -0.0003
     45  CZ        48.0010  -18.3410  137.9720 C.ar    5  PHE5       -0.0000
     46  N         49.1070   -8.5700  135.9590 N.3     7  ARG7       -0.1245
     47  CA        47.8460   -7.8580  135.9310 C.3     7  ARG7        0.1563
     48  C         47.9450   -6.7200  134.9290 C.2     7  ARG7        0.2260
     49  O         48.9000   -5.9390  134.9630 O.2     7  ARG7       -0.2867
     50  CB        47.5250   -7.3270  137.3170 C.3     7  ARG7        0.0307
     51  CG        47.3730   -8.4650  138.2900 C.3     7  ARG7        0.0489
     52  CD        46.9670   -7.9700  139.6590 C.3     7  ARG7        0.2205
     53  NE        46.9860   -9.1180  140.5910 N.pl3   7  ARG7       -0.0865
     54  CZ        46.7950   -9.0130  141.9020 C.cat   7  ARG7        0.5346
     55  NH1       46.5290   -7.8480  142.4570 N.pl3   7  ARG7        0.1354
     56  NH2       46.8680  -10.0950  142.6560 N.pl3   7  ARG7        0.1354
     57  N         41.9140   -3.8720  136.6620 N.3    30  ASP30      -0.1225
     58  CA        42.8900   -4.7510  136.0070 C.3    30  ASP30       0.1805
     59  C         42.3630   -6.1640  135.8530 C.2    30  ASP30       0.2598
     60  O         41.2980   -6.4820  136.3750 O.2    30  ASP30      -0.2718
     61  CB        44.2660   -4.7240  136.7070 C.3    30  ASP30       0.1424
     62  CG        44.2400   -5.2510  138.1450 C.2    30  ASP30       0.3668
     63  OD1       43.6120   -6.2800  138.4200 O.co2  30  ASP30      -0.2456
     64  OD2       44.9270   -4.6210  138.9910 O.co2  30  ASP30      -0.2456
     65  N         43.0920   -6.9730  135.0780 N.am   31  LEU31      -0.1966
     66  CA        42.7120   -8.3420  134.7690 C.3    31  LEU31       0.1728
     67  C         43.9860   -9.1730  134.7480 C.2    31  LEU31       0.2616
     68  O         45.0290   -8.7090  134.2820 O.2    31  LEU31      -0.2715
     69  CB        42.0430   -8.4110  133.3830 C.3    31  LEU31       0.0311
     70  CG        41.6800   -9.8280  132.9230 C.3    31  LEU31       0.0022
     71  CD1       40.4900  -10.3390  133.7150 C.3    31  LEU31       0.0001
     72  CD2       41.3390   -9.7920  131.4360 C.3    31  LEU31       0.0001
     73  N         43.9110  -10.4050  135.2440 N.am   32  SER32      -0.1950
     74  CA        45.0000  -11.3650  135.0720 C.3    32  SER32       0.1924
     75  C         44.3970  -12.7170  134.7830 C.2    32  SER32       0.2314
     76  O         43.1790  -12.8700  134.7650 O.2    32  SER32      -0.2863
     77  CB        45.8400  -11.4600  136.3560 C.3    32  SER32       0.2116
     78  OG        45.0440  -12.0310  137.3730 O.3    32  SER32      -0.2180
     79  N         44.2490  -15.0560  136.6910 N.3    34  GLY34      -0.1210
     80  CA        43.6690  -15.5430  137.9350 C.3    34  GLY34       0.1956
     81  C         42.4860  -14.7730  138.4910 C.2    34  GLY34       0.2612
     82  O         41.7710  -15.2640  139.3890 O.2    34  GLY34      -0.2717
     83  N         42.2890  -13.5440  138.0190 N.am   35  GLY35      -0.1942
     84  CA        41.2790  -12.6920  138.6400 C.3    35  GLY35       0.2014
     85  C         41.2260  -11.3060  138.0470 C.2    35  GLY35       0.2639
     86  O         41.7060  -11.0620  136.9260 O.2    35  GLY35      -0.2714
     87  N         40.6220  -10.3860  138.7920 N.am   36  PHE36      -0.1959
     88  CA        40.4310   -9.0220  138.2810 C.3    36  PHE36       0.1771
     89  C         40.1480   -8.1120  139.4560 C.2    36  PHE36       0.2619
     90  O         39.9700   -8.5720  140.5800 O.2    36  PHE36      -0.2715
     91  CB        39.2690   -8.9730  137.2530 C.3    36  PHE36       0.0574
     92  CG        37.9330   -9.4040  137.8170 C.ar   36  PHE36      -0.0200
     93  CD1       37.5740  -10.7490  137.8350 C.ar   36  PHE36      -0.0042
     94  CD2       37.0640   -8.4710  138.3500 C.ar   36  PHE36      -0.0042
     95  CE1       36.3580  -11.1400  138.3530 C.ar   36  PHE36      -0.0003
     96  CE2       35.8230   -8.8650  138.8640 C.ar   36  PHE36      -0.0003
     97  CZ        35.4810  -10.1970  138.8690 C.ar   36  PHE36      -0.0000
     98  N         40.1290   -6.8080  139.2040 N.am   37  ALA37      -0.1977
     99  CA        39.7770   -5.8410  140.2580 C.3    37  ALA37       0.1597
    100  C         38.8190   -4.8300  139.6510 C.2    37  ALA37       0.2287
    101  O         38.8470   -4.6170  138.4360 O.2    37  ALA37      -0.2864
    102  CB        41.0390   -5.0980  140.7500 C.3    37  ALA37       0.0319
    103  N         38.5380  -11.4530  147.2540 N.3    73  ARG73      -0.1231
    104  CA        39.6740  -11.7500  148.1320 C.3    73  ARG73       0.1694
    105  C         39.9610  -10.5970  149.0760 C.2    73  ARG73       0.2592
    106  O         40.4280  -10.8090  150.1990 O.2    73  ARG73      -0.2718
    107  CB        40.9310  -12.0480  147.3050 C.3    73  ARG73       0.0321
    108  CG        40.7980  -13.2370  146.3610 C.3    73  ARG73       0.0489
    109  CD        40.5250  -14.5090  147.2020 C.3    73  ARG73       0.2205
    110  NE        41.6420  -14.7960  148.1070 N.pl3  73  ARG73      -0.0865
    111  CZ        41.6290  -15.7370  149.0490 C.cat  73  ARG73       0.5346
    112  NH1       40.5590  -16.5120  149.2320 N.pl3  73  ARG73       0.1354
    113  NH2       42.7000  -15.8970  149.8240 N.pl3  73  ARG73       0.1354
    114  N         39.7110   -9.3690  148.6300 N.am   74  SER74      -0.1952
    115  CA        40.0210   -8.2100  149.4500 C.3    74  SER74       0.1924
    116  C         39.3010   -6.9780  148.9360 C.2    74  SER74       0.2314
    117  O         38.8840   -6.9290  147.7670 O.2    74  SER74      -0.2863
    118  CB        41.5360   -7.9650  149.4580 C.3    74  SER74       0.2116
    119  OG        41.8870   -6.8740  150.2890 O.3    74  SER74      -0.2180
    120  N         39.4790   -6.7630  144.9660 N.3    83  GLY83      -0.1210
    121  CA        40.3100   -7.7830  144.3360 C.3    83  GLY83       0.1956
    122  C         39.6110   -9.1160  144.3230 C.2    83  GLY83       0.2612
    123  O         39.1610   -9.5770  145.3660 O.2    83  GLY83      -0.2717
    124  N         39.5050   -9.7460  143.1490 N.am   84  CYS84      -0.1956
    125  CA        38.6600  -10.9360  143.0030 C.3    84  CYS84       0.1843
    126  C         39.4170  -12.0700  142.3470 C.2    84  CYS84       0.2625
    127  O         40.3000  -11.8240  141.5280 O.2    84  CYS84      -0.2714
    128  CB        37.5000  -10.6040  142.0470 C.3    84  CYS84       0.0997
    129  SG        36.4570   -9.2670  142.6400 S.3    84  CYS84      -0.0797
    130  N         39.0590  -13.3110  142.6850 N.am   85  GLU85      -0.1977
    131  CA        39.7460  -14.4810  142.1270 C.3    85  GLU85       0.1602
    132  C         38.7390  -15.3360  141.3590 C.2    85  GLU85       0.2287
    133  O         37.6940  -15.7000  141.8920 O.2    85  GLU85      -0.2864
    134  CB        40.3940  -15.3060  143.2620 C.3    85  GLU85       0.0415
    135  CG        41.1160  -16.5780  142.7520 C.3    85  GLU85       0.1163
    136  CD        42.0440  -17.1830  143.8040 C.2    85  GLU85       0.3649
    137  OE1       41.7370  -17.0700  145.0050 O.co2  85  GLU85      -0.2457
    138  OE2       43.0930  -17.7560  143.4460 O.co2  85  GLU85      -0.2457
@<TRIPOS>BOND
     1    72    70    1
     2    70    69    1
     3    70    71    1
     4    69    66    1
     5    68    67    2
     6    67    66    1
     7    67    73   am
     8    76    75    2
     9    66    65    1
    10    75    74    1
    11    48    49    2
    12    48    47    1
    13    74    73    1
    14    74    77    1
    15    65    59   am
    16    59    58    1
    17    59    60    2
    18    47    46    1
    19    47    50    1
    20    58    57    1
    21    58    61    1
    22    77    78    1
    23    41    43   ar
    24    41    40   ar
    25    79    80    1
    26    61    62    1
    27    43    45   ar
    28    86    85    2
    29    37    36    1
    30    37    38    2
    31    39    36    1
    32    39    40    1
    33    36    35    1
    34    91    92    1
    35    91    88    1
    36    50    51    1
    37    40    42   ar
    38    29    28    2
    39    92    93   ar
    40    92    94   ar
    41    93    95   ar
    42    80    81    1
    43    45    44   ar
    44    83    81   am
    45    83    84    1
    46    85    84    1
    47    85    87   am
    48    62    63   ar
    49    62    64   ar
    50    88    87    1
    51    88    89    1
    52    51    52    1
    53    94    96   ar
    54    95    97   ar
    55   101   100    2
    56    81    82    2
    57    35    28   am
    58    42    44   ar
    59    28    27    1
    60    96    97   ar
    61    98    89   am
    62    98    99    1
    63    89    90    2
    64   100    99    1
    65    52    53    1
    66    24    23    1
    67    27    30    1
    68    27    26    1
    69    99   102    1
    70    21    20    1
    71    21    22    1
    72    30    31    1
    73    53    54    2
    74    20    19    1
    75    18    17    2
    76    26    17   am
    77    23    22    2
    78    23    25    1
    79    33    32    2
    80   132   133    2
    81   132   131    1
    82    17    16    1
    83   127   126    2
    84    31    32    1
    85    32    34   am
    86    54    55    1
    87    54    56    1
    88    19    16    1
    89   128   129    1
    90   128   125    1
    91   131   130    1
    92   131   134    1
    93   126   130   am
    94   126   125    1
    95    16    15    1
    96   135   134    1
    97   135   136    1
    98   125   124    1
    99   124   122   am
   100   138   136   ar
   101    15     8   am
   102   136   137   ar
   103     9     8    2
   104   122   121    1
   105   122   123    2
   106   121   120    1
   107     8     7    1
   108    10     7    1
   109    10    11    1
   110    13    12    2
   111     7     6    1
   112    11    12    1
   113    12    14   am
   114   108   109    1
   115   108   107    1
   116     6     3   am
   117   109   110    1
   118   103   104    1
   119   107   104    1
   120   117   116    2
   121     3     4    2
   122     3     2    1
   123   110   111    2
   124   104   105    1
   125   114   105   am
   126   114   115    1
   127   116   115    1
   128   111   112    1
   129   111   113    1
   130     2     5    1
   131     2     1    1
   132   105   106    2
   133   115   118    1
   134   118   119    1
