@<TRIPOS>MOLECULE
tmp/4rt2A00.pdb
 153 145 0 0 0
SMALL
GASTEIGER

@<TRIPOS>ATOM
      1  N         18.5460   -1.6380    9.0910 N.3    31  ARG31      -0.1245
      2  CA        17.0830   -1.8130    9.1790 C.3    31  ARG31       0.1563
      3  C         16.4660   -2.2260    7.8330 C.2    31  ARG31       0.2260
      4  O         15.5220   -3.0150    7.7890 O.2    31  ARG31      -0.2867
      5  CB        16.4050   -0.5370    9.6770 C.3    31  ARG31       0.0307
      6  CG        16.5100   -0.3410   11.1920 C.3    31  ARG31       0.0489
      7  CD        15.3520    0.4990   11.6800 C.3    31  ARG31       0.2205
      8  NE        15.3320    1.7770   10.9770 N.pl3  31  ARG31      -0.0865
      9  CZ        14.2600    2.5570   10.8810 C.cat  31  ARG31       0.5346
     10  NH1       13.1170    2.1770   11.4420 N.pl3  31  ARG31       0.1354
     11  NH2       14.3330    3.7110   10.2200 N.pl3  31  ARG31       0.1354
     12  N          3.5400   -3.6010   25.0070 N.3   140  ARG140     -0.1245
     13  CA         2.7010   -3.5830   23.8060 C.3   140  ARG140      0.1563
     14  C          1.2500   -3.2280   24.1200 C.2   140  ARG140      0.2260
     15  O          0.7900   -3.4520   25.2350 O.2   140  ARG140     -0.2867
     16  CB         2.7330   -4.9460   23.1290 C.3   140  ARG140      0.0307
     17  CG         4.1240   -5.4900   22.8960 C.3   140  ARG140      0.0489
     18  CD         4.7540   -4.8320   21.7060 C.3   140  ARG140      0.2205
     19  NE         3.8830   -4.8880   20.5330 N.pl3 140  ARG140     -0.0865
     20  CZ         4.1340   -4.2440   19.4040 C.cat 140  ARG140      0.5346
     21  NH1        5.2330   -3.5090   19.3000 N.pl3 140  ARG140      0.1354
     22  NH2        3.3000   -4.3430   18.3850 N.pl3 140  ARG140      0.1354
     23  N         -0.9160    4.5360   11.8520 N.3   170  GLY170     -0.1210
     24  CA         0.1360    3.6700   12.3630 C.3   170  GLY170      0.1956
     25  C         -0.1170    2.1870   12.1550 C.2   170  GLY170      0.2612
     26  O         -0.8550    1.7820   11.2480 O.2   170  GLY170     -0.2717
     27  N          0.4950    1.3680   13.0070 N.am  171  SER171     -0.1952
     28  CA         0.3470   -0.0820   12.9070 C.3   171  SER171      0.1924
     29  C         -1.1040   -0.5180   13.0670 C.2   171  SER171      0.2314
     30  O         -1.4970   -1.5330   12.5180 O.2   171  SER171     -0.2863
     31  CB         1.2140   -0.7900   13.9510 C.3   171  SER171      0.2116
     32  OG         0.8420   -0.4020   15.2620 O.3   171  SER171     -0.2180
     33  N         -2.7450   -0.6140    9.7990 N.3   174  ARG174     -0.1245
     34  CA        -2.2060   -1.7390    9.0270 C.3   174  ARG174      0.1563
     35  C         -2.6860   -3.0940    9.5390 C.2   174  ARG174      0.2260
     36  O         -2.2030   -4.1380    9.0930 O.2   174  ARG174     -0.2867
     37  CB        -0.6760   -1.7150    9.0160 C.3   174  ARG174      0.0307
     38  CG        -0.0950   -0.3840    8.5400 C.3   174  ARG174      0.0489
     39  CD         1.3820   -0.5020    8.1280 C.3   174  ARG174      0.2205
     40  NE         2.2020   -1.0880    9.1840 N.pl3 174  ARG174     -0.0865
     41  CZ         2.7600   -0.4020   10.1760 C.cat 174  ARG174      0.5346
     42  NH1        2.6130    0.9160   10.2600 N.pl3 174  ARG174      0.1354
     43  NH2        3.4880   -1.0410   11.0730 N.pl3 174  ARG174      0.1354
     44  N         -0.0620   -2.8610   19.0090 N.3   179  SER179     -0.1202
     45  CA         0.6560   -1.6630   18.5740 C.3   179  SER179      0.2020
     46  C          1.5850   -1.1640   19.6790 C.2   179  SER179      0.2619
     47  O          1.3880   -1.4750   20.8440 O.2   179  SER179     -0.2717
     48  CB        -0.3230   -0.5610   18.1740 C.3   179  SER179      0.2103
     49  OG        -1.0990   -0.9400   17.0500 O.3   179  SER179     -0.2182
     50  N          2.5970   -0.3860   19.3140 N.am  180  GLY180     -0.1942
     51  CA         3.4680    0.2010   20.3120 C.3   180  GLY180      0.2014
     52  C          2.9090    1.4890   20.8840 C.2   180  GLY180      0.2638
     53  O          3.3060    1.8960   21.9780 O.2   180  GLY180     -0.2714
     54  N          2.0010    2.1340   20.1420 N.am  181  ASP181     -0.1971
     55  CA         1.3910    3.3980   20.5490 C.3   181  ASP181      0.1709
     56  C          0.1450    3.6800   19.7080 C.2   181  ASP181      0.2293
     57  O         -0.2450    2.8580   18.8820 O.2   181  ASP181     -0.2864
     58  CB         2.3990    4.5550   20.4350 C.3   181  ASP181      0.1436
     59  CG         2.6640    4.9970   18.9900 C.2   181  ASP181      0.3671
     60  OD1        2.2430    4.3350   18.0250 O.co2 181  ASP181     -0.2456
     61  OD2        3.3410    6.0280   18.8130 O.co2 181  ASP181     -0.2456
     62  N         -1.4970    6.3950   16.9810 N.3   183  ASP183     -0.1239
     63  CA        -1.2560    7.5170   16.0740 C.3   183  ASP183      0.1674
     64  C         -2.5700    7.9720   15.4730 C.2   183  ASP183      0.2266
     65  O         -3.2750    7.1760   14.8490 O.2   183  ASP183     -0.2867
     66  CB        -0.2840    7.1160   14.9700 C.3   183  ASP183      0.1410
     67  CG         1.0060    6.5660   15.5310 C.2   183  ASP183      0.3668
     68  OD1        1.7440    7.3570   16.1330 O.co2 183  ASP183     -0.2456
     69  OD2        1.2720    5.3610   15.4010 O.co2 183  ASP183     -0.2456
     70  N          0.3230   10.0750   19.6040 N.3   247  ASP247     -0.1239
     71  CA         0.7030   11.1200   18.6670 C.3   247  ASP247      0.1674
     72  C         -0.5440   11.5750   17.9440 C.2   247  ASP247      0.2266
     73  O         -1.3200   10.7460   17.4780 O.2   247  ASP247     -0.2867
     74  CB         1.7130   10.6110   17.6370 C.3   247  ASP247      0.1410
     75  CG         3.0390   10.2270   18.2490 C.2   247  ASP247      0.3668
     76  OD1        3.5000   10.9180   19.1790 O.co2 247  ASP247     -0.2456
     77  OD2        3.6160    9.2190   17.7950 O.co2 247  ASP247     -0.2456
     78  N          1.1730    8.8520    4.7000 N.3   262  TYR262     -0.1227
     79  CA         2.3180    9.0710    5.5920 C.3   262  TYR262      0.1736
     80  C          2.1280    8.4270    6.9750 C.2   262  TYR262      0.2595
     81  O          2.9970    7.6920    7.4440 O.2   262  TYR262     -0.2718
     82  CB         2.5910   10.5690    5.7590 C.3   262  TYR262      0.0548
     83  CG         3.2470   10.9200    7.0890 C.ar  262  TYR262     -0.0200
     84  CD1        4.5980   10.6700    7.3240 C.ar  262  TYR262     -0.0009
     85  CD2        2.5070   11.4880    8.1160 C.ar  262  TYR262     -0.0009
     86  CE1        5.1890   10.9920    8.5680 C.ar  262  TYR262      0.0417
     87  CE2        3.0780   11.8030    9.3360 C.ar  262  TYR262      0.0417
     88  CZ         4.4150   11.5610    9.5560 C.ar  262  TYR262      0.1957
     89  OH         4.9710   11.8760   10.7830 O.3   262  TYR262     -0.2866
     90  N          1.0060    8.7090    7.6380 N.am  263  PHE263     -0.1962
     91  CA         0.8450    8.3240    9.0460 C.3   263  PHE263      0.1771
     92  C          0.4820    6.8420    9.1870 C.2   263  PHE263      0.2620
     93  O          0.5600    6.2650   10.2790 O.2   263  PHE263     -0.2715
     94  CB        -0.2010    9.2280    9.7120 C.3   263  PHE263      0.0574
     95  CG         0.1460    9.6370   11.1150 C.ar  263  PHE263     -0.0200
     96  CD1        1.4620    9.6470   11.5410 C.ar  263  PHE263     -0.0042
     97  CD2       -0.8300   10.1590   11.9540 C.ar  263  PHE263     -0.0042
     98  CE1        1.7880   10.0410   12.8080 C.ar  263  PHE263     -0.0003
     99  CE2       -0.4960   10.6090   13.2280 C.ar  263  PHE263     -0.0003
    100  CZ         0.8350   10.5500   13.6500 C.ar  263  PHE263     -0.0000
    101  N          0.1370    6.2050    8.0750 N.am  264  THR264     -0.1937
    102  CA        -0.0860    4.7670    8.1060 C.3   264  THR264      0.2028
    103  C          1.2300    3.9820    8.0540 C.2   264  THR264      0.2643
    104  O          1.3330    2.9150    8.6500 O.2   264  THR264     -0.2714
    105  CB        -1.0200    4.3670    6.9640 C.3   264  THR264      0.1808
    106  OG1       -2.2910    4.9800    7.2120 O.3   264  THR264     -0.2208
    107  CG2       -1.2100    2.8720    6.8880 C.3   264  THR264      0.0379
    108  N          2.2430    4.5090    7.3580 N.am  265  GLY265     -0.1939
    109  CA         3.5430    3.8490    7.3240 C.3   265  GLY265      0.2014
    110  C          3.5330    2.4540    6.6990 C.2   265  GLY265      0.2640
    111  O          2.7060    2.1840    5.8320 O.2   265  GLY265     -0.2714
    112  N          4.4350    1.5530    7.1010 N.am  266  SER266     -0.1935
    113  CA         5.4630    1.7690    8.1230 C.3   266  SER266      0.2055
    114  C          6.5050    2.8210    7.7490 C.2   266  SER266      0.2643
    115  O          6.4870    3.3600    6.6520 O.2   266  SER266     -0.2714
    116  CB         6.1900    0.4520    8.4080 C.3   266  SER266      0.2130
    117  OG         6.9520    0.0520    7.2700 O.3   266  SER266     -0.2179
    118  N          7.4240    3.0880    8.6710 N.am  267  ASP267     -0.1971
    119  CA         8.4580    4.0760    8.4180 C.3   267  ASP267      0.1709
    120  C          9.3630    3.5880    7.3030 C.2   267  ASP267      0.2293
    121  O          9.7490    4.3520    6.4360 O.2   267  ASP267     -0.2864
    122  CB         9.2570    4.3780    9.6940 C.3   267  ASP267      0.1436
    123  CG         9.8960    3.1360   10.3190 C.2   267  ASP267      0.3671
    124  OD1        9.5130    1.9850    9.9880 O.co2 267  ASP267     -0.2456
    125  OD2       10.7960    3.3290   11.1660 O.co2 267  ASP267     -0.2456
    126  N          7.4330    3.8630    4.0010 N.3   270  ASN270     -0.1225
    127  CA         7.5000    5.2470    3.5240 C.3   270  ASN270      0.1785
    128  C          8.8460    5.6010    2.8880 C.2   270  ASN270      0.2597
    129  O          8.8990    6.2990    1.8850 O.2   270  ASN270     -0.2718
    130  CB         7.2400    6.2330    4.6650 C.3   270  ASN270      0.1169
    131  CG         5.8000    6.2240    5.1320 C.2   270  ASN270      0.2627
    132  OD1        4.9230    5.6520    4.4770 O.2   270  ASN270     -0.2716
    133  ND2        5.5420    6.8860    6.2530 N.am  270  ASN270     -0.0877
    134  N          9.9320    5.1540    3.5090 N.am  271  LYS271     -0.1980
    135  CA        11.2650    5.4470    3.0120 C.3   271  LYS271      0.1596
    136  C         11.4400    4.7890    1.6500 C.2   271  LYS271      0.2287
    137  O         11.9370    5.4100    0.7080 O.2   271  LYS271     -0.2864
    138  CB        12.3300    4.9660    4.0040 C.3   271  LYS271      0.0298
    139  CG        12.5200    5.8690    5.2210 C.3   271  LYS271      0.0038
    140  CD        13.2190    5.1190    6.3560 C.3   271  LYS271      0.0206
    141  CE        14.5850    5.6970    6.6590 C.3   271  LYS271      0.1093
    142  NZ        15.4600    5.5390    5.4700 N.3   271  LYS271     -0.1314
    143  N          9.0090    6.6960   -0.8300 N.3   274  ARG274     -0.1245
    144  CA         9.5200    8.0180   -1.1510 C.3   274  ARG274      0.1563
    145  C         10.7960    7.9220   -1.9940 C.2   274  ARG274      0.2260
    146  O         10.9930    8.7040   -2.9210 O.2   274  ARG274     -0.2867
    147  CB         9.7510    8.8210    0.1260 C.3   274  ARG274      0.0307
    148  CG         8.4220    9.2470    0.7840 C.3   274  ARG274      0.0489
    149  CD         8.5670    9.7200    2.2320 C.3   274  ARG274      0.2205
    150  NE         7.2590   10.1240    2.7600 N.pl3 274  ARG274     -0.0865
    151  CZ         7.0740   11.0580    3.6900 C.cat 274  ARG274      0.5346
    152  NH1        8.1100   11.7040    4.2090 N.pl3 274  ARG274      0.1354
    153  NH2        5.8480   11.3600    4.0830 N.pl3 274  ARG274      0.1354
@<TRIPOS>BOND
     1   146   145    2
     2   145   144    1
     3   144   143    1
     4   144   147    1
     5   147   148    1
     6   137   136    2
     7   148   149    1
     8   136   135    1
     9   129   128    2
    10   149   150    1
    11   150   151    2
    12   128   134   am
    13   128   127    1
    14   135   134    1
    15   135   138    1
    16   127   126    1
    17   127   130    1
    18   151   153    1
    19   151   152    1
    20   138   139    1
    21   132   131    2
    22   130   131    1
    23    78    79    1
    24   131   133   am
    25   139   140    1
    26   142   141    1
    27    79    82    1
    28    79    80    1
    29    82    83    1
    30   111   110    2
    31   140   141    1
    32   121   120    2
    33   115   114    2
    34   110   112   am
    35   110   109    1
    36   107   105    1
    37   105   106    1
    38   105   102    1
    39    80    81    2
    40    80    90   am
    41    83    84   ar
    42    83    85   ar
    43   112   113    1
    44   117   116    1
    45   120   119    1
    46    84    86   ar
    47   109   108    1
    48   108   103   am
    49    90    91    1
    50   114   113    1
    51   114   118   am
    52     4     3    2
    53     3     2    1
    54   103   102    1
    55   103   104    2
    56   101   102    1
    57   101    92   am
    58    85    87   ar
    59   113   116    1
    60    39    38    1
    61    39    40    1
    62   119   118    1
    63   119   122    1
    64    38    37    1
    65    86    88   ar
    66    37    34    1
    67    34    35    1
    68    34    33    1
    69    91    92    1
    70    91    94    1
    71     1     2    1
    72    36    35    2
    73     2     5    1
    74    40    41    2
    75    92    93    2
    76    87    88   ar
    77    88    89    1
    78     5     6    1
    79   122   123    1
    80    94    95    1
    81   124   123   ar
    82    41    42    1
    83    41    43    1
    84    11     9    1
    85   123   125   ar
    86     9     8    2
    87     9    10    1
    88     8     7    1
    89    95    96   ar
    90    95    97   ar
    91     6     7    1
    92    26    25    2
    93    96    98   ar
    94    23    24    1
    95    97    99   ar
    96    25    24    1
    97    25    27   am
    98    30    29    2
    99    98   100   ar
   100    28    27    1
   101    28    29    1
   102    28    31    1
   103    99   100   ar
   104    31    32    1
   105    65    64    2
   106    66    67    1
   107    66    63    1
   108    69    67   ar
   109    64    63    1
   110    67    68   ar
   111    63    62    1
   112    49    48    1
   113    73    72    2
   114    74    75    1
   115    74    71    1
   116    77    75   ar
   117    72    71    1
   118    60    59   ar
   119    48    45    1
   120    75    76   ar
   121    22    20    1
   122    45    44    1
   123    45    46    1
   124    71    70    1
   125    61    59   ar
   126    57    56    2
   127    59    58    1
   128    21    20    1
   129    50    46   am
   130    50    51    1
   131    20    19    2
   132    46    47    2
   133    56    55    1
   134    54    55    1
   135    54    52   am
   136    51    52    1
   137    58    55    1
   138    19    18    1
   139    52    53    2
   140    18    17    1
   141    17    16    1
   142    16    13    1
   143    13    14    1
   144    13    12    1
   145    14    15    2
