@<TRIPOS>MOLECULE
tmp/4rt3A00.pdb
 153 145 0 0 0
SMALL
GASTEIGER

@<TRIPOS>ATOM
      1  N         18.5400   -1.7200    9.0010 N.3    31  ARG31      -0.1245
      2  CA        17.0870   -1.8770    9.1270 C.3    31  ARG31       0.1563
      3  C         16.4620   -2.2950    7.8010 C.2    31  ARG31       0.2260
      4  O         15.5330   -3.0920    7.7720 O.2    31  ARG31      -0.2867
      5  CB        16.4300   -0.5820    9.6120 C.3    31  ARG31       0.0307
      6  CG        16.4990   -0.4010   11.1200 C.3    31  ARG31       0.0489
      7  CD        15.3150    0.4320   11.5860 C.3    31  ARG31       0.2205
      8  NE        15.2520    1.7090   10.8800 N.pl3  31  ARG31      -0.0865
      9  CZ        14.1730    2.4870   10.8390 C.cat  31  ARG31       0.5346
     10  NH1       13.0550    2.1090   11.4530 N.pl3  31  ARG31       0.1354
     11  NH2       14.2110    3.6400   10.1790 N.pl3  31  ARG31       0.1354
     12  N          3.4310   -3.5170   24.9000 N.3   140  ARG140     -0.1245
     13  CA         2.6290   -3.4100   23.6760 C.3   140  ARG140      0.1563
     14  C          1.1620   -3.1360   24.0180 C.2   140  ARG140      0.2260
     15  O          0.7420   -3.3550   25.1490 O.2   140  ARG140     -0.2867
     16  CB         2.7230   -4.6850   22.8450 C.3   140  ARG140      0.0307
     17  CG         4.1360   -5.2110   22.6100 C.3   140  ARG140      0.0489
     18  CD         4.7490   -4.5410   21.4330 C.3   140  ARG140      0.2205
     19  NE         3.9070   -4.6870   20.2540 N.pl3 140  ARG140     -0.0865
     20  CZ         4.1240   -4.0360   19.1220 C.cat 140  ARG140      0.5346
     21  NH1        5.1550   -3.2110   19.0350 N.pl3 140  ARG140      0.1354
     22  NH2        3.3080   -4.2030   18.0920 N.pl3 140  ARG140      0.1354
     23  N         -0.9400    4.5660   11.8280 N.3   170  GLY170     -0.1210
     24  CA         0.1300    3.7010   12.3060 C.3   170  GLY170      0.1956
     25  C         -0.1460    2.2230   12.1420 C.2   170  GLY170      0.2612
     26  O         -0.8990    1.8290   11.2470 O.2   170  GLY170     -0.2717
     27  N          0.4580    1.3990   13.0060 N.am  171  SER171     -0.1952
     28  CA         0.2940   -0.0500   12.9300 C.3   171  SER171      0.1924
     29  C         -1.1700   -0.4720   13.0690 C.2   171  SER171      0.2314
     30  O         -1.5870   -1.4730   12.4830 O.2   171  SER171     -0.2863
     31  CB         1.1420   -0.7510   13.9990 C.3   171  SER171      0.2116
     32  OG         0.7860   -0.3000   15.2950 O.3   171  SER171     -0.2180
     33  N         -2.7390   -0.5280    9.7270 N.3   174  ARG174     -0.1245
     34  CA        -2.1890   -1.6670    8.9950 C.3   174  ARG174      0.1563
     35  C         -2.6880   -3.0250    9.5100 C.2   174  ARG174      0.2260
     36  O         -2.2200   -4.0790    9.0620 O.2   174  ARG174     -0.2867
     37  CB        -0.6550   -1.6290    9.0340 C.3   174  ARG174      0.0307
     38  CG        -0.0910   -0.3100    8.4570 C.3   174  ARG174      0.0489
     39  CD         1.3940   -0.4070    8.0880 C.3   174  ARG174      0.2205
     40  NE         2.1970   -0.9730    9.1720 N.pl3 174  ARG174     -0.0865
     41  CZ         2.7240   -0.2720   10.1710 C.cat 174  ARG174      0.5346
     42  NH1        2.5400    1.0430   10.2570 N.pl3 174  ARG174      0.1354
     43  NH2        3.4430   -0.8950   11.0930 N.pl3 174  ARG174      0.1354
     44  N         -0.0850   -2.8460   18.9490 N.3   179  SER179     -0.1202
     45  CA         0.5890   -1.6230   18.5050 C.3   179  SER179      0.2020
     46  C          1.5310   -1.1310   19.5800 C.2   179  SER179      0.2619
     47  O          1.3390   -1.4360   20.7530 O.2   179  SER179     -0.2717
     48  CB        -0.4330   -0.5410   18.1650 C.3   179  SER179      0.2103
     49  OG        -1.1660   -0.9200   17.0070 O.3   179  SER179     -0.2182
     50  N          2.5510   -0.3770   19.1890 N.am  180  GLY180     -0.1942
     51  CA         3.4470    0.1860   20.1770 C.3   180  GLY180      0.2014
     52  C          2.8930    1.4650   20.7720 C.2   180  GLY180      0.2638
     53  O          3.2600    1.8200   21.8790 O.2   180  GLY180     -0.2714
     54  N          2.0180    2.1620   20.0360 N.am  181  ASP181     -0.1971
     55  CA         1.3740    3.3660   20.5460 C.3   181  ASP181      0.1709
     56  C          0.0950    3.6630   19.7710 C.2   181  ASP181      0.2293
     57  O         -0.3340    2.8480   18.9530 O.2   181  ASP181     -0.2864
     58  CB         2.3420    4.5610   20.4920 C.3   181  ASP181      0.1436
     59  CG         2.5550    5.1110   19.0900 C.2   181  ASP181      0.3671
     60  OD1        2.1490    4.4790   18.0850 O.co2 181  ASP181     -0.2456
     61  OD2        3.1900    6.1900   18.9880 O.co2 181  ASP181     -0.2456
     62  N         -1.5650    6.4050   17.0260 N.3   183  ASP183     -0.1239
     63  CA        -1.3280    7.5130   16.1130 C.3   183  ASP183      0.1674
     64  C         -2.6490    7.9800   15.5220 C.2   183  ASP183      0.2266
     65  O         -3.4200    7.1710   14.9790 O.2   183  ASP183     -0.2867
     66  CB        -0.3600    7.0770   15.0210 C.3   183  ASP183      0.1410
     67  CG         0.9220    6.5170   15.6020 C.2   183  ASP183      0.3668
     68  OD1        1.6500    7.2960   16.2540 O.co2 183  ASP183     -0.2456
     69  OD2        1.1760    5.3090   15.4350 O.co2 183  ASP183     -0.2456
     70  N          0.4000   10.0190   19.5500 N.3   247  ASP247     -0.1239
     71  CA         0.7980   11.0430   18.5980 C.3   247  ASP247      0.1674
     72  C         -0.4580   11.5140   17.8910 C.2   247  ASP247      0.2266
     73  O         -1.2380   10.6890   17.4300 O.2   247  ASP247     -0.2867
     74  CB         1.7850   10.4910   17.5630 C.3   247  ASP247      0.1410
     75  CG         3.1200   10.0920   18.1660 C.2   247  ASP247      0.3668
     76  OD1        3.6240   10.8180   19.0540 O.co2 247  ASP247     -0.2456
     77  OD2        3.6540    9.0380   17.7500 O.co2 247  ASP247     -0.2456
     78  N          1.1630    8.9530    4.7770 N.3   262  TYR262     -0.1227
     79  CA         2.3240    9.1830    5.6450 C.3   262  TYR262      0.1736
     80  C          2.1570    8.5140    7.0210 C.2   262  TYR262      0.2595
     81  O          3.0330    7.7800    7.4810 O.2   262  TYR262     -0.2718
     82  CB         2.5510   10.6950    5.8410 C.3   262  TYR262      0.0548
     83  CG         3.2000   11.0420    7.1670 C.ar  262  TYR262     -0.0200
     84  CD1        4.5500   10.7870    7.3780 C.ar  262  TYR262     -0.0009
     85  CD2        2.4610   11.5960    8.2230 C.ar  262  TYR262     -0.0009
     86  CE1        5.1570   11.0800    8.5800 C.ar  262  TYR262      0.0417
     87  CE2        3.0690   11.9070    9.4360 C.ar  262  TYR262      0.0417
     88  CZ         4.4280   11.6420    9.6020 C.ar  262  TYR262      0.1957
     89  OH         5.0790   11.9170   10.7830 O.3   262  TYR262     -0.2866
     90  N          1.0360    8.7900    7.6810 N.am  263  PHE263     -0.1962
     91  CA         0.8570    8.4140    9.0880 C.3   263  PHE263      0.1771
     92  C          0.4720    6.9530    9.2170 C.2   263  PHE263      0.2620
     93  O          0.4580    6.4130   10.3110 O.2   263  PHE263     -0.2715
     94  CB        -0.1950    9.3220    9.7420 C.3   263  PHE263      0.0574
     95  CG         0.1040    9.6900   11.1740 C.ar  263  PHE263     -0.0200
     96  CD1        1.4180    9.7790   11.6380 C.ar  263  PHE263     -0.0042
     97  CD2       -0.9280   10.0920   12.0140 C.ar  263  PHE263     -0.0042
     98  CE1        1.6820   10.1940   12.9330 C.ar  263  PHE263     -0.0003
     99  CE2       -0.6700   10.5050   13.3070 C.ar  263  PHE263     -0.0003
    100  CZ         0.6420   10.5520   13.7580 C.ar  263  PHE263     -0.0000
    101  N          0.1870    6.2860    8.1020 N.am  264  THR264     -0.1937
    102  CA        -0.0890    4.8510    8.1680 C.3   264  THR264      0.2028
    103  C          1.2080    4.0360    8.1230 C.2   264  THR264      0.2643
    104  O          1.3080    2.9490    8.7160 O.2   264  THR264     -0.2714
    105  CB        -1.0410    4.4340    7.0370 C.3   264  THR264      0.1808
    106  OG1       -2.3240    5.0110    7.2950 O.3   264  THR264     -0.2208
    107  CG2       -1.1970    2.9250    6.9550 C.3   264  THR264      0.0379
    108  N          2.2210    4.5750    7.4490 N.am  265  GLY265     -0.1939
    109  CA         3.5030    3.9010    7.3830 C.3   265  GLY265      0.2014
    110  C          3.4640    2.5410    6.6960 C.2   265  GLY265      0.2640
    111  O          2.5720    2.2900    5.8810 O.2   265  GLY265     -0.2714
    112  N          4.3930    1.6400    7.0280 N.am  266  SER266     -0.1935
    113  CA         5.3970    1.8220    8.0940 C.3   266  SER266      0.2055
    114  C          6.4320    2.9200    7.8070 C.2   266  SER266      0.2643
    115  O          6.4390    3.5070    6.7380 O.2   266  SER266     -0.2714
    116  CB         6.1270    0.4930    8.3420 C.3   266  SER266      0.2130
    117  OG         6.9930    0.1700    7.2510 O.3   266  SER266     -0.2179
    118  N          7.3030    3.2060    8.7660 N.am  267  ASP267     -0.1971
    119  CA         8.3630    4.1740    8.4950 C.3   267  ASP267      0.1709
    120  C          9.2630    3.6750    7.3700 C.2   267  ASP267      0.2293
    121  O          9.6330    4.4370    6.4700 O.2   267  ASP267     -0.2864
    122  CB         9.1820    4.4660    9.7620 C.3   267  ASP267      0.1436
    123  CG         9.8060    3.2140   10.3800 C.2   267  ASP267      0.3671
    124  OD1        9.3970    2.0710   10.0600 O.co2 267  ASP267     -0.2456
    125  OD2       10.7260    3.3850   11.1970 O.co2 267  ASP267     -0.2456
    126  N          7.4860    4.0210    4.1170 N.3   270  ASN270     -0.1225
    127  CA         7.5360    5.4100    3.6790 C.3   270  ASN270      0.1785
    128  C          8.9060    5.7470    3.0720 C.2   270  ASN270      0.2597
    129  O          8.9960    6.4150    2.0510 O.2   270  ASN270     -0.2718
    130  CB         7.2180    6.3690    4.8440 C.3   270  ASN270      0.1169
    131  CG         5.7360    6.3520    5.2390 C.2   270  ASN270      0.2627
    132  OD1        4.8990    5.7460    4.5590 O.2   270  ASN270     -0.2716
    133  ND2        5.4100    7.0240    6.3370 N.am  270  ASN270     -0.0877
    134  N          9.9780    5.2840    3.7000 N.am  271  LYS271     -0.1980
    135  CA        11.3030    5.5660    3.1590 C.3   271  LYS271      0.1596
    136  C         11.4480    4.8940    1.7970 C.2   271  LYS271      0.2287
    137  O         11.9230    5.5090    0.8390 O.2   271  LYS271     -0.2864
    138  CB        12.3910    5.1020    4.1320 C.3   271  LYS271      0.0298
    139  CG        12.5830    6.0440    5.3170 C.3   271  LYS271      0.0038
    140  CD        13.2010    5.3040    6.5000 C.3   271  LYS271      0.0206
    141  CE        14.4370    6.0070    7.0320 C.3   271  LYS271      0.1093
    142  NZ        15.5370    5.9230    6.0210 N.3   271  LYS271     -0.1314
    143  N          9.0790    6.7960   -0.7690 N.3   274  ARG274     -0.1245
    144  CA         9.5490    8.1230   -1.1090 C.3   274  ARG274      0.1563
    145  C         10.8400    8.0440   -1.9150 C.2   274  ARG274      0.2260
    146  O         11.0450    8.8450   -2.8270 O.2   274  ARG274     -0.2867
    147  CB         9.7410    8.9670    0.1510 C.3   274  ARG274      0.0307
    148  CG         8.4090    9.3640    0.8090 C.3   274  ARG274      0.0489
    149  CD         8.6070    9.8940    2.2340 C.3   274  ARG274      0.2205
    150  NE         7.3200   10.2710    2.8180 N.pl3 274  ARG274     -0.0865
    151  CZ         7.1540   11.1520    3.8010 C.cat 274  ARG274      0.5346
    152  NH1        8.1930   11.7780    4.3490 N.pl3 274  ARG274      0.1354
    153  NH2        5.9290   11.4190    4.2270 N.pl3 274  ARG274      0.1354
@<TRIPOS>BOND
     1   146   145    2
     2   145   144    1
     3   144   143    1
     4   144   147    1
     5   147   148    1
     6   148   149    1
     7   137   136    2
     8   136   135    1
     9   129   128    2
    10   149   150    1
    11   150   151    2
    12   128   127    1
    13   128   134   am
    14   135   134    1
    15   135   138    1
    16   127   126    1
    17   127   130    1
    18   151   153    1
    19   151   152    1
    20   138   139    1
    21   132   131    2
    22    78    79    1
    23   130   131    1
    24   131   133   am
    25   139   140    1
    26    79    82    1
    27    79    80    1
    28    82    83    1
    29   111   110    2
    30   142   141    1
    31   121   120    2
    32   140   141    1
    33   110   112   am
    34   110   109    1
    35   115   114    2
    36   107   105    1
    37    80    81    2
    38    80    90   am
    39   112   113    1
    40   105   106    1
    41   105   102    1
    42    83    84   ar
    43    83    85   ar
    44   117   116    1
    45   120   119    1
    46    84    86   ar
    47   109   108    1
    48   108   103   am
    49    90    91    1
    50     4     3    2
    51     3     2    1
    52   114   113    1
    53   114   118   am
    54    39    38    1
    55    39    40    1
    56   113   116    1
    57   101   102    1
    58   101    92   am
    59   103   102    1
    60   103   104    2
    61    85    87   ar
    62    38    37    1
    63   119   118    1
    64   119   122    1
    65    86    88   ar
    66    34    37    1
    67    34    35    1
    68    34    33    1
    69     1     2    1
    70    36    35    2
    71    91    92    1
    72    91    94    1
    73     2     5    1
    74    40    41    2
    75    92    93    2
    76    87    88   ar
    77    88    89    1
    78     5     6    1
    79    94    95    1
    80   122   123    1
    81   124   123   ar
    82    41    42    1
    83    41    43    1
    84    11     9    1
    85   123   125   ar
    86     9     8    2
    87     9    10    1
    88     8     7    1
    89     6     7    1
    90    95    96   ar
    91    95    97   ar
    92    26    25    2
    93    96    98   ar
    94    23    24    1
    95    97    99   ar
    96    25    24    1
    97    25    27   am
    98    30    29    2
    99    28    27    1
   100    28    29    1
   101    28    31    1
   102    98   100   ar
   103    99   100   ar
   104    31    32    1
   105    65    64    2
   106    66    67    1
   107    66    63    1
   108    69    67   ar
   109    64    63    1
   110    67    68   ar
   111    63    62    1
   112    49    48    1
   113    73    72    2
   114    74    75    1
   115    74    71    1
   116    77    75   ar
   117    72    71    1
   118    60    59   ar
   119    22    20    1
   120    48    45    1
   121    75    76   ar
   122    45    44    1
   123    45    46    1
   124    71    70    1
   125    57    56    2
   126    61    59   ar
   127    21    20    1
   128    59    58    1
   129    20    19    2
   130    50    46   am
   131    50    51    1
   132    46    47    2
   133    56    55    1
   134    54    55    1
   135    54    52   am
   136    51    52    1
   137    19    18    1
   138    58    55    1
   139    52    53    2
   140    18    17    1
   141    17    16    1
   142    16    13    1
   143    13    14    1
   144    13    12    1
   145    14    15    2
