@<TRIPOS>MOLECULE
tmp/4rt5A00.pdb
 97 96 0 0 0
SMALL
GASTEIGER

@<TRIPOS>ATOM
      1  N         15.0880   57.8130   38.2150 N.3     8  HIS8       -0.1241
      2  CA        14.2590   58.5750   39.1340 C.3     8  HIS8        0.1621
      3  C         12.9060   57.9140   39.3110 C.2     8  HIS8        0.2264
      4  O         12.5130   57.0440   38.5410 O.2     8  HIS8       -0.2867
      5  CB        14.0990   60.0400   38.6850 C.3     8  HIS8        0.0745
      6  CG        13.3960   60.2290   37.3740 C.ar    8  HIS8        0.0817
      7  ND1       14.0680   60.2930   36.1700 N.ar    8  HIS8       -0.2268
      8  CD2       12.0910   60.4410   37.0850 C.ar    8  HIS8        0.1154
      9  CE1       13.2040   60.5160   35.1940 C.ar    8  HIS8        0.1986
     10  NE2       11.9940   60.5990   35.7220 N.ar    8  HIS8       -0.2212
     11  N          5.1310   70.3390   41.0980 N.3    38  TRP38      -0.1241
     12  CA         6.0330   69.2320   41.4310 C.3    38  TRP38       0.1605
     13  C          7.3340   69.7320   42.0400 C.2    38  TRP38       0.2264
     14  O          7.5940   70.9310   42.0670 O.2    38  TRP38      -0.2867
     15  CB         6.3160   68.3760   40.1890 C.3    38  TRP38       0.0550
     16  CG         7.3340   68.9510   39.2820 C.ar   38  TRP38       0.0003
     17  CD1        7.2560   70.1370   38.6190 C.ar   38  TRP38       0.0946
     18  CD2        8.5870   68.3650   38.9140 C.ar   38  TRP38       0.0152
     19  NE1        8.3860   70.3330   37.8650 N.ar   38  TRP38      -0.2442
     20  CE2        9.2230   69.2610   38.0320 C.ar   38  TRP38       0.0810
     21  CE3        9.2380   67.1710   39.2480 C.ar   38  TRP38       0.0012
     22  CZ2       10.4790   69.0070   37.4810 C.ar   38  TRP38       0.0191
     23  CZ3       10.4880   66.9150   38.6920 C.ar   38  TRP38       0.0001
     24  CH2       11.0950   67.8310   37.8220 C.ar   38  TRP38       0.0015
     25  N          1.6640   66.2460   36.3900 N.3    56  HIS56      -0.1227
     26  CA         2.8690   65.4750   36.0660 C.3    56  HIS56       0.1737
     27  C          2.6230   64.0350   36.5260 C.2    56  HIS56       0.2438
     28  O          2.5590   63.7750   37.7230 O.2    56  HIS56      -0.2733
     29  CB         4.0990   66.1100   36.7570 C.3    56  HIS56       0.0758
     30  CG         5.4180   65.4390   36.4710 C.ar   56  HIS56       0.0818
     31  ND1        6.6250   66.0260   36.7930 N.ar   56  HIS56      -0.2268
     32  CD2        5.7240   64.2380   35.9240 C.ar   56  HIS56       0.1154
     33  CE1        7.6140   65.2200   36.4500 C.ar   56  HIS56       0.1986
     34  NE2        7.0950   64.1290   35.9190 N.ar   56  HIS56      -0.2212
     35  N          2.4530   63.0990   35.5770 N.am   57  PRO57      -0.2729
     36  CA         2.1210   61.7040   35.9250 C.3    57  PRO57       0.1401
     37  C          3.2070   60.9280   36.6850 C.2    57  PRO57       0.2269
     38  O          4.3850   61.0010   36.3320 O.2    57  PRO57      -0.2865
     39  CB         1.8760   61.0540   34.5670 C.3    57  PRO57       0.0296
     40  CG         2.5620   61.9340   33.5870 C.3    57  PRO57       0.0237
     41  CD         2.5260   63.3180   34.1240 C.3    57  PRO57       0.0939
     42  N          5.6050   57.9210   37.7880 N.3    59  HIS59      -0.1241
     43  CA         6.2740   56.9440   36.9460 C.3    59  HIS59       0.1621
     44  C          7.6020   56.5240   37.5460 C.2    59  HIS59       0.2264
     45  O          8.0750   57.1220   38.4930 O.2    59  HIS59      -0.2867
     46  CB         6.4950   57.5140   35.5320 C.3    59  HIS59       0.0745
     47  CG         7.3470   58.7490   35.4960 C.ar   59  HIS59       0.0817
     48  ND1        6.9120   59.9690   35.9630 N.ar   59  HIS59      -0.2268
     49  CD2        8.5960   58.9540   35.0140 C.ar   59  HIS59       0.1154
     50  CE1        7.8650   60.8690   35.7900 C.ar   59  HIS59       0.1986
     51  NE2        8.8970   60.2790   35.2130 N.ar   59  HIS59      -0.2212
     52  N         13.9920   66.2520   25.7170 N.3    76  HIS76      -0.1241
     53  CA        13.3480   67.1540   26.6570 C.3    76  HIS76       0.1621
     54  C         14.1300   68.4540   26.6760 C.2    76  HIS76       0.2264
     55  O         15.2420   68.5110   26.1470 O.2    76  HIS76      -0.2867
     56  CB        13.2810   66.5250   28.0490 C.3    76  HIS76       0.0745
     57  CG        12.7710   65.1150   28.0470 C.ar   76  HIS76       0.0817
     58  ND1       11.4620   64.7940   27.7620 N.ar   76  HIS76      -0.2268
     59  CD2       13.4030   63.9390   28.2720 C.ar   76  HIS76       0.1154
     60  CE1       11.3070   63.4830   27.8220 C.ar   76  HIS76       0.1986
     61  NE2       12.4680   62.9410   28.1340 N.ar   76  HIS76      -0.2212
     62  N         15.8080   69.8980   28.8080 N.3    78  ASP78      -0.1239
     63  CA        17.0900   69.8010   29.5040 C.3    78  ASP78       0.1674
     64  C         18.1450   69.0060   28.7330 C.2    78  ASP78       0.2266
     65  O         19.2150   68.6990   29.2640 O.2    78  ASP78      -0.2867
     66  CB        16.8850   69.1730   30.8820 C.3    78  ASP78       0.1410
     67  CG        16.3300   67.7590   30.8070 C.2    78  ASP78       0.3668
     68  OD1       15.8340   67.3680   29.7280 O.co2  78  ASP78      -0.2456
     69  OD2       16.3800   67.0400   31.8320 O.co2  78  ASP78      -0.2456
     70  N         18.1920   65.9000   27.8010 N.3    80  THR80      -0.1218
     71  CA        18.0570   64.4510   27.9390 C.3    80  THR80       0.1862
     72  C         16.9300   63.9230   27.0450 C.2    80  THR80       0.2287
     73  O         16.1100   64.6830   26.5330 O.2    80  THR80      -0.2866
     74  CB        17.8090   64.0250   29.4130 C.3    80  THR80       0.1770
     75  OG1       16.5430   64.5150   29.8660 O.3    80  THR80      -0.2211
     76  CG2       18.9050   64.5650   30.3180 C.3    80  THR80       0.0375
     77  N          8.2740   56.6360   26.8920 N.3    84  TYR84      -0.1241
     78  CA         7.4350   56.1640   27.9780 C.3    84  TYR84       0.1605
     79  C          6.6190   54.9950   27.4820 C.2    84  TYR84       0.2264
     80  O          5.8990   55.1190   26.4960 O.2    84  TYR84      -0.2867
     81  CB         6.5190   57.2700   28.4860 C.3    84  TYR84       0.0534
     82  CG         7.2690   58.5090   28.8960 C.ar   84  TYR84      -0.0201
     83  CD1        7.7790   59.3810   27.9340 C.ar   84  TYR84      -0.0009
     84  CD2        7.4730   58.8120   30.2330 C.ar   84  TYR84      -0.0009
     85  CE1        8.4770   60.5020   28.2840 C.ar   84  TYR84       0.0417
     86  CE2        8.1650   59.9520   30.5990 C.ar   84  TYR84       0.0417
     87  CZ         8.6630   60.7870   29.6120 C.ar   84  TYR84       0.1957
     88  OH         9.3560   61.9210   29.9340 O.3    84  TYR84      -0.2866
     89  N          9.3810   55.0010   32.2070 N.3    94  GLU94      -0.1245
     90  CA        10.1730   55.8610   31.3460 C.3    94  GLU94       0.1567
     91  C         11.5550   55.2570   31.1500 C.2    94  GLU94       0.2260
     92  O         12.1970   54.8470   32.1070 O.2    94  GLU94      -0.2867
     93  CB        10.2890   57.2600   31.9450 C.3    94  GLU94       0.0388
     94  CG        11.1640   58.2000   31.1540 C.3    94  GLU94       0.1160
     95  CD        11.2610   59.5580   31.8000 C.2    94  GLU94       0.3649
     96  OE1       11.8950   60.4510   31.1960 O.co2  94  GLU94      -0.2457
     97  OE2       10.7130   59.7320   32.9180 O.co2  94  GLU94      -0.2457
@<TRIPOS>BOND
     1    52    53    1
     2    55    54    2
     3    80    79    2
     4    73    72    2
     5    53    54    1
     6    53    56    1
     7    77    78    1
     8    72    71    1
     9    79    78    1
    10    58    60   ar
    11    58    57   ar
    12    70    71    1
    13    60    61   ar
    14    83    85   ar
    15    83    82   ar
    16    71    74    1
    17    78    81    1
    18    57    56    1
    19    57    59   ar
    20    61    59   ar
    21    85    87   ar
    22    81    82    1
    23    64    65    2
    24    64    63    1
    25    62    63    1
    26    82    84   ar
    27    74    75    1
    28    74    76    1
    29    63    66    1
    30    87    88    1
    31    87    86   ar
    32    68    67   ar
    33    84    86   ar
    34    67    66    1
    35    67    69   ar
    36    91    90    1
    37    91    92    2
    38    94    95    1
    39    94    93    1
    40    96    95   ar
    41    90    93    1
    42    90    89    1
    43    95    97   ar
    44    40    41    1
    45    40    39    1
    46    41    35    1
    47    39    36    1
    48    49    51   ar
    49    49    47   ar
    50     9    10   ar
    51     9     7   ar
    52    51    50   ar
    53    47    46    1
    54    47    48   ar
    55    46    43    1
    56    35    36    1
    57    35    27   am
    58    10     8   ar
    59    50    48   ar
    60    34    32   ar
    61    34    33   ar
    62    32    30   ar
    63    36    37    1
    64    26    25    1
    65    26    27    1
    66    26    29    1
    67     7     6   ar
    68    38    37    2
    69    33    31   ar
    70    30    29    1
    71    30    31   ar
    72    27    28    2
    73    43    44    1
    74    43    42    1
    75     8     6   ar
    76     6     5    1
    77    22    24   ar
    78    22    20   ar
    79    44    45    2
    80    24    23   ar
    81    19    20   ar
    82    19    17   ar
    83    20    18   ar
    84     1     2    1
    85     4     3    2
    86    17    16   ar
    87     5     2    1
    88    23    21   ar
    89    18    21   ar
    90    18    16   ar
    91     2     3    1
    92    16    15    1
    93    15    12    1
    94    11    12    1
    95    12    13    1
    96    13    14    2
