@<TRIPOS>MOLECULE
tmp/4rtbA00.pdb
 225 215 0 0 0
SMALL
GASTEIGER

@<TRIPOS>ATOM
      1  N         50.7600   14.6980   19.8850 N.3    85  TYR85      -0.1241
      2  CA        50.9470   13.7770   20.9920 C.3    85  TYR85       0.1605
      3  C         51.4160   14.5460   22.2170 C.2    85  TYR85       0.2264
      4  O         52.4960   15.1350   22.2090 O.2    85  TYR85      -0.2867
      5  CB        51.9490   12.6840   20.6170 C.3    85  TYR85       0.0534
      6  CG        51.3660   11.6220   19.7130 C.ar   85  TYR85      -0.0201
      7  CD1       51.0870   11.8900   18.3790 C.ar   85  TYR85      -0.0009
      8  CD2       51.0960   10.3490   20.1940 C.ar   85  TYR85      -0.0009
      9  CE1       50.5440   10.9230   17.5540 C.ar   85  TYR85       0.0417
     10  CE2       50.5620    9.3740   19.3750 C.ar   85  TYR85       0.0417
     11  CZ        50.2890    9.6660   18.0570 C.ar   85  TYR85       0.1957
     12  OH        49.7560    8.6960   17.2390 O.3    85  TYR85      -0.2866
     13  N         51.3740    5.5220   29.6930 N.3    90  CYS90      -0.1235
     14  CA        50.0350    4.9640   29.8730 C.3    90  CYS90       0.1677
     15  C         49.9430    3.8730   30.9440 C.2    90  CYS90       0.2270
     16  O         50.9420    3.2520   31.3100 O.2    90  CYS90      -0.2867
     17  CB        49.5140    4.4040   28.5500 C.3    90  CYS90       0.0956
     18  SG        47.8990    3.6250   28.7230 S.3    90  CYS90      -0.0801
     19  N         47.7210    1.2520   30.5490 N.3    92  ASN92      -0.1240
     20  CA        47.3500    0.0160   29.8640 C.3    92  ASN92       0.1653
     21  C         48.4880   -0.6760   29.1280 C.2    92  ASN92       0.2266
     22  O         49.6100   -0.1560   29.0520 O.2    92  ASN92      -0.2867
     23  CB        46.2220    0.2930   28.8770 C.3    92  ASN92       0.1155
     24  CG        45.0440    0.9920   29.5240 C.2    92  ASN92       0.2627
     25  OD1       44.2030    0.3560   30.1550 O.2    92  ASN92      -0.2716
     26  ND2       44.9810    2.3100   29.3760 N.am   92  ASN92      -0.0877
     27  N         49.4750   -4.6870   20.8190 N.3    96  TYR96      -0.1227
     28  CA        49.8070   -4.0770   19.5270 C.3    96  TYR96       0.1736
     29  C         50.5270   -2.7260   19.5930 C.2    96  TYR96       0.2596
     30  O         51.2180   -2.3430   18.6460 O.2    96  TYR96      -0.2718
     31  CB        48.5340   -3.9110   18.6920 C.3    96  TYR96       0.0548
     32  CG        47.4030   -3.2010   19.4060 C.ar   96  TYR96      -0.0200
     33  CD1       47.3560   -1.8150   19.4720 C.ar   96  TYR96      -0.0009
     34  CD2       46.3750   -3.9170   20.0030 C.ar   96  TYR96      -0.0009
     35  CE1       46.3240   -1.1640   20.1180 C.ar   96  TYR96       0.0417
     36  CE2       45.3360   -3.2760   20.6510 C.ar   96  TYR96       0.0417
     37  CZ        45.3160   -1.8990   20.7050 C.ar   96  TYR96       0.1957
     38  OH        44.2840   -1.2560   21.3490 O.3    96  TYR96      -0.2866
     39  N         50.3730   -2.0020   20.6960 N.am   97  CYS97      -0.1956
     40  CA        50.8650   -0.6250   20.7450 C.3    97  CYS97       0.1843
     41  C         52.2800   -0.4740   21.2990 C.2    97  CYS97       0.2626
     42  O         52.7880   -1.3490   21.9980 O.2    97  CYS97      -0.2714
     43  CB        49.9200    0.2500   21.5650 C.3    97  CYS97       0.0997
     44  SG        50.4710    1.9700   21.6540 S.3    97  CYS97      -0.0797
     45  N         52.9040    0.6580   20.9820 N.am   98  SER98      -0.1936
     46  CA        54.2560    0.9580   21.4390 C.3    98  SER98       0.2055
     47  C         54.2340    1.6190   22.8110 C.2    98  SER98       0.2643
     48  O         55.2140    1.5580   23.5550 O.2    98  SER98      -0.2714
     49  CB        54.9740    1.8710   20.4380 C.3    98  SER98       0.2130
     50  OG        54.5600    1.6080   19.1080 O.3    98  SER98      -0.2179
     51  N         53.1110    2.2510   23.1390 N.am   99  PHE99      -0.1973
     52  CA        52.9910    3.0220   24.3740 C.3    99  PHE99       0.1639
     53  C         52.6690    2.1560   25.5890 C.2    99  PHE99       0.2290
     54  O         52.6100    2.6620   26.7110 O.2    99  PHE99      -0.2864
     55  CB        51.9140    4.1030   24.2350 C.3    99  PHE99       0.0560
     56  CG        52.3070    5.2600   23.3580 C.ar   99  PHE99      -0.0200
     57  CD1       53.5000    5.2560   22.6550 C.ar   99  PHE99      -0.0042
     58  CD2       51.4780    6.3650   23.2520 C.ar   99  PHE99      -0.0042
     59  CE1       53.8500    6.3270   21.8530 C.ar   99  PHE99      -0.0003
     60  CE2       51.8230    7.4380   22.4550 C.ar   99  PHE99      -0.0003
     61  CZ        53.0100    7.4190   21.7540 C.ar   99  PHE99      -0.0000
     62  N         46.4340   13.7440   21.3160 N.3   134  VAL134     -0.1231
     63  CA        46.4370   12.3200   21.6170 C.3   134  VAL134      0.1692
     64  C         47.3720   12.0260   22.7950 C.2   134  VAL134      0.2592
     65  O         48.4800   12.5670   22.8760 O.2   134  VAL134     -0.2718
     66  CB        46.8410   11.5010   20.3670 C.3   134  VAL134      0.0266
     67  CG1       47.9150   12.2310   19.5850 C.3   134  VAL134      0.0020
     68  CG2       47.2820   10.0960   20.7380 C.3   134  VAL134      0.0020
     69  N         46.9010   11.1880   23.7170 N.am  135  MET135     -0.1965
     70  CA        47.6550   10.8410   24.9190 C.3   135  MET135      0.1736
     71  C         47.5200    9.3760   25.3050 C.2   135  MET135      0.2617
     72  O         46.5540    8.7080   24.9360 O.2   135  MET135     -0.2715
     73  CB        47.1940   11.6820   26.1060 C.3   135  MET135      0.0427
     74  CG        47.7460   13.0810   26.1690 C.3   135  MET135      0.0599
     75  SD        46.6890   14.0790   27.2300 S.3   135  MET135     -0.1393
     76  CE        46.4230   12.9370   28.5870 C.3   135  MET135      0.0692
     77  N         48.4870    8.8890   26.0740 N.am  136  GLY136     -0.1940
     78  CA        48.3390    7.6170   26.7520 C.3   136  GLY136      0.2014
     79  C         47.3990    7.8140   27.9270 C.2   136  GLY136      0.2638
     80  O         47.1870    8.9430   28.3730 O.2   136  GLY136     -0.2714
     81  N         46.8310    6.7250   28.4320 N.am  137  GLU137     -0.1977
     82  CA        45.8500    6.8300   29.5060 C.3   137  GLU137      0.1602
     83  C         46.5020    7.0270   30.8720 C.2   137  GLU137      0.2287
     84  O         47.3470    6.2390   31.2950 O.2   137  GLU137     -0.2864
     85  CB        44.9460    5.5940   29.5350 C.3   137  GLU137      0.0415
     86  CG        43.8570    5.6530   30.6020 C.3   137  GLU137      0.1163
     87  CD        42.7890    4.5890   30.4150 C.2   137  GLU137      0.3649
     88  OE1       43.0340    3.6220   29.6620 O.co2 137  GLU137     -0.2457
     89  OE2       41.7010    4.7240   31.0140 O.co2 137  GLU137     -0.2457
     90  N         41.5420   12.7500   21.3580 N.3   166  ASN166     -0.1240
     91  CA        41.5560   11.2970   21.4200 C.3   166  ASN166      0.1653
     92  C         42.0200   10.8180   22.7920 C.2   166  ASN166      0.2266
     93  O         43.1460   10.3530   22.9520 O.2   166  ASN166     -0.2867
     94  CB        42.4510   10.7210   20.3250 C.3   166  ASN166      0.1155
     95  CG        42.2980    9.2220   20.1850 C.2   166  ASN166      0.2627
     96  OD1       43.2060    8.5310   19.7250 O.2   166  ASN166     -0.2716
     97  ND2       41.1440    8.7080   20.5930 N.am  166  ASN166     -0.0877
     98  N         41.3480    8.4980   26.3790 N.3   168  ALA168     -0.1245
     99  CA        40.7350    7.3140   26.9810 C.3   168  ALA168      0.1562
    100  C         39.4080    7.6340   27.6860 C.2   168  ALA168      0.2260
    101  O         39.2090    8.7590   28.1440 O.2   168  ALA168     -0.2867
    102  CB        41.7130    6.6780   27.9550 C.3   168  ALA168      0.0290
    103  N         36.9720    8.3880   20.2590 N.3   188  LEU188     -0.1231
    104  CA        37.2730    7.1960   21.0400 C.3   188  LEU188      0.1693
    105  C         37.0700    5.9560   20.1780 C.2   188  LEU188      0.2592
    106  O         35.9510    5.6590   19.7560 O.2   188  LEU188     -0.2718
    107  CB        36.3970    7.1350   22.2940 C.3   188  LEU188      0.0284
    108  CG        36.9310    6.3470   23.4950 C.3   188  LEU188      0.0019
    109  CD1       36.7090    4.8480   23.3450 C.3   188  LEU188      0.0001
    110  CD2       38.4020    6.6590   23.7250 C.3   188  LEU188      0.0001
    111  N         38.1550    5.2360   19.9150 N.am  189  PHE189     -0.1976
    112  CA        38.0840    4.0560   19.0640 C.3   189  PHE189      0.1639
    113  C         37.7820    2.8220   19.9080 C.2   189  PHE189      0.2290
    114  O         38.4090    2.5990   20.9400 O.2   189  PHE189     -0.2864
    115  CB        39.3900    3.8520   18.2820 C.3   189  PHE189      0.0560
    116  CG        39.8890    5.0870   17.5750 C.ar  189  PHE189     -0.0200
    117  CD1       39.0170    6.0910   17.1810 C.ar  189  PHE189     -0.0042
    118  CD2       41.2390    5.2370   17.3000 C.ar  189  PHE189     -0.0042
    119  CE1       39.4840    7.2210   16.5380 C.ar  189  PHE189     -0.0003
    120  CE2       41.7110    6.3630   16.6550 C.ar  189  PHE189     -0.0003
    121  CZ        40.8330    7.3550   16.2720 C.ar  189  PHE189     -0.0000
    122  N         38.5090    0.0310   19.0400 N.3   191  GLU191     -0.1245
    123  CA        39.6150   -0.8590   18.6580 C.3   191  GLU191      0.1567
    124  C         39.0950   -2.1760   18.0860 C.2   191  GLU191      0.2260
    125  O         39.4280   -2.5440   16.9610 O.2   191  GLU191     -0.2867
    126  CB        40.5560   -1.1380   19.8400 C.3   191  GLU191      0.0388
    127  CG        40.9430    0.0820   20.6680 C.3   191  GLU191      0.1160
    128  CD        41.8420    1.0610   19.9330 C.2   191  GLU191      0.3649
    129  OE1       42.3290    0.7310   18.8310 O.co2 191  GLU191     -0.2457
    130  OE2       42.0630    2.1690   20.4660 O.co2 191  GLU191     -0.2457
    131  N         41.4440   -0.3730   30.3860 N.3   207  LYS207     -0.1245
    132  CA        40.9840   -0.6270   29.0240 C.3   207  LYS207      0.1561
    133  C         40.5100   -2.0750   28.8520 C.2   207  LYS207      0.2260
    134  O         39.7020   -2.3560   27.9650 O.2   207  LYS207     -0.2867
    135  CB        42.0950   -0.2960   28.0130 C.3   207  LYS207      0.0271
    136  CG        41.7560   -0.5750   26.5540 C.3   207  LYS207      0.0035
    137  CD        42.9230   -0.2280   25.6440 C.3   207  LYS207      0.0206
    138  CE        42.7250    1.1150   24.9600 C.3   207  LYS207      0.1093
    139  NZ        42.3490    0.9500   23.5250 N.3   207  LYS207     -0.1314
    140  N         34.3970    0.9070   27.7050 N.3   213  ARG213     -0.1245
    141  CA        34.8960    1.6280   26.5390 C.3   213  ARG213      0.1563
    142  C         33.8090    1.7590   25.4760 C.2   213  ARG213      0.2260
    143  O         33.7410    2.7630   24.7660 O.2   213  ARG213     -0.2867
    144  CB        36.1370    0.9270   25.9680 C.3   213  ARG213      0.0307
    145  CG        36.5840    1.4270   24.5960 C.3   213  ARG213      0.0489
    146  CD        38.0240    1.0280   24.2810 C.3   213  ARG213      0.2205
    147  NE        38.9890    1.9650   24.8500 N.pl3 213  ARG213     -0.0865
    148  CZ        39.7030    2.8320   24.1380 C.cat 213  ARG213      0.5346
    149  NH1       39.5760    2.8780   22.8200 N.pl3 213  ARG213      0.1354
    150  NH2       40.5530    3.6490   24.7450 N.pl3 213  ARG213      0.1354
    151  N         40.2490   -0.6360   15.1020 N.3   233  LEU233     -0.1245
    152  CA        41.5660   -1.0560   14.6490 C.3   233  LEU233      0.1561
    153  C         41.4480   -2.3030   13.7800 C.2   233  LEU233      0.2260
    154  O         40.9580   -3.3430   14.2270 O.2   233  LEU233     -0.2867
    155  CB        42.4860   -1.3120   15.8420 C.3   233  LEU233      0.0270
    156  CG        43.9830   -1.3880   15.5510 C.3   233  LEU233      0.0019
    157  CD1       44.3680   -0.4000   14.4640 C.3   233  LEU233      0.0001
    158  CD2       44.7590   -1.1020   16.8230 C.3   233  LEU233      0.0001
    159  N         41.7870    2.9170   10.9330 N.3   267  PRO267     -0.2102
    160  CA        43.2200    2.6160   10.9150 C.3   267  PRO267      0.1504
    161  C         43.5330    1.1280   10.7790 C.2   267  PRO267      0.2576
    162  O         42.9930    0.3040   11.5180 O.2   267  PRO267     -0.2718
    163  CB        43.6960    3.1450   12.2710 C.3   267  PRO267      0.0282
    164  CG        42.4500    3.1430   13.1580 C.3   267  PRO267      0.0208
    165  CD        41.2450    2.8600   12.3000 C.3   267  PRO267      0.0893
    166  N         44.3960    0.7900    9.8270 N.am  268  ARG268     -0.1966
    167  CA        44.9210   -0.5630    9.7410 C.3   268  ARG268      0.1729
    168  C         46.0940   -0.6870   10.7010 C.2   268  ARG268      0.2616
    169  O         46.7900    0.2900   10.9760 O.2   268  ARG268     -0.2715
    170  CB        45.3420   -0.9110    8.3090 C.3   268  ARG268      0.0348
    171  CG        46.0040    0.2300    7.5550 C.3   268  ARG268      0.0492
    172  CD        46.8800   -0.2880    6.4270 C.3   268  ARG268      0.2205
    173  NE        46.1130   -0.9300    5.3630 N.pl3 268  ARG268     -0.0865
    174  CZ        46.6600   -1.6190    4.3670 C.cat 268  ARG268      0.5346
    175  NH1       45.8930   -2.1710    3.4370 N.pl3 268  ARG268      0.1354
    176  NH2       47.9780   -1.7600    4.3020 N.pl3 268  ARG268      0.1354
    177  N         46.3000   -1.8910   11.2170 N.am  269  LEU269     -0.1963
    178  CA        47.3320   -2.1340   12.2150 C.3   269  LEU269      0.1728
    179  C         48.7320   -2.0520   11.6030 C.2   269  LEU269      0.2616
    180  O         49.0570   -2.7740   10.6580 O.2   269  LEU269     -0.2715
    181  CB        47.0970   -3.4940   12.8730 C.3   269  LEU269      0.0311
    182  CG        48.1910   -4.1270   13.7260 C.3   269  LEU269      0.0022
    183  CD1       48.5550   -3.2400   14.9050 C.3   269  LEU269      0.0001
    184  CD2       47.7160   -5.4900   14.1960 C.3   269  LEU269      0.0001
    185  N         49.5490   -1.1620   12.1600 N.am  270  LYS270     -0.1977
    186  CA        50.8740   -0.8440   11.6290 C.3   270  LYS270      0.1596
    187  C         51.9970   -1.4010   12.5080 C.2   270  LYS270      0.2287
    188  O         51.7560   -1.7690   13.6580 O.2   270  LYS270     -0.2864
    189  CB        51.0150    0.6760   11.4910 C.3   270  LYS270      0.0298
    190  CG        50.2570    1.2610   10.3170 C.3   270  LYS270      0.0038
    191  CD        50.9800    0.9760    9.0110 C.3   270  LYS270      0.0206
    192  CE        50.0700    1.1980    7.8180 C.3   270  LYS270      0.1093
    193  NZ        50.6580    2.1330    6.8150 N.3   270  LYS270     -0.1314
    194  N         54.8020   -1.6220   15.1640 N.3   272  ALA272     -0.1245
    195  CA        55.0060   -0.8750   16.4010 C.3   272  ALA272      0.1562
    196  C         56.3450   -1.1980   17.0570 C.2   272  ALA272      0.2260
    197  O         56.9700   -2.2160   16.7550 O.2   272  ALA272     -0.2867
    198  CB        53.8720   -1.1500   17.3720 C.3   272  ALA272      0.0290
    199  N         46.0300    6.4080    9.9300 N.3   308  THR308     -0.1218
    200  CA        47.3060    5.7710    9.6210 C.3   308  THR308      0.1862
    201  C         47.9750    6.3670    8.3810 C.2   308  THR308      0.2287
    202  O         47.3040    6.7180    7.4100 O.2   308  THR308     -0.2866
    203  CB        47.1290    4.2540    9.4170 C.3   308  THR308      0.1770
    204  OG1       45.9680    4.0120    8.6110 O.3   308  THR308     -0.2211
    205  CG2       46.9550    3.5580   10.7570 C.3   308  THR308      0.0375
    206  N         55.0250    6.4910   18.2990 N.3   343  GLN343     -0.1231
    207  CA        54.1090    5.3560   18.3730 C.3   343  GLN343      0.1698
    208  C         54.2670    4.4810   17.1410 C.2   343  GLN343      0.2592
    209  O         54.0900    3.2660   17.1960 O.2   343  GLN343     -0.2718
    210  CB        52.6560    5.8290   18.5010 C.3   343  GLN343      0.0381
    211  CG        51.6410    4.6960   18.6930 C.3   343  GLN343      0.0905
    212  CD        50.2210    5.1950   18.9510 C.2   343  GLN343      0.2608
    213  OE1       49.8880    6.3480   18.6660 O.2   343  GLN343     -0.2717
    214  NE2       49.3790    4.3210   19.4960 N.am  343  GLN343     -0.0878
    215  N         54.6080    5.1150   16.0260 N.am  344  PHE344     -0.1976
    216  CA        54.8420    4.3990   14.7810 C.3   344  PHE344      0.1639
    217  C         56.2760    4.6190   14.3120 C.2   344  PHE344      0.2290
    218  O         56.8360    5.7020   14.4800 O.2   344  PHE344     -0.2864
    219  CB        53.8370    4.8440   13.7150 C.3   344  PHE344      0.0560
    220  CG        52.4030    4.7740   14.1730 C.ar  344  PHE344     -0.0200
    221  CD1       51.6850    3.5880   14.0910 C.ar  344  PHE344     -0.0042
    222  CD2       51.7760    5.8910   14.7010 C.ar  344  PHE344     -0.0042
    223  CE1       50.3630    3.5250   14.5220 C.ar  344  PHE344     -0.0003
    224  CE2       50.4570    5.8320   15.1340 C.ar  344  PHE344     -0.0003
    225  CZ        49.7520    4.6490   15.0440 C.ar  344  PHE344     -0.0000
@<TRIPOS>BOND
     1   175   174    1
     2   176   174    1
     3   174   173    2
     4   173   172    1
     5   172   171    1
     6   193   192    1
     7   202   201    2
     8   171   170    1
     9   192   191    1
    10   170   167    1
    11   201   200    1
    12   204   203    1
    13   191   190    1
    14   203   200    1
    15   203   205    1
    16   200   199    1
    17   167   166    1
    18   167   168    1
    19   166   161   am
    20   190   189    1
    21   180   179    2
    22   168   169    2
    23   168   177   am
    24   161   160    1
    25   161   162    2
    26   160   159    1
    27   160   163    1
    28   159   165    1
    29   177   178    1
    30   189   186    1
    31   179   185   am
    32   179   178    1
    33   186   185    1
    34   186   187    1
    35   178   181    1
    36   163   164    1
    37   165   164    1
    38   187   188    2
    39   181   182    1
    40   219   220    1
    41   219   216    1
    42   182   184    1
    43   182   183    1
    44   153   154    2
    45   153   152    1
    46   221   220   ar
    47   221   223   ar
    48   220   222   ar
    49   217   218    2
    50   217   216    1
    51   157   156    1
    52   223   225   ar
    53   152   151    1
    54   152   155    1
    55   222   224   ar
    56   216   215    1
    57   225   224   ar
    58   194   195    1
    59   156   155    1
    60   156   158    1
    61   215   208   am
    62   121   119   ar
    63   121   120   ar
    64   195   196    1
    65   195   198    1
    66   119   117   ar
    67   120   118   ar
    68   197   196    2
    69   125   124    2
    70   208   209    2
    71   208   207    1
    72   117   116   ar
    73    12    11    1
    74   118   116   ar
    75     9    11   ar
    76     9     7   ar
    77   116   115    1
    78    11    10   ar
    79   124   123    1
    80   115   112    1
    81   206   207    1
    82   207   210    1
    83     7     6   ar
    84   210   211    1
    85    30    29    2
    86   123   122    1
    87   123   126    1
    88   213   212    2
    89    31    32    1
    90    31    28    1
    91   211   212    1
    92   129   128   ar
    93   212   214   am
    94   112   113    1
    95   112   111    1
    96    50    49    1
    97    10     8   ar
    98    32    33   ar
    99    32    34   ar
   100    33    35   ar
   101    28    29    1
   102    28    27    1
   103    67    66    1
   104    29    39   am
   105     6     8   ar
   106     6     5    1
   107    96    95    2
   108   106   105    2
   109   126   127    1
   110     1     2    1
   111   113   114    2
   112   111   105   am
   113   128   130   ar
   114   128   127    1
   115    34    36   ar
   116    35    37   ar
   117   105   104    1
   118    95    94    1
   119    95    97   am
   120   103   104    1
   121    94    91    1
   122    66    68    1
   123    66    63    1
   124    49    46    1
   125     5     2    1
   126    36    37   ar
   127    39    40    1
   128    37    38    1
   129    40    41    1
   130    40    43    1
   131    45    41   am
   132    45    46    1
   133     2     3    1
   134   104   107    1
   135    41    42    2
   136    62    63    1
   137    90    91    1
   138    91    92    1
   139    46    47    1
   140    43    44    1
   141    63    64    1
   142    61    59   ar
   143    61    60   ar
   144    59    57   ar
   145     4     3    2
   146   107   108    1
   147    60    58   ar
   148    57    56   ar
   149    92    93    2
   150    64    65    2
   151    64    69   am
   152    47    51   am
   153    47    48    2
   154   149   148    1
   155    51    52    1
   156    58    56   ar
   157   109   108    1
   158    56    55    1
   159   108   110    1
   160   139   138    1
   161    69    70    1
   162   148   150    1
   163   148   147    2
   164    55    52    1
   165   146   145    1
   166   146   147    1
   167    52    53    1
   168   145   144    1
   169   143   142    2
   170    70    71    1
   171    70    73    1
   172    72    71    2
   173   138   137    1
   174    71    77   am
   175   142   141    1
   176    53    54    2
   177   137   136    1
   178   144   141    1
   179    77    78    1
   180    73    74    1
   181    74    75    1
   182    98    99    1
   183   141   140    1
   184   136   135    1
   185    78    79    1
   186    99   100    1
   187    99   102    1
   188    75    76    1
   189   100   101    2
   190    79    80    2
   191    79    81   am
   192   134   133    2
   193   135   132    1
   194    81    82    1
   195    17    18    1
   196    17    14    1
   197   133   132    1
   198    23    24    1
   199    23    20    1
   200   132   131    1
   201    22    21    2
   202    21    20    1
   203    26    24   am
   204    82    85    1
   205    82    83    1
   206    24    25    2
   207    85    86    1
   208    88    87   ar
   209    13    14    1
   210    20    19    1
   211    14    15    1
   212    87    86    1
   213    87    89   ar
   214    83    84    2
   215    15    16    2
