@<TRIPOS>MOLECULE
tmp/4rtfA00.pdb
 116 106 0 0 0
SMALL
GASTEIGER

@<TRIPOS>ATOM
      1  N         54.8960  -20.9300  -15.5800 N.3     6  ASP6       -0.1239
      2  CA        55.2160  -19.7450  -16.3810 C.3     6  ASP6        0.1674
      3  C         53.8690  -19.1600  -16.7300 C.2     6  ASP6        0.2266
      4  O         53.1490  -19.7050  -17.5740 O.2     6  ASP6       -0.2867
      5  CB        55.9680  -20.0560  -17.6930 C.3     6  ASP6        0.1410
      6  CG        56.1310  -18.8020  -18.5870 C.2     6  ASP6        0.3668
      7  OD1       55.7120  -17.7310  -18.1210 O.co2   6  ASP6       -0.2456
      8  OD2       56.6530  -18.8450  -19.7320 O.co2   6  ASP6       -0.2456
      9  N         52.5840  -16.5360  -18.5040 N.3     8  GLY8       -0.1210
     10  CA        52.9210  -15.5480  -19.5300 C.3     8  GLY8        0.1956
     11  C         51.8350  -14.5970  -19.9930 C.2     8  GLY8        0.2613
     12  O         50.6440  -14.8750  -19.9040 O.2     8  GLY8       -0.2717
     13  N         52.2500  -13.4560  -20.5030 N.am    9  THR9       -0.1938
     14  CA        51.2990  -12.5020  -21.0360 C.3     9  THR9        0.2028
     15  C         50.3840  -13.1970  -22.0730 C.2     9  THR9        0.2643
     16  O         49.1670  -13.0980  -21.9880 O.2     9  THR9       -0.2714
     17  CB        52.0810  -11.4230  -21.7820 C.3     9  THR9        0.1808
     18  OG1       53.0980  -10.8910  -20.9190 O.3     9  THR9       -0.2208
     19  CG2       51.1890  -10.3610  -22.2330 C.3     9  THR9        0.0379
     20  N         50.9580  -13.9420  -23.0290 N.am   10  THR10      -0.1936
     21  CA        50.1240  -14.5590  -24.0810 C.3    10  THR10       0.2028
     22  C         49.9780  -16.0790  -23.9930 C.2    10  THR10       0.2642
     23  O         49.0200  -16.6580  -24.5110 O.2    10  THR10      -0.2714
     24  CB        50.6310  -14.1760  -25.4820 C.3    10  THR10       0.1808
     25  OG1       51.8040  -14.9440  -25.8050 O.3    10  THR10      -0.2208
     26  CG2       50.9400  -12.6750  -25.5450 C.3    10  THR10       0.0379
     27  N         50.9420  -16.7140  -23.3400 N.am   11  ASN11      -0.1971
     28  CA        50.9190  -18.1690  -23.1350 C.3    11  ASN11       0.1688
     29  C         51.5030  -18.5510  -21.8030 C.2    11  ASN11       0.2292
     30  O         52.5070  -17.9750  -21.3560 O.2    11  ASN11      -0.2864
     31  CB        51.7480  -18.9120  -24.1850 C.3    11  ASN11       0.1181
     32  CG        51.2040  -18.7330  -25.5830 C.2    11  ASN11       0.2629
     33  OD1       50.2120  -19.3620  -25.9940 O.2    11  ASN11      -0.2716
     34  ND2       51.8890  -17.9030  -26.3410 N.am   11  ASN11      -0.0877
     35  N         47.4750  -10.2580  -17.7760 N.3    68  LYS68      -0.1245
     36  CA        48.7430  -10.0560  -17.0510 C.3    68  LYS68       0.1561
     37  C         49.1900   -8.5940  -17.0430 C.2    68  LYS68       0.2260
     38  O         49.7720   -8.1240  -16.0750 O.2    68  LYS68      -0.2867
     39  CB        49.8550  -10.9570  -17.5980 C.3    68  LYS68       0.0271
     40  CG        51.1670  -10.9040  -16.8280 C.3    68  LYS68       0.0035
     41  CD        52.1770  -11.9010  -17.3740 C.3    68  LYS68       0.0206
     42  CE        53.5600  -11.7820  -16.7450 C.3    68  LYS68       0.1093
     43  NZ        54.4660  -12.8470  -17.3310 N.3    68  LYS68      -0.1314
     44  N         57.7670  -11.3310  -14.1360 N.3   117  PRO117     -0.2116
     45  CA        58.8840  -10.6980  -14.8320 C.3   117  PRO117      0.1372
     46  C         59.7160   -9.9560  -13.8130 C.2   117  PRO117      0.2244
     47  O         59.1610   -9.5000  -12.8160 O.2   117  PRO117     -0.2868
     48  CB        58.2010   -9.6770  -15.7720 C.3   117  PRO117      0.0268
     49  CG        56.7590  -10.0660  -15.8180 C.3   117  PRO117      0.0207
     50  CD        56.4690  -10.7550  -14.5040 C.3   117  PRO117      0.0892
     51  N         60.8370   -6.8780  -13.7060 N.3   119  TYR119     -0.1241
     52  CA        60.4070   -5.4890  -13.3420 C.3   119  TYR119      0.1605
     53  C         59.1340   -5.3670  -12.5180 C.2   119  TYR119      0.2264
     54  O         58.7010   -4.2570  -12.2180 O.2   119  TYR119     -0.2867
     55  CB        60.2270   -4.6090  -14.5580 C.3   119  TYR119      0.0534
     56  CG        59.2810   -5.2130  -15.5330 C.ar  119  TYR119     -0.0201
     57  CD1       57.8960   -5.1470  -15.3260 C.ar  119  TYR119     -0.0009
     58  CD2       59.7630   -5.8640  -16.6770 C.ar  119  TYR119     -0.0009
     59  CE1       57.0140   -5.6880  -16.2590 C.ar  119  TYR119      0.0417
     60  CE2       58.8990   -6.4360  -17.5890 C.ar  119  TYR119      0.0417
     61  CZ        57.5300   -6.3350  -17.3870 C.ar  119  TYR119      0.1957
     62  OH        56.6720   -6.9130  -18.2960 O.3   119  TYR119     -0.2866
     63  N         61.1380  -14.4320  -14.2350 N.3   145  GLU145     -0.1245
     64  CA        61.4310  -14.9880  -15.5490 C.3   145  GLU145      0.1567
     65  C         62.8890  -15.1690  -16.0170 C.2   145  GLU145      0.2260
     66  O         63.2920  -16.2760  -16.4170 O.2   145  GLU145     -0.2867
     67  CB        60.5540  -14.3070  -16.5890 C.3   145  GLU145      0.0388
     68  CG        59.0820  -14.6180  -16.3300 C.3   145  GLU145      0.1160
     69  CD        58.1380  -13.6110  -16.9210 C.2   145  GLU145      0.3649
     70  OE1       58.5930  -12.7830  -17.7520 O.co2 145  GLU145     -0.2457
     71  OE2       56.9460  -13.6260  -16.5170 O.co2 145  GLU145     -0.2457
     72  N         64.6780  -12.3690  -24.0210 N.3   166  ASP166     -0.1239
     73  CA        63.3450  -12.9670  -23.9770 C.3   166  ASP166      0.1674
     74  C         62.3790  -12.2900  -24.9130 C.2   166  ASP166      0.2266
     75  O         61.9230  -11.1780  -24.6440 O.2   166  ASP166     -0.2867
     76  CB        62.8110  -12.8530  -22.5110 C.3   166  ASP166      0.1410
     77  CG        61.4550  -13.5930  -22.2660 C.2   166  ASP166      0.3668
     78  OD1       60.7450  -13.9410  -23.2650 O.co2 166  ASP166     -0.2456
     79  OD2       61.1050  -13.8280  -21.0470 O.co2 166  ASP166     -0.2456
     80  N         58.7760  -12.8360  -26.0900 N.3   168  GLY168     -0.1225
     81  CA        57.5280  -13.6400  -26.0380 C.3   168  GLY168      0.1811
     82  C         56.5270  -13.3250  -27.1600 C.2   168  GLY168      0.2280
     83  O         56.8600  -12.6560  -28.1360 O.2   168  GLY168     -0.2866
     84  N         55.6990   -9.3960  -25.6710 N.3   171  THR171     -0.1218
     85  CA        56.6730   -8.5890  -24.9340 C.3   171  THR171      0.1862
     86  C         58.0810   -8.9360  -25.2660 C.2   171  THR171      0.2287
     87  O         58.3850  -10.0640  -25.6560 O.2   171  THR171     -0.2866
     88  CB        56.6890   -9.1030  -23.4990 C.3   171  THR171      0.1770
     89  OG1       56.7830  -10.5460  -23.5960 O.3   171  THR171     -0.2211
     90  CG2       55.4410   -8.7840  -22.7670 C.3   171  THR171      0.0375
     91  N         61.8750   -8.7110  -23.3580 N.3   173  ASP173     -0.1239
     92  CA        62.6500   -8.4100  -22.1590 C.3   173  ASP173      0.1674
     93  C         64.0820   -8.8280  -22.3870 C.2   173  ASP173      0.2266
     94  O         64.3400   -9.8740  -22.9980 O.2   173  ASP173     -0.2867
     95  CB        62.1480   -9.2790  -21.0010 C.3   173  ASP173      0.1410
     96  CG        60.6510   -9.1190  -20.7210 C.2   173  ASP173      0.3668
     97  OD1       60.1680   -7.9820  -20.5250 O.co2 173  ASP173     -0.2456
     98  OD2       59.9680  -10.1580  -20.5940 O.co2 173  ASP173     -0.2456
     99  N         64.9350  -16.9920  -24.4720 N.3   305  VAL305     -0.1231
    100  CA        63.5860  -17.3690  -24.0550 C.3   305  VAL305      0.1692
    101  C         62.6710  -16.8660  -25.1790 C.2   305  VAL305      0.2592
    102  O         62.8860  -15.7920  -25.6910 O.2   305  VAL305     -0.2718
    103  CB        63.1490  -16.5970  -22.7890 C.3   305  VAL305      0.0266
    104  CG1       61.7820  -17.0580  -22.3700 C.3   305  VAL305      0.0020
    105  CG2       64.1530  -16.7730  -21.6490 C.3   305  VAL305      0.0020
    106  N         61.6130  -17.5930  -25.5070 N.am  306  GLY306     -0.1957
    107  CA        60.6800  -17.1530  -26.5300 C.3   306  GLY306      0.1869
    108  C         60.7280  -18.0450  -27.7430 C.2   306  GLY306      0.2309
    109  O         61.8110  -18.2800  -28.3560 O.2   306  GLY306     -0.2863
    110  N         61.2350  -20.9280  -19.0400 N.3   337  VAL337     -0.1245
    111  CA        61.0210  -20.3190  -17.7200 C.3   337  VAL337      0.1561
    112  C         60.2600  -21.3060  -16.8440 C.2   337  VAL337      0.2260
    113  O         60.6680  -21.5560  -15.7230 O.2   337  VAL337     -0.2867
    114  CB        60.4100  -18.8630  -17.6980 C.3   337  VAL337      0.0252
    115  CG1       60.6860  -18.1460  -19.0200 C.3   337  VAL337      0.0019
    116  CG2       58.9160  -18.8390  -17.4460 C.3   337  VAL337      0.0019
@<TRIPOS>BOND
     1   109   108    2
     2    83    82    2
     3   108   107    1
     4    82    81    1
     5   107   106    1
     6    34    32   am
     7    80    81    1
     8    33    32    2
     9    25    24    1
    10   102   101    2
    11    84    85    1
    12    87    86    2
    13    32    31    1
    14    26    24    1
    15   106   101   am
    16    24    21    1
    17    86    85    1
    18   101   100    1
    19    85    88    1
    20    74    75    2
    21    74    73    1
    22    23    22    2
    23    99   100    1
    24    31    28    1
    25    21    22    1
    26    21    20    1
    27   100   103    1
    28    72    73    1
    29    22    27   am
    30    73    76    1
    31    89    88    1
    32    88    90    1
    33    91    92    1
    34    27    28    1
    35    78    77   ar
    36    28    29    1
    37    20    15   am
    38    94    93    2
    39   103   104    1
    40   103   105    1
    41    76    77    1
    42    93    92    1
    43    77    79   ar
    44    19    17    1
    45    92    95    1
    46    15    16    2
    47    15    14    1
    48    29    30    2
    49    17    14    1
    50    17    18    1
    51    14    13    1
    52    95    96    1
    53    96    98   ar
    54    96    97   ar
    55    13    11   am
    56    11    12    2
    57    11    10    1
    58     8     6   ar
    59    10     9    1
    60   110   111    1
    61   115   114    1
    62     6     7   ar
    63     6     5    1
    64    62    61    1
    65    35    36    1
    66    70    69   ar
    67   111   114    1
    68   111   112    1
    69   114   116    1
    70     5     2    1
    71    39    36    1
    72    39    40    1
    73    60    61   ar
    74    60    58   ar
    75     4     3    2
    76    61    59   ar
    77    41    40    1
    78    41    42    1
    79    43    42    1
    80    36    37    1
    81    37    38    2
    82    69    71   ar
    83    69    68    1
    84   112   113    2
    85     3     2    1
    86    58    56   ar
    87    67    68    1
    88    67    64    1
    89    66    65    2
    90     2     1    1
    91    59    57   ar
    92    65    64    1
    93    49    48    1
    94    49    50    1
    95    48    45    1
    96    64    63    1
    97    56    57   ar
    98    56    55    1
    99    45    44    1
   100    45    46    1
   101    55    52    1
   102    50    44    1
   103    46    47    2
   104    51    52    1
   105    52    53    1
   106    53    54    2
