@<TRIPOS>MOLECULE
tmp/4rtlA00.pdb
 201 202 0 0 0
SMALL
GASTEIGER

@<TRIPOS>ATOM
      1  N         10.5060    6.9210  170.8990 N.3     8  TRP8       -0.1227
      2  CA        11.6260    6.1730  170.2650 C.3     8  TRP8        0.1737
      3  C         11.6990    6.2720  168.7210 C.2     8  TRP8        0.2595
      4  O         10.6820    6.4490  168.0490 O.2     8  TRP8       -0.2718
      5  CB        11.5480    4.6900  170.6630 C.3     8  TRP8        0.0564
      6  CG        12.8770    3.9460  170.7290 C.ar    8  TRP8        0.0003
      7  CD1       13.3860    3.0840  169.7900 C.ar    8  TRP8        0.0946
      8  CD2       13.8350    3.9720  171.8050 C.ar    8  TRP8        0.0152
      9  NE1       14.5990    2.5820  170.2120 N.ar    8  TRP8       -0.2442
     10  CE2       14.9020    3.1120  171.4420 C.ar    8  TRP8        0.0810
     11  CE3       13.9000    4.6420  173.0360 C.ar    8  TRP8        0.0012
     12  CZ2       16.0200    2.9100  172.2590 C.ar    8  TRP8        0.0191
     13  CZ3       15.0130    4.4370  173.8560 C.ar    8  TRP8        0.0001
     14  CH2       16.0560    3.5740  173.4600 C.ar    8  TRP8        0.0015
     15  N         12.9060    6.1300  168.1660 N.am    9  ALA9       -0.1966
     16  CA        13.1140    6.2360  166.7160 C.3     9  ALA9        0.1728
     17  C         12.7300    4.9600  165.9560 C.2     9  ALA9        0.2617
     18  O         13.1020    3.8430  166.3450 O.2     9  ALA9       -0.2715
     19  CB        14.5620    6.6010  166.4190 C.3     9  ALA9        0.0334
     20  N         11.9870    5.1330  164.8660 N.am   10  GLY10      -0.1940
     21  CA        11.5550    4.0120  164.0500 C.3    10  GLY10       0.2014
     22  C         10.5300    3.0920  164.7020 C.2    10  GLY10       0.2639
     23  O         10.4730    1.9080  164.3690 O.2    10  GLY10      -0.2714
     24  N          9.7230    3.6260  165.6230 N.am   11  GLY11      -0.1939
     25  CA         8.6610    2.8550  166.2670 C.3    11  GLY11       0.2014
     26  C          7.6170    2.4100  165.2500 C.2    11  GLY11       0.2638
     27  O          7.3620    3.1280  164.2890 O.2    11  GLY11      -0.2714
     28  N          7.0060    1.2450  165.4640 N.am   12  LYS12      -0.1977
     29  CA         6.1980    0.5960  164.4210 C.3    12  LYS12       0.1596
     30  C          4.6700    0.6160  164.6350 C.2    12  LYS12       0.2287
     31  O          3.9220   -0.0290  163.8860 O.2    12  LYS12      -0.2864
     32  CB         6.6700   -0.8570  164.2520 C.3    12  LYS12       0.0298
     33  CG         8.0060   -0.9900  163.5170 C.3    12  LYS12       0.0038
     34  CD         7.8540   -0.5600  162.0560 C.3    12  LYS12       0.0206
     35  CE         9.1690   -0.6330  161.2940 C.3    12  LYS12       0.1093
     36  NZ        10.1580    0.3960  161.7290 N.3    12  LYS12      -0.1314
     37  N         12.7610  -11.2930  168.9240 N.3    31  GLU31      -0.1231
     38  CA        13.0410   -9.9480  168.3640 C.3    31  GLU31       0.1684
     39  C         14.4910   -9.4770  168.6500 C.2    31  GLU31       0.2434
     40  O         14.8100   -9.0420  169.7660 O.2    31  GLU31      -0.2733
     41  CB        12.0510   -8.8900  168.9170 C.3    31  GLU31       0.0402
     42  CG        10.5730   -9.0200  168.4820 C.3    31  GLU31       0.1161
     43  CD         9.6980   -7.8160  168.8960 C.2    31  GLU31       0.3649
     44  OE1        8.6700   -8.0150  169.5790 O.co2  31  GLU31      -0.2457
     45  OE2       10.0190   -6.6660  168.5240 O.co2  31  GLU31      -0.2457
     46  N         15.3760   -9.5570  167.6420 N.am   32  PRO32      -0.2718
     47  CA        16.7770   -9.1380  167.8330 C.3    32  PRO32       0.1535
     48  C         17.0190   -7.6100  167.9110 C.2    32  PRO32       0.2599
     49  O         18.0990   -7.2070  168.3590 O.2    32  PRO32      -0.2715
     50  CB        17.4880   -9.7330  166.6030 C.3    32  PRO32       0.0310
     51  CG        16.5660  -10.8510  166.1230 C.3    32  PRO32       0.0237
     52  CD        15.1910  -10.3360  166.4020 C.3    32  PRO32       0.0939
     53  N         16.0570   -6.7840  167.4920 N.am   33  PHE33      -0.1960
     54  CA        16.1640   -5.3270  167.6370 C.3    33  PHE33       0.1771
     55  C         14.9090   -4.7610  168.3370 C.2    33  PHE33       0.2619
     56  O         14.1240   -4.0550  167.6900 O.2    33  PHE33      -0.2715
     57  CB        16.3160   -4.6140  166.2670 C.3    33  PHE33       0.0574
     58  CG        17.4010   -5.1740  165.3480 C.ar   33  PHE33      -0.0200
     59  CD1       17.1640   -6.2950  164.5590 C.ar   33  PHE33      -0.0042
     60  CD2       18.6260   -4.5270  165.2180 C.ar   33  PHE33      -0.0042
     61  CE1       18.1450   -6.7890  163.6840 C.ar   33  PHE33      -0.0003
     62  CE2       19.6190   -5.0150  164.3480 C.ar   33  PHE33      -0.0003
     63  CZ        19.3760   -6.1470  163.5810 C.ar   33  PHE33      -0.0000
     64  N         14.7110   -5.0360  169.6340 N.am   34  VAL34      -0.1963
     65  CA        13.3830   -4.8070  170.2340 C.3    34  VAL34       0.1727
     66  C         12.9760   -3.3230  170.3880 C.2    34  VAL34       0.2617
     67  O         11.8190   -2.9690  170.1250 O.2    34  VAL34      -0.2715
     68  CB        13.2400   -5.5250  171.6170 C.3    34  VAL34       0.0290
     69  CG1       14.2100   -4.9810  172.6590 C.3    34  VAL34       0.0023
     70  CG2       11.7910   -5.4370  172.1210 C.3    34  VAL34       0.0023
     71  N         13.9020   -2.4510  170.7780 N.am   35  GLY35      -0.1940
     72  CA        13.5540   -1.0390  170.9530 C.3    35  GLY35       0.2014
     73  C         12.4420   -0.8290  171.9840 C.2    35  GLY35       0.2639
     74  O         12.4930   -1.4210  173.0660 O.2    35  GLY35      -0.2714
     75  N         11.4360   -0.0100  171.6480 N.am   36  ALA36      -0.1963
     76  CA        10.3670    0.3440  172.5920 C.3    36  ALA36       0.1728
     77  C          9.2410   -0.7100  172.7010 C.2    36  ALA36       0.2617
     78  O          8.3430   -0.5770  173.5400 O.2    36  ALA36      -0.2715
     79  CB         9.7740    1.6940  172.2190 C.3    36  ALA36       0.0334
     80  N          9.2680   -1.7290  171.8430 N.am   37  GLY37      -0.1940
     81  CA         8.4090   -2.9030  172.0020 C.3    37  GLY37       0.2014
     82  C          6.9720   -2.9020  171.4790 C.2    37  GLY37       0.2640
     83  O          6.1220   -3.6030  172.0410 O.2    37  GLY37      -0.2714
     84  N          6.6870   -2.1580  170.4050 N.am   38  SER38      -0.1935
     85  CA         5.3070   -2.0390  169.9010 C.3    38  SER38       0.2055
     86  C          4.6790   -3.3540  169.3810 C.2    38  SER38       0.2642
     87  O          3.4570   -3.5330  169.4490 O.2    38  SER38      -0.2714
     88  CB         5.2400   -0.9870  168.7840 C.3    38  SER38       0.2130
     89  OG         5.1070    0.3250  169.3090 O.3    38  SER38      -0.2179
     90  N          5.4970   -4.2590  168.8480 N.am   39  VAL39      -0.1977
     91  CA         4.9950   -5.5420  168.3330 C.3    39  VAL39       0.1596
     92  C          4.7240   -6.5530  169.4700 C.2    39  VAL39       0.2287
     93  O          3.6880   -7.2260  169.4900 O.2    39  VAL39      -0.2864
     94  CB         5.9860   -6.1560  167.3100 C.3    39  VAL39       0.0276
     95  CG1        5.5630   -7.5620  166.9170 C.3    39  VAL39       0.0022
     96  CG2        6.1000   -5.2650  166.0700 C.3    39  VAL39       0.0022
     97  N         18.6430   -6.3360  172.5380 N.3    52  ASP52      -0.1225
     98  CA        19.0860   -5.0170  171.9840 C.3    52  ASP52       0.1805
     99  C         20.5540   -4.7260  172.3900 C.2    52  ASP52       0.2598
    100  O         21.0440   -5.2680  173.3940 O.2    52  ASP52      -0.2718
    101  CB        18.1550   -3.8750  172.4680 C.3    52  ASP52       0.1424
    102  CG        18.1510   -2.6440  171.5390 C.2    52  ASP52       0.3668
    103  OD1       19.1260   -1.8530  171.5610 O.co2  52  ASP52      -0.2456
    104  OD2       17.1470   -2.4350  170.8080 O.co2  52  ASP52      -0.2456
    105  N         21.2580   -3.8740  171.6360 N.am   53  ILE53      -0.1966
    106  CA        22.6600   -3.5390  171.9790 C.3    53  ILE53       0.1727
    107  C         22.7860   -2.4570  173.0970 C.2    53  ILE53       0.2616
    108  O         23.8440   -2.3210  173.7120 O.2    53  ILE53      -0.2715
    109  CB        23.4630   -3.0810  170.7080 C.3    53  ILE53       0.0290
    110  CG1       24.9780   -3.2070  170.9160 C.3    53  ILE53       0.0022
    111  CG2       23.1350   -1.6470  170.3140 C.3    53  ILE53       0.0023
    112  CD1       25.5150   -4.6080  170.7660 C.3    53  ILE53       0.0001
    113  N         21.7050   -1.7200  173.3720 N.am   54  ASN54      -0.1972
    114  CA        21.6830   -0.6300  174.3740 C.3    54  ASN54       0.1688
    115  C         21.5050   -1.1420  175.8250 C.2    54  ASN54       0.2292
    116  O         20.4320   -1.6290  176.1920 O.2    54  ASN54      -0.2864
    117  CB        20.5590    0.3590  174.0030 C.3    54  ASN54       0.1181
    118  CG        20.5140    1.6270  174.8990 C.2    54  ASN54       0.2629
    119  OD1       20.6670    1.5710  176.1190 O.2    54  ASN54      -0.2716
    120  ND2       20.2610    2.7750  174.2700 N.am   54  ASN54      -0.0877
    121  N         22.9250   -8.0100  173.8830 N.3   161  GLU161     -0.1231
    122  CA        23.8590   -8.6790  172.9570 C.3   161  GLU161      0.1699
    123  C         23.5390   -8.2960  171.4950 C.2   161  GLU161      0.2593
    124  O         22.5120   -7.6710  171.2350 O.2   161  GLU161     -0.2718
    125  CB        23.8150  -10.2170  173.1530 C.3   161  GLU161      0.0402
    126  CG        22.4500  -10.8810  172.8240 C.3   161  GLU161      0.1161
    127  CD        22.2980  -12.3170  173.3570 C.2   161  GLU161      0.3649
    128  OE1       23.0690  -12.7300  174.2560 O.co2 161  GLU161     -0.2457
    129  OE2       21.3940  -13.0410  172.8770 O.co2 161  GLU161     -0.2457
    130  N         24.4220   -8.6450  170.5550 N.am  162  SER162     -0.1938
    131  CA        24.2670   -8.2620  169.1420 C.3   162  SER162      0.2055
    132  C         23.4680   -9.3040  168.3400 C.2   162  SER162      0.2643
    133  O         23.2810  -10.4290  168.8090 O.2   162  SER162     -0.2714
    134  CB        25.6450   -8.0440  168.5010 C.3   162  SER162      0.2130
    135  OG        25.5350   -7.5260  167.1820 O.3   162  SER162     -0.2179
    136  N         23.0310   -8.9390  167.1270 N.am  163  TYR163     -0.1973
    137  CA        22.0250   -9.7220  166.3780 C.3   163  TYR163      0.1639
    138  C         22.4490  -11.1640  166.0060 C.2   163  TYR163      0.2290
    139  O         21.5990  -12.0520  165.9410 O.2   163  TYR163     -0.2864
    140  CB        21.5900   -8.9660  165.0950 C.3   163  TYR163      0.0560
    141  CG        22.6760   -8.8100  164.0460 C.ar  163  TYR163     -0.0198
    142  CD1       22.8090   -9.7290  163.0060 C.ar  163  TYR163     -0.0009
    143  CD2       23.5760   -7.7500  164.1010 C.ar  163  TYR163     -0.0009
    144  CE1       23.8210   -9.5970  162.0560 C.ar  163  TYR163      0.0417
    145  CE2       24.5900   -7.6060  163.1550 C.ar  163  TYR163      0.0417
    146  CZ        24.7050   -8.5290  162.1360 C.ar  163  TYR163      0.1957
    147  OH        25.7060   -8.3870  161.2000 O.3   163  TYR163     -0.2866
    148  N         11.2150  -11.9480  163.9020 N.3   177  TYR177     -0.1241
    149  CA        10.9610  -10.6620  163.2240 C.3   177  TYR177      0.1605
    150  C         12.1080   -9.6540  163.4430 C.2   177  TYR177      0.2264
    151  O         12.4600   -9.3450  164.5890 O.2   177  TYR177     -0.2867
    152  CB         9.6220  -10.0500  163.6930 C.3   177  TYR177      0.0534
    153  CG         9.4240   -8.5940  163.2760 C.ar  177  TYR177     -0.0201
    154  CD1        9.0520   -8.2640  161.9730 C.ar  177  TYR177     -0.0009
    155  CD2        9.6220   -7.5470  164.1860 C.ar  177  TYR177     -0.0009
    156  CE1        8.8790   -6.9310  161.5820 C.ar  177  TYR177      0.0417
    157  CE2        9.4550   -6.2100  163.8020 C.ar  177  TYR177      0.0417
    158  CZ         9.0830   -5.9080  162.4980 C.ar  177  TYR177      0.1957
    159  OH         8.9220   -4.5900  162.1090 O.3   177  TYR177     -0.2866
    160  N         13.7950   -5.7470  162.7010 N.3   179  ASP179     -0.1225
    161  CA        13.5990   -4.3350  162.3120 C.3   179  ASP179      0.1790
    162  C         14.8710   -3.4700  162.4930 C.2   179  ASP179      0.2440
    163  O         14.9420   -2.6560  163.4140 O.2   179  ASP179     -0.2733
    164  CB        12.4410   -3.7170  163.1240 C.3   179  ASP179      0.1423
    165  CG        12.1850   -2.2390  162.7770 C.2   179  ASP179      0.3668
    166  OD1       12.6150   -1.7910  161.6850 O.co2 179  ASP179     -0.2456
    167  OD2       11.5560   -1.5250  163.5990 O.co2 179  ASP179     -0.2456
    168  N         15.8700   -3.6230  161.6010 N.am  180  PRO180     -0.2718
    169  CA        17.1600   -2.9180  161.7460 C.3   180  PRO180      0.1520
    170  C         17.0810   -1.3940  161.4890 C.2   180  PRO180      0.2440
    171  O         16.0760   -0.9210  160.9670 O.2   180  PRO180     -0.2731
    172  CB        18.0390   -3.5960  160.6860 C.3   180  PRO180      0.0310
    173  CG        17.0610   -4.0090  159.6200 C.3   180  PRO180      0.0237
    174  CD        15.8040   -4.4170  160.3570 C.3   180  PRO180      0.0939
    175  N         18.1260   -0.6310  161.8640 N.am  181  PRO181     -0.2727
    176  CA        18.1670    0.7910  161.4680 C.3   181  PRO181      0.1402
    177  C         18.0420    0.9730  159.9320 C.2   181  PRO181      0.2269
    178  O         18.5510    0.1210  159.1980 O.2   181  PRO181     -0.2865
    179  CB        19.5410    1.2580  161.9690 C.3   181  PRO181      0.0296
    180  CG        19.9150    0.2870  163.0740 C.3   181  PRO181      0.0237
    181  CD        19.2920   -1.0280  162.6800 C.3   181  PRO181      0.0939
    182  N         25.2690    1.4480  161.8750 N.3   190  PHE190     -0.1241
    183  CA        25.0260    0.2240  161.1260 C.3   190  PHE190      0.1605
    184  C         25.5960    0.3620  159.7240 C.2   190  PHE190      0.2264
    185  O         25.1670    1.2180  158.9510 O.2   190  PHE190     -0.2867
    186  CB        23.5280   -0.0780  161.0600 C.3   190  PHE190      0.0534
    187  CG        23.2010   -1.5430  161.1160 C.ar  190  PHE190     -0.0203
    188  CD1       23.5360   -2.2990  162.2260 C.ar  190  PHE190     -0.0042
    189  CD2       22.5600   -2.1640  160.0570 C.ar  190  PHE190     -0.0042
    190  CE1       23.2370   -3.6480  162.2800 C.ar  190  PHE190     -0.0003
    191  CE2       22.2580   -3.5110  160.1040 C.ar  190  PHE190     -0.0003
    192  CZ        22.5970   -4.2550  161.2180 C.ar  190  PHE190     -0.0000
    193  N         27.0890   -4.7950  157.3390 N.3   194  GLN194     -0.1245
    194  CA        26.1900   -5.4290  158.3060 C.3   194  GLN194      0.1566
    195  C         24.7830   -5.6870  157.7370 C.2   194  GLN194      0.2260
    196  O         24.1670   -6.7000  158.0740 O.2   194  GLN194     -0.2867
    197  CB        26.0870   -4.5820  159.5890 C.3   194  GLN194      0.0367
    198  CG        27.2760   -4.7030  160.5570 C.3   194  GLN194      0.0905
    199  CD        27.1460   -3.7780  161.7760 C.2   194  GLN194      0.2608
    200  OE1       26.8260   -2.5950  161.6440 O.2   194  GLN194     -0.2717
    201  NE2       27.3880   -4.3230  162.9660 N.am  194  GLN194     -0.0878
@<TRIPOS>BOND
     1   193   194    1
     2   195   196    2
     3   195   194    1
     4   194   197    1
     5   185   184    2
     6   178   177    2
     7   197   198    1
     8   173   174    1
     9   173   172    1
    10   184   183    1
    11   177   176    1
    12   189   191   ar
    13   189   187   ar
    14   191   192   ar
    15   174   168    1
    16   198   199    1
    17   172   169    1
    18   171   170    2
    19   186   187    1
    20   186   183    1
    21   187   188   ar
    22   183   182    1
    23   147   146    1
    24   192   190   ar
    25    35    36    1
    26    35    34    1
    27   176   175    1
    28   176   179    1
    29   170   169    1
    30   170   175   am
    31   156   154   ar
    32   156   158   ar
    33   168   169    1
    34   168   162   am
    35   200   199    2
    36   166   165   ar
    37   199   201   am
    38   175   181    1
    39   179   180    1
    40   154   153   ar
    41   144   146   ar
    42   144   142   ar
    43    34    33    1
    44   159   158    1
    45   146   145   ar
    46   188   190   ar
    47   161   162    1
    48   161   160    1
    49   161   164    1
    50   162   163    2
    51   158   157   ar
    52   181   180    1
    53   165   164    1
    54   165   167   ar
    55   142   141   ar
    56   145   143   ar
    57   149   150    1
    58   149   152    1
    59   149   148    1
    60   153   152    1
    61   153   155   ar
    62   150   151    2
    63    33    32    1
    64    63    61   ar
    65    63    62   ar
    66    61    59   ar
    67   157   155   ar
    68    31    30    2
    69   141   143   ar
    70   141   140    1
    71    21    22    1
    72    21    20    1
    73    32    29    1
    74    27    26    2
    75    62    60   ar
    76    23    22    2
    77    29    30    1
    78    29    28    1
    79    59    58   ar
    80    22    24   am
    81    20    17   am
    82   140   137    1
    83    60    58   ar
    84    26    28   am
    85    26    25    1
    86    58    57    1
    87    24    25    1
    88   139   138    2
    89    17    18    2
    90    17    16    1
    91   138   137    1
    92    96    94    1
    93    51    52    1
    94    51    50    1
    95    57    54    1
    96   137   136    1
    97    52    46    1
    98    19    16    1
    99    50    47    1
   100    16    15    1
   101    95    94    1
   102   136   132   am
   103   135   134    1
   104    94    91    1
   105    53    54    1
   106    53    48   am
   107    54    55    1
   108    46    47    1
   109    46    39   am
   110    56    55    2
   111    47    48    1
   112    48    49    2
   113     4     3    2
   114    15     3   am
   115    91    90    1
   116    91    92    1
   117    55    64   am
   118   132   133    2
   119   132   131    1
   120    38    39    1
   121    38    41    1
   122    38    37    1
   123    42    43    1
   124    42    41    1
   125   134   131    1
   126    45    43   ar
   127    39    40    2
   128     3     2    1
   129    88    89    1
   130    88    85    1
   131    90    86   am
   132    43    44   ar
   133   131   130    1
   134    86    87    2
   135    86    85    1
   136    92    93    2
   137    64    65    1
   138     7     9   ar
   139     7     6   ar
   140    85    84    1
   141    67    66    2
   142     9    10   ar
   143    65    66    1
   144    65    68    1
   145     2     5    1
   146     2     1    1
   147   111   109    1
   148    66    71   am
   149    84    82   am
   150   130   123   am
   151     5     6    1
   152   109   110    1
   153   109   106    1
   154     6     8   ar
   155   112   110    1
   156    71    72    1
   157   104   102   ar
   158    72    73    1
   159   124   123    2
   160    10     8   ar
   161    10    12   ar
   162    82    81    1
   163    82    83    2
   164   123   122    1
   165   102   103   ar
   166   102   101    1
   167    68    70    1
   168    68    69    1
   169   105   106    1
   170   105    99   am
   171    75    73   am
   172    75    76    1
   173     8    11   ar
   174    80    81    1
   175    80    77   am
   176   106   107    1
   177    73    74    2
   178    98    99    1
   179    98   101    1
   180    98    97    1
   181    79    76    1
   182    12    14   ar
   183    99   100    2
   184    76    77    1
   185    77    78    2
   186   126   125    1
   187   126   127    1
   188   129   127   ar
   189   122   125    1
   190   122   121    1
   191    11    13   ar
   192   107   113   am
   193   107   108    2
   194   127   128   ar
   195   113   114    1
   196    14    13   ar
   197   117   114    1
   198   117   118    1
   199   120   118   am
   200   114   115    1
   201   118   119    2
   202   115   116    2
