@<TRIPOS>MOLECULE
tmp/4rtnA00.pdb
 159 159 0 0 0
SMALL
GASTEIGER

@<TRIPOS>ATOM
      1  N         -8.3960    6.6990   93.1700 N.3     8  TRP8       -0.1227
      2  CA        -7.3120    5.9440   92.5540 C.3     8  TRP8        0.1737
      3  C         -7.4670    5.8560   91.0410 C.2     8  TRP8        0.2595
      4  O         -8.5820    5.8640   90.5190 O.2     8  TRP8       -0.2718
      5  CB        -7.2520    4.5390   93.1560 C.3     8  TRP8        0.0564
      6  CG        -5.9000    3.9000   93.1110 C.ar    8  TRP8        0.0003
      7  CD1       -5.4410    3.0140   92.1800 C.ar    8  TRP8        0.0946
      8  CD2       -4.8330    4.0830   94.0500 C.ar    8  TRP8        0.0152
      9  NE1       -4.1530    2.6390   92.4780 N.ar    8  TRP8       -0.2442
     10  CE2       -3.7570    3.2810   93.6210 C.ar    8  TRP8        0.0810
     11  CE3       -4.6840    4.8480   95.2100 C.ar    8  TRP8        0.0012
     12  CZ2       -2.5470    3.2250   94.3110 C.ar    8  TRP8        0.0191
     13  CZ3       -3.4820    4.7920   95.8940 C.ar    8  TRP8        0.0001
     14  CH2       -2.4300    3.9870   95.4420 C.ar    8  TRP8        0.0015
     15  N         -6.3420    5.7730   90.3400 N.am    9  ALA9       -0.1966
     16  CA        -6.3590    5.6100   88.8940 C.3     9  ALA9        0.1728
     17  C         -6.9320    4.2490   88.5210 C.2     9  ALA9        0.2616
     18  O         -6.7320    3.2660   89.2350 O.2     9  ALA9       -0.2715
     19  CB        -4.9620    5.7740   88.3230 C.3     9  ALA9        0.0334
     20  N         -7.6500    4.1980   87.4040 N.am   10  GLY10      -0.1955
     21  CA        -8.2350    2.9570   86.9350 C.3    10  GLY10       0.1869
     22  C         -9.4490    2.5310   87.7350 C.2    10  GLY10       0.2309
     23  O         -9.5950    1.3560   88.0680 O.2    10  GLY10      -0.2863
     24  N        -12.4160    2.3900   86.6400 N.3    12  LYS12      -0.1245
     25  CA       -13.0920    1.4810   85.7130 C.3    12  LYS12       0.1561
     26  C        -14.5730    1.2690   86.0220 C.2    12  LYS12       0.2260
     27  O        -15.1450    0.2460   85.6510 O.2    12  LYS12      -0.2867
     28  CB       -12.3780    0.1250   85.6950 C.3    12  LYS12       0.0271
     29  CG       -10.8890    0.2700   85.2830 C.3    12  LYS12       0.0035
     30  CD       -10.7700    0.5330   83.8060 C.3    12  LYS12       0.0206
     31  CE        -9.7610   -0.3080   83.0610 C.3    12  LYS12       0.1093
     32  NZ        -8.3520    0.0250   83.3740 N.3    12  LYS12      -0.1314
     33  N         -3.5960   -8.9570   90.2060 N.3    32  PRO32      -0.2102
     34  CA        -2.2100   -8.4800   90.3230 C.3    32  PRO32       0.1504
     35  C         -2.0750   -6.9580   90.4160 C.2    32  PRO32       0.2575
     36  O         -1.0720   -6.4730   90.9400 O.2    32  PRO32      -0.2718
     37  CB        -1.5550   -8.9910   89.0350 C.3    32  PRO32       0.0282
     38  CG        -2.4140  -10.1190   88.5880 C.3    32  PRO32       0.0208
     39  CD        -3.8020   -9.7430   88.9780 C.3    32  PRO32       0.0893
     40  N         -3.0550   -6.2230   89.9030 N.am   33  PHE33      -0.1977
     41  CA        -3.0380   -4.7640   89.9700 C.3    33  PHE33       0.1639
     42  C         -4.3130   -4.2530   90.6300 C.2    33  PHE33       0.2290
     43  O         -5.0820   -3.5260   90.0050 O.2    33  PHE33      -0.2864
     44  CB        -2.9090   -4.1450   88.5720 C.3    33  PHE33       0.0560
     45  CG        -1.7890   -4.7130   87.7430 C.ar   33  PHE33      -0.0200
     46  CD1       -1.9830   -5.8520   86.9750 C.ar   33  PHE33      -0.0042
     47  CD2       -0.5530   -4.0910   87.7080 C.ar   33  PHE33      -0.0042
     48  CE1       -0.9570   -6.3700   86.2030 C.ar   33  PHE33      -0.0003
     49  CE2        0.4780   -4.6040   86.9380 C.ar   33  PHE33      -0.0003
     50  CZ         0.2740   -5.7440   86.1850 C.ar   33  PHE33      -0.0000
     51  N         -5.1870   -2.1030   93.0340 N.3    35  GLY35      -0.1225
     52  CA        -5.4110   -0.6840   93.2430 C.3    35  GLY35       0.1811
     53  C         -6.5030   -0.4010   94.2580 C.2    35  GLY35       0.2280
     54  O         -6.4370   -0.8570   95.4010 O.2    35  GLY35      -0.2866
     55  N         -0.4920   -5.7150   94.7500 N.3    52  ASP52      -0.1225
     56  CA        -0.0710   -4.4470   94.1660 C.3    52  ASP52       0.1805
     57  C          1.3720   -4.1480   94.5740 C.2    52  ASP52       0.2598
     58  O          1.8420   -4.6280   95.6050 O.2    52  ASP52      -0.2718
     59  CB        -0.9980   -3.3120   94.6070 C.3    52  ASP52       0.1424
     60  CG        -0.8220   -2.0590   93.7730 C.2    52  ASP52       0.3668
     61  OD1        0.2470   -1.4190   93.8770 O.co2  52  ASP52      -0.2456
     62  OD2       -1.7550   -1.7070   93.0200 O.co2  52  ASP52      -0.2456
     63  N          2.0740   -3.3590   93.7680 N.am   53  ILE53      -0.1966
     64  CA         3.4650   -3.0280   94.0620 C.3    53  ILE53       0.1727
     65  C          3.5570   -1.9510   95.1480 C.2    53  ILE53       0.2616
     66  O          4.5960   -1.7900   95.7870 O.2    53  ILE53      -0.2715
     67  CB         4.2160   -2.5590   92.7890 C.3    53  ILE53       0.0290
     68  CG1        5.7330   -2.6510   92.9790 C.3    53  ILE53       0.0022
     69  CG2        3.7950   -1.1500   92.3940 C.3    53  ILE53       0.0023
     70  CD1        6.2460   -4.0630   93.1430 C.3    53  ILE53       0.0001
     71  N          2.4580   -1.2300   95.3620 N.am   54  ASN54      -0.1972
     72  CA         2.4060   -0.1490   96.3460 C.3    54  ASN54       0.1688
     73  C          2.2980   -0.6810   97.7750 C.2    54  ASN54       0.2292
     74  O          1.2540   -1.1940   98.1740 O.2    54  ASN54      -0.2864
     75  CB         1.2270    0.7800   96.0360 C.3    54  ASN54       0.1181
     76  CG         1.2510    2.0620   96.8500 C.2    54  ASN54       0.2629
     77  OD1        1.3370    2.0360   98.0770 O.2    54  ASN54      -0.2716
     78  ND2        1.1710    3.1970   96.1640 N.am   54  ASN54      -0.0877
     79  N          3.6820   -7.1800   96.0050 N.3   161  GLU161     -0.1231
     80  CA         4.6200   -7.8360   95.1040 C.3   161  GLU161      0.1699
     81  C          4.3150   -7.4910   93.6510 C.2   161  GLU161      0.2593
     82  O          3.2370   -6.9870   93.3360 O.2   161  GLU161     -0.2718
     83  CB         4.5820   -9.3520   95.3060 C.3   161  GLU161      0.0402
     84  CG         3.1980   -9.9640   95.1620 C.3   161  GLU161      0.1161
     85  CD         3.1440  -11.4020   95.6420 C.2   161  GLU161      0.3649
     86  OE1        4.1030  -11.8410   96.3150 O.co2 161  GLU161     -0.2457
     87  OE2        2.1470  -12.0950   95.3470 O.co2 161  GLU161     -0.2457
     88  N          5.2710   -7.7690   92.7700 N.am  162  SER162     -0.1938
     89  CA         5.1000   -7.5040   91.3480 C.3   162  SER162      0.2055
     90  C          4.1070   -8.4870   90.7370 C.2   162  SER162      0.2643
     91  O          3.7210   -9.4660   91.3770 O.2   162  SER162     -0.2714
     92  CB         6.4440   -7.5790   90.6230 C.3   162  SER162      0.2130
     93  OG         6.3470   -7.0510   89.3140 O.3   162  SER162     -0.2179
     94  N          3.7000   -8.2240   89.4990 N.am  163  TYR163     -0.1973
     95  CA         2.6660   -9.0190   88.8390 C.3   163  TYR163      0.1639
     96  C          3.0950  -10.4640   88.6040 C.2   163  TYR163      0.2290
     97  O          2.2690  -11.3730   88.6420 O.2   163  TYR163     -0.2864
     98  CB         2.2660   -8.3720   87.5080 C.3   163  TYR163      0.0560
     99  CG         3.4020   -8.2260   86.5160 C.ar  163  TYR163     -0.0198
    100  CD1        3.6750   -9.2250   85.5890 C.ar  163  TYR163     -0.0009
    101  CD2        4.1930   -7.0840   86.4990 C.ar  163  TYR163     -0.0009
    102  CE1        4.7080   -9.0950   84.6810 C.ar  163  TYR163      0.0417
    103  CE2        5.2270   -6.9440   85.5930 C.ar  163  TYR163      0.0417
    104  CZ         5.4810   -7.9520   84.6870 C.ar  163  TYR163      0.1957
    105  OH         6.5110   -7.8150   83.7850 O.3   163  TYR163     -0.2866
    106  N         -5.3860   -5.3630   85.2970 N.3   179  ASP179     -0.1225
    107  CA        -5.5240   -3.9710   84.8890 C.3   179  ASP179      0.1790
    108  C         -4.1890   -3.2580   85.0750 C.2   179  ASP179      0.2440
    109  O         -4.0070   -2.5060   86.0310 O.2   179  ASP179     -0.2733
    110  CB        -6.6270   -3.2740   85.6900 C.3   179  ASP179      0.1423
    111  CG        -6.8170   -1.8190   85.2860 C.2   179  ASP179      0.3668
    112  OD1       -7.3460   -1.0390   86.1050 O.co2 179  ASP179     -0.2456
    113  OD2       -6.4360   -1.4530   84.1530 O.co2 179  ASP179     -0.2456
    114  N         -3.2430   -3.4990   84.1560 N.am  180  PRO180     -0.2718
    115  CA        -1.9150   -2.8870   84.2540 C.3   180  PRO180      0.1520
    116  C         -1.9840   -1.3910   83.9780 C.2   180  PRO180      0.2440
    117  O         -3.0030   -0.9320   83.4640 O.2   180  PRO180     -0.2731
    118  CB        -1.1220   -3.6120   83.1670 C.3   180  PRO180      0.0310
    119  CG        -2.1480   -3.9440   82.1410 C.3   180  PRO180      0.0237
    120  CD        -3.3970   -4.2770   82.9140 C.3   180  PRO180      0.0939
    121  N         -0.9280   -0.6390   84.3290 N.am  181  PRO181     -0.2716
    122  CA        -0.8690    0.7700   83.9290 C.3   181  PRO181      0.1536
    123  C         -1.0930    0.9200   82.4280 C.2   181  PRO181      0.2598
    124  O         -0.6040    0.0930   81.6560 O.2   181  PRO181     -0.2715
    125  CB         0.5470    1.1860   84.3270 C.3   181  PRO181      0.0310
    126  CG         0.8760    0.2970   85.4740 C.3   181  PRO181      0.0237
    127  CD         0.2150   -1.0210   85.1780 C.3   181  PRO181      0.0939
    128  N         -1.8360    1.9480   82.0310 N.am  182  TYR182     -0.1974
    129  CA        -2.2120    2.1480   80.6330 C.3   182  TYR182      0.1639
    130  C         -1.0190    2.1650   79.6780 C.2   182  TYR182      0.2290
    131  O          0.0650    2.6310   80.0260 O.2   182  TYR182     -0.2864
    132  CB        -3.0030    3.4500   80.4880 C.3   182  TYR182      0.0560
    133  CG        -4.4580    3.3330   80.8800 C.ar  182  TYR182     -0.0198
    134  CD1       -5.1010    4.3620   81.5570 C.ar  182  TYR182     -0.0009
    135  CD2       -5.1920    2.1990   80.5600 C.ar  182  TYR182     -0.0009
    136  CE1       -6.4320    4.2580   81.9130 C.ar  182  TYR182      0.0417
    137  CE2       -6.5230    2.0880   80.9110 C.ar  182  TYR182      0.0417
    138  CZ        -7.1380    3.1200   81.5860 C.ar  182  TYR182      0.1957
    139  OH        -8.4650    3.0110   81.9360 O.3   182  TYR182     -0.2866
    140  N          5.9720    1.8870   84.1420 N.3   188  PHE188     -0.1241
    141  CA         5.6540    0.5690   83.6070 C.3   188  PHE188      0.1605
    142  C          6.1340    0.4520   82.1640 C.2   188  PHE188      0.2264
    143  O          5.4860    0.9460   81.2400 O.2   188  PHE188     -0.2867
    144  CB         4.1500    0.3060   83.6950 C.3   188  PHE188      0.0534
    145  CG         3.7840   -1.1490   83.6590 C.ar  188  PHE188     -0.0203
    146  CD1        3.9640   -1.9470   84.7760 C.ar  188  PHE188     -0.0042
    147  CD2        3.2490   -1.7160   82.5140 C.ar  188  PHE188     -0.0042
    148  CE1        3.6250   -3.2860   84.7500 C.ar  188  PHE188     -0.0003
    149  CE2        2.9060   -3.0560   82.4820 C.ar  188  PHE188     -0.0003
    150  CZ         3.0950   -3.8410   83.6020 C.ar  188  PHE188     -0.0000
    151  N          7.5140   -4.9280   80.2010 N.3   192  GLN192     -0.1245
    152  CA         6.6100   -5.4650   81.2090 C.3   192  GLN192      0.1566
    153  C          5.2190   -5.6760   80.6210 C.2   192  GLN192      0.2260
    154  O          4.5300   -6.6370   80.9650 O.2   192  GLN192     -0.2867
    155  CB         6.5440   -4.5370   82.4230 C.3   192  GLN192      0.0367
    156  CG         7.8290   -4.4930   83.2360 C.3   192  GLN192      0.0905
    157  CD         7.7540   -3.5230   84.3980 C.2   192  GLN192      0.2608
    158  OE1        7.5470   -2.3240   84.2100 O.2   192  GLN192     -0.2717
    159  NE2        7.9200   -4.0390   85.6100 N.am  192  GLN192     -0.0878
@<TRIPOS>BOND
     1   130   131    2
     2   130   129    1
     3   151   152    1
     4   132   129    1
     5   132   133    1
     6   135   133   ar
     7   135   137   ar
     8   153   154    2
     9   153   152    1
    10   129   128    1
    11   133   134   ar
    12   137   138   ar
    13   152   155    1
    14   143   142    2
    15   134   136   ar
    16   138   136   ar
    17   138   139    1
    18   124   123    2
    19   128   123   am
    20   119   120    1
    21   119   118    1
    22   142   141    1
    23   155   156    1
    24   123   122    1
    25   149   147   ar
    26   149   150   ar
    27   147   145   ar
    28   120   114    1
    29    31    32    1
    30    31    30    1
    31   118   115    1
    32   156   157    1
    33   117   116    2
    34   150   148   ar
    35   141   144    1
    36   141   140    1
    37   145   144    1
    38   145   146   ar
    39   105   104    1
    40    30    29    1
    41   122   125    1
    42   122   121    1
    43   116   115    1
    44   116   121   am
    45   113   111   ar
    46   114   115    1
    47   114   108   am
    48   158   157    2
    49   125   126    1
    50   121   127    1
    51   157   159   am
    52   102   104   ar
    53   102   100   ar
    54   104   103   ar
    55   148   146   ar
    56   107   108    1
    57   107   106    1
    58   107   110    1
    59   108   109    2
    60   127   126    1
    61    29    28    1
    62   111   110    1
    63   111   112   ar
    64   100    99   ar
    65   103   101   ar
    66    27    26    2
    67    28    25    1
    68    25    26    1
    69    25    24    1
    70    50    48   ar
    71    50    49   ar
    72    48    46   ar
    73   101    99   ar
    74    99    98    1
    75    21    20    1
    76    21    22    1
    77    49    47   ar
    78    46    45   ar
    79    20    17   am
    80    98    95    1
    81    47    45   ar
    82    22    23    2
    83    45    44    1
    84    19    16    1
    85    17    16    1
    86    17    18    2
    87    44    41    1
    88    38    39    1
    89    38    37    1
    90    96    97    2
    91    96    95    1
    92    95    94    1
    93    16    15    1
    94    39    33    1
    95    37    34    1
    96    93    92    1
    97    94    90   am
    98    40    41    1
    99    40    35   am
   100    41    42    1
   101    43    42    2
   102    33    34    1
   103    34    35    1
   104    15     3   am
   105    35    36    2
   106     4     3    2
   107    92    89    1
   108    90    89    1
   109    90    91    2
   110     3     2    1
   111    89    88    1
   112     7     9   ar
   113     7     6   ar
   114    69    67    1
   115     9    10   ar
   116     2     5    1
   117     2     1    1
   118    88    81   am
   119    67    68    1
   120    67    64    1
   121    68    70    1
   122    62    60   ar
   123    51    52    1
   124     6     5    1
   125     6     8   ar
   126    52    53    1
   127    82    81    2
   128    10     8   ar
   129    10    12   ar
   130    81    80    1
   131    63    64    1
   132    63    57   am
   133    60    61   ar
   134    60    59    1
   135     8    11   ar
   136    64    65    1
   137    56    57    1
   138    56    59    1
   139    56    55    1
   140    53    54    2
   141    12    14   ar
   142    57    58    2
   143    80    83    1
   144    80    79    1
   145    65    71   am
   146    65    66    2
   147    84    83    1
   148    84    85    1
   149    11    13   ar
   150    87    85   ar
   151    71    72    1
   152    14    13   ar
   153    85    86   ar
   154    75    72    1
   155    75    76    1
   156    78    76   am
   157    72    73    1
   158    76    77    2
   159    73    74    2
