@<TRIPOS>MOLECULE
tmp/4rtxD00.pdb
 75 72 0 0 0
SMALL
GASTEIGER

@<TRIPOS>ATOM
      1  N         46.8530  -39.8030    8.2200 N.3    13  GLU13      -0.1231
      2  CA        48.1130  -39.6770    8.9570 C.3    13  GLU13       0.1699
      3  C         49.2690  -39.4300    7.9770 C.2    13  GLU13       0.2592
      4  O         49.4640  -40.1500    7.0220 O.2    13  GLU13      -0.2718
      5  CB        48.3430  -40.9370    9.7960 C.3    13  GLU13       0.0402
      6  CG        49.5320  -40.8050   10.7420 C.3    13  GLU13       0.1161
      7  CD        49.4330  -39.5940   11.6750 C.2    13  GLU13       0.3649
      8  OE1       50.4540  -38.8920   11.8440 O.co2  13  GLU13      -0.2457
      9  OE2       48.3440  -39.3380   12.2470 O.co2  13  GLU13      -0.2457
     10  N         50.0330  -38.3750    8.1920 N.am   14  SER14      -0.1952
     11  CA        51.1580  -38.0830    7.2930 C.3    14  SER14       0.1924
     12  C         52.2120  -39.1900    7.2550 C.2    14  SER14       0.2314
     13  O         52.3870  -39.9270    8.2210 O.2    14  SER14      -0.2863
     14  CB        51.8220  -36.7610    7.7080 C.3    14  SER14       0.2116
     15  OG        52.3530  -36.8850    8.9970 O.3    14  SER14      -0.2180
     16  N         57.5720  -35.6360    5.0240 N.3    17  GLU17      -0.1231
     17  CA        57.8950  -34.3820    5.6960 C.3    17  GLU17       0.1699
     18  C         56.9850  -33.2330    5.2810 C.2    17  GLU17       0.2593
     19  O         56.9120  -32.2080    5.9570 O.2    17  GLU17      -0.2718
     20  CB        59.3520  -34.0210    5.3970 C.3    17  GLU17       0.0402
     21  CG        60.3190  -35.1310    5.8210 C.3    17  GLU17       0.1161
     22  CD        60.3320  -35.3870    7.3060 C.2    17  GLU17       0.3649
     23  OE1       60.0940  -34.4370    8.0960 O.co2  17  GLU17      -0.2457
     24  OE2       60.6110  -36.5570    7.6830 O.co2  17  GLU17      -0.2457
     25  N         56.2400  -33.4030    4.1940 N.am   18  THR18      -0.1939
     26  CA        55.5100  -32.3010    3.6110 C.3    18  THR18       0.2028
     27  C         53.9870  -32.4000    3.7370 C.2    18  THR18       0.2642
     28  O         53.3060  -31.4160    3.5680 O.2    18  THR18      -0.2714
     29  CB        55.8410  -32.1580    2.1050 C.3    18  THR18       0.1808
     30  OG1       55.4120  -33.3330    1.4050 O.3    18  THR18      -0.2208
     31  CG2       57.3330  -31.8980    1.8940 C.3    18  THR18       0.0379
     32  N         53.4940  -33.5700    4.0820 N.am   19  ASP19      -0.1957
     33  CA        52.0500  -33.7950    4.1490 C.3    19  ASP19       0.1840
     34  C         51.4810  -33.5720    5.5520 C.2    19  ASP19       0.2622
     35  O         52.1300  -33.7390    6.5660 O.2    19  ASP19      -0.2715
     36  CB        51.6850  -35.2110    3.6070 C.3    19  ASP19       0.1450
     37  CG        52.4630  -36.3570    4.2440 C.2    19  ASP19       0.3671
     38  OD1       53.6040  -36.1660    4.7160 O.co2  19  ASP19      -0.2456
     39  OD2       51.9120  -37.4940    4.2080 O.co2  19  ASP19      -0.2456
     40  N         50.2350  -33.1370    5.5650 N.am   20  LEU20      -0.1963
     41  CA        49.5270  -32.7390    6.7520 C.3    20  LEU20       0.1728
     42  C         48.7240  -33.8990    7.3090 C.2    20  LEU20       0.2616
     43  O         47.9760  -34.5070    6.5460 O.2    20  LEU20      -0.2715
     44  CB        48.5990  -31.5750    6.3590 C.3    20  LEU20       0.0311
     45  CG        47.6470  -31.0050    7.4040 C.3    20  LEU20       0.0022
     46  CD1       48.3910  -30.3160    8.5200 C.3    20  LEU20       0.0001
     47  CD2       46.7080  -30.0180    6.7220 C.3    20  LEU20       0.0001
     48  N         48.8070  -34.1700    8.6150 N.am   21  SER21      -0.1950
     49  CA        47.8490  -35.0790    9.2750 C.3    21  SER21       0.1924
     50  C         46.5540  -34.3250    9.6190 C.2    21  SER21       0.2314
     51  O         46.5930  -33.2190   10.1060 O.2    21  SER21      -0.2863
     52  CB        48.4680  -35.6330   10.5680 C.3    21  SER21       0.2116
     53  OG        49.6150  -36.4410   10.3030 O.3    21  SER21      -0.2180
     54  N         47.6080  -26.2130   11.5520 N.3    48  ARG48      -0.1231
     55  CA        48.7770  -26.7890   10.8640 C.3    48  ARG48       0.1694
     56  C         48.6440  -26.6310    9.3480 C.2    48  ARG48       0.2593
     57  O         47.5640  -26.4110    8.8440 O.2    48  ARG48      -0.2718
     58  CB        48.9550  -28.2390   11.2510 C.3    48  ARG48       0.0321
     59  CG        49.3180  -28.4180   12.7220 C.3    48  ARG48       0.0489
     60  CD        49.7750  -29.8340   13.0000 C.3    48  ARG48       0.2205
     61  NE        48.8680  -30.9190   12.6360 N.pl3  48  ARG48      -0.0865
     62  CZ        47.9180  -31.4140   13.4180 C.cat  48  ARG48       0.5346
     63  NH1       47.6540  -30.8590   14.5730 N.pl3  48  ARG48       0.1354
     64  NH2       47.1840  -32.4410   13.0080 N.pl3  48  ARG48       0.1354
     65  N         49.7690  -26.6280    8.6530 N.am   49  THR49      -0.1939
     66  CA        49.8410  -26.4520    7.2130 C.3    49  THR49       0.2028
     67  C         50.6270  -27.5760    6.5130 C.2    49  THR49       0.2642
     68  O         51.6760  -28.0050    7.0050 O.2    49  THR49      -0.2714
     69  CB        50.4900  -25.1220    6.8960 C.3    49  THR49       0.1808
     70  OG1       49.7340  -24.0330    7.4970 O.3    49  THR49      -0.2208
     71  CG2       50.5910  -24.9140    5.3870 C.3    49  THR49       0.0379
     72  N         50.1820  -27.9990    5.3270 N.am   50  GLY50      -0.1954
     73  CA        50.9040  -29.0040    4.5650 C.3    50  GLY50       0.1869
     74  C         50.0660  -29.5900    3.4320 C.2    50  GLY50       0.2309
     75  O         48.9220  -29.2120    3.2520 O.2    50  GLY50      -0.2863
@<TRIPOS>BOND
     1    30    29    1
     2    31    29    1
     3    29    26    1
     4    75    74    2
     5    74    73    1
     6    28    27    2
     7    36    33    1
     8    36    37    1
     9    26    27    1
    10    26    25    1
    11    27    32   am
    12    32    33    1
    13    33    34    1
    14    25    18   am
    15    39    37   ar
    16    37    38   ar
    17    73    72    1
    18    16    17    1
    19    18    17    1
    20    18    19    2
    21    72    67   am
    22    71    69    1
    23    20    17    1
    24    20    21    1
    25    34    40   am
    26    34    35    2
    27    40    41    1
    28    21    22    1
    29    44    41    1
    30    44    45    1
    31    67    68    2
    32    67    66    1
    33    43    42    2
    34    47    45    1
    35    41    42    1
    36    69    66    1
    37    69    70    1
    38     4     3    2
    39    66    65    1
    40    12    11    1
    41    12    13    2
    42    11    14    1
    43    11    10    1
    44    22    24   ar
    45    22    23   ar
    46    42    48   am
    47    45    46    1
    48    14    15    1
    49     3    10   am
    50     3     2    1
    51     1     2    1
    52    48    49    1
    53    65    56   am
    54    57    56    2
    55     2     5    1
    56    49    50    1
    57    49    52    1
    58    56    55    1
    59    50    51    2
    60     5     6    1
    61    53    52    1
    62     6     7    1
    63    55    58    1
    64    55    54    1
    65    58    59    1
    66     7     8   ar
    67     7     9   ar
    68    61    60    1
    69    61    62    2
    70    59    60    1
    71    64    62    1
    72    62    63    1
