@<TRIPOS>MOLECULE
tmp/4ru0A00.pdb
 150 153 0 0 0
SMALL
GASTEIGER

@<TRIPOS>ATOM
      1  N         -1.8430   33.5600   -2.9910 N.3    12  TYR12      -0.1241
      2  CA        -2.7640   34.4170   -3.7210 C.3    12  TYR12       0.1605
      3  C         -2.7510   34.0740   -5.2070 C.2    12  TYR12       0.2264
      4  O         -1.6920   34.0000   -5.8280 O.2    12  TYR12      -0.2867
      5  CB        -2.4390   35.9050   -3.5080 C.3    12  TYR12       0.0534
      6  CG        -0.9670   36.2650   -3.4930 C.ar   12  TYR12      -0.0201
      7  CD1       -0.2850   36.5520   -4.6710 C.ar   12  TYR12      -0.0009
      8  CD2       -0.2670   36.3560   -2.2950 C.ar   12  TYR12      -0.0009
      9  CE1        1.0570   36.8950   -4.6560 C.ar   12  TYR12       0.0417
     10  CE2        1.0730   36.6970   -2.2710 C.ar   12  TYR12       0.0417
     11  CZ         1.7310   36.9650   -3.4530 C.ar   12  TYR12       0.1957
     12  OH         3.0650   37.3000   -3.4270 O.3    12  TYR12      -0.2866
     13  N          5.7130   31.5150   -7.5850 N.3    24  VAL24      -0.1231
     14  CA         6.2250   31.1600   -6.2660 C.3    24  VAL24       0.1692
     15  C          5.5780   29.8810   -5.7260 C.2    24  VAL24       0.2592
     16  O          6.2730   28.9780   -5.2520 O.2    24  VAL24      -0.2718
     17  CB         5.9990   32.2880   -5.2410 C.3    24  VAL24       0.0266
     18  CG1        6.6310   31.9210   -3.9090 C.3    24  VAL24       0.0020
     19  CG2        6.5660   33.6040   -5.7550 C.3    24  VAL24       0.0020
     20  N          4.2500   29.8070   -5.7930 N.am   25  TRP25      -0.1976
     21  CA         3.5350   28.6510   -5.2540 C.3    25  TRP25       0.1640
     22  C          3.9230   27.3870   -6.0100 C.2    25  TRP25       0.2290
     23  O          4.1090   26.3260   -5.4070 O.2    25  TRP25      -0.2864
     24  CB         2.0130   28.8500   -5.3100 C.3    25  TRP25       0.0576
     25  CG         1.5250   30.2590   -5.0680 C.ar   25  TRP25       0.0006
     26  CD1        0.5060   30.8900   -5.7270 C.ar   25  TRP25       0.0946
     27  CD2        2.0280   31.2080   -4.1100 C.ar   25  TRP25       0.0152
     28  NE1        0.3430   32.1660   -5.2400 N.ar   25  TRP25      -0.2442
     29  CE2        1.2650   32.3860   -4.2500 C.ar   25  TRP25       0.0810
     30  CE3        3.0440   31.1750   -3.1480 C.ar   25  TRP25       0.0012
     31  CZ2        1.4880   33.5170   -3.4700 C.ar   25  TRP25       0.0191
     32  CZ3        3.2660   32.2990   -2.3800 C.ar   25  TRP25       0.0001
     33  CH2        2.4910   33.4540   -2.5430 C.ar   25  TRP25       0.0015
     34  N         -3.4450   38.3830   -0.9660 N.3    55  TRP55      -0.1241
     35  CA        -2.3590   39.3090   -0.6530 C.3    55  TRP55       0.1605
     36  C         -2.7290   40.2960    0.4750 C.2    55  TRP55       0.2264
     37  O         -2.0090   41.2680    0.7200 O.2    55  TRP55      -0.2867
     38  CB        -1.9420   40.0600   -1.9300 C.3    55  TRP55       0.0550
     39  CG        -0.6070   40.7500   -1.8650 C.ar   55  TRP55       0.0003
     40  CD1        0.6260   40.1710   -1.9840 C.ar   55  TRP55       0.0946
     41  CD2       -0.3760   42.1550   -1.6930 C.ar   55  TRP55       0.0152
     42  NE1        1.6100   41.1280   -1.8810 N.ar   55  TRP55      -0.2442
     43  CE2        1.0220   42.3540   -1.7030 C.ar   55  TRP55       0.0810
     44  CE3       -1.2150   43.2630   -1.5250 C.ar   55  TRP55       0.0012
     45  CZ2        1.5980   43.6180   -1.5520 C.ar   55  TRP55       0.0191
     46  CZ3       -0.6410   44.5160   -1.3750 C.ar   55  TRP55       0.0001
     47  CH2        0.7520   44.6820   -1.3900 C.ar   55  TRP55       0.0015
     48  N          3.5470   34.0790    3.7050 N.3    82  ASN82      -0.1225
     49  CA         3.7990   34.6090    2.3640 C.3    82  ASN82       0.1785
     50  C          3.1680   35.9870    2.1680 C.2    82  ASN82       0.2598
     51  O          2.4060   36.2060    1.2270 O.2    82  ASN82      -0.2718
     52  CB         3.2820   33.6430    1.2960 C.3    82  ASN82       0.1169
     53  CG         3.9550   32.2810    1.3610 C.2    82  ASN82       0.2627
     54  OD1        5.1630   32.1840    1.5660 O.2    82  ASN82      -0.2716
     55  ND2        3.1700   31.2190    1.1940 N.am   82  ASN82      -0.0877
     56  N          3.4860   36.9090    3.0680 N.am   83  GLY83      -0.1942
     57  CA         2.8470   38.2120    3.0850 C.3    83  GLY83       0.2014
     58  C          3.2300   39.0160    4.3130 C.2    83  GLY83       0.2639
     59  O          2.9930   38.5990    5.4470 O.2    83  GLY83      -0.2714
     60  N          3.8330   40.1740    4.0820 N.am   84  ALA84      -0.1963
     61  CA         4.3150   41.0280    5.1620 C.3    84  ALA84       0.1713
     62  C          3.2050   41.5120    6.1150 C.2    84  ALA84       0.2458
     63  O          3.3520   41.3710    7.3300 O.2    84  ALA84      -0.2730
     64  CB         5.0760   42.2100    4.5830 C.3    84  ALA84       0.0333
     65  N          2.0950   42.0720    5.5840 N.am   85  PRO85      -0.2727
     66  CA         1.0470   42.5270    6.5130 C.3    85  PRO85       0.1402
     67  C          0.4240   41.3930    7.3320 C.2    85  PRO85       0.2269
     68  O          0.1310   41.5770    8.5210 O.2    85  PRO85      -0.2865
     69  CB        -0.0040   43.1530    5.5850 C.3    85  PRO85       0.0296
     70  CG         0.7410   43.4930    4.3330 C.3    85  PRO85       0.0237
     71  CD         1.7510   42.4000    4.1880 C.3    85  PRO85       0.0939
     72  N         12.1630   38.7840    4.8390 N.3   106  TYR106     -0.1241
     73  CA        11.2310   39.8350    5.1750 C.3   106  TYR106      0.1605
     74  C         10.8140   39.6930    6.6230 C.2   106  TYR106      0.2264
     75  O         11.3290   38.8650    7.3020 O.2   106  TYR106     -0.2867
     76  CB        10.0680   39.9120    4.1880 C.3   106  TYR106      0.0534
     77  CG         8.9550   38.9150    4.3540 C.ar  106  TYR106     -0.0201
     78  CD1        9.0660   37.6380    3.8710 C.ar  106  TYR106     -0.0009
     79  CD2        7.7700   39.2810    4.9330 C.ar  106  TYR106     -0.0009
     80  CE1        8.0330   36.7430    3.9930 C.ar  106  TYR106      0.0417
     81  CE2        6.7390   38.3940    5.0670 C.ar  106  TYR106      0.0417
     82  CZ         6.8770   37.1260    4.5950 C.ar  106  TYR106      0.1957
     83  OH         5.8480   36.2640    4.7400 O.3   106  TYR106     -0.2866
     84  N         16.7940   42.6270    6.4750 N.3   126  PHE126     -0.1241
     85  CA        17.1990   43.8880    5.8680 C.3   126  PHE126      0.1605
     86  C         18.4300   44.4950    6.5400 C.2   126  PHE126      0.2264
     87  O         19.1950   45.2210    5.9000 O.2   126  PHE126     -0.2867
     88  CB        16.0350   44.8750    5.8970 C.3   126  PHE126      0.0534
     89  CG        14.8590   44.4380    5.0730 C.ar  126  PHE126     -0.0203
     90  CD1       15.0330   44.0200    3.7590 C.ar  126  PHE126     -0.0042
     91  CD2       13.5800   44.4170    5.6170 C.ar  126  PHE126     -0.0042
     92  CE1       13.9470   43.6060    2.9940 C.ar  126  PHE126     -0.0003
     93  CE2       12.4900   44.0000    4.8610 C.ar  126  PHE126     -0.0003
     94  CZ        12.6750   43.5960    3.5460 C.ar  126  PHE126     -0.0000
     95  N         11.5170   53.3960   -0.7170 N.3   157  HIS157     -0.1241
     96  CA        10.0780   53.5260   -0.5610 C.3   157  HIS157      0.1621
     97  C          9.7960   53.9800    0.8570 C.2   157  HIS157      0.2264
     98  O         10.2620   53.3630    1.8080 O.2   157  HIS157     -0.2867
     99  CB         9.3960   52.1910   -0.8630 C.3   157  HIS157      0.0745
    100  CG         7.9020   52.2630   -0.9170 C.ar  157  HIS157      0.0817
    101  ND1        7.1020   51.8900    0.1390 N.ar  157  HIS157     -0.2268
    102  CD2        7.0630   52.6450   -1.9100 C.ar  157  HIS157      0.1154
    103  CE1        5.8320   52.0460   -0.1950 C.ar  157  HIS157      0.1986
    104  NE2        5.7840   52.5080   -1.4350 N.ar  157  HIS157     -0.2212
    105  N          8.3080   53.6980    3.7300 N.3   159  SER159     -0.1217
    106  CA         7.4970   52.7100    4.4350 C.3   159  SER159      0.1889
    107  C          8.3980   52.0020    5.4380 C.2   159  SER159      0.2288
    108  O          9.6040   52.2460    5.4540 O.2   159  SER159     -0.2866
    109  CB         6.8740   51.7090    3.4620 C.3   159  SER159      0.2089
    110  OG         7.8790   51.0000    2.7510 O.3   159  SER159     -0.2183
    111  N          9.2850   49.0120    5.3750 N.3   161  TYR161     -0.1241
    112  CA        10.2080   48.2910    4.5030 C.3   161  TYR161      0.1605
    113  C         11.3880   49.1550    4.0640 C.2   161  TYR161      0.2264
    114  O         12.5210   48.6870    4.0530 O.2   161  TYR161     -0.2867
    115  CB         9.4650   47.7560    3.2750 C.3   161  TYR161      0.0534
    116  CG        10.3340   47.5660    2.0540 C.ar  161  TYR161     -0.0201
    117  CD1       11.1770   46.4660    1.9380 C.ar  161  TYR161     -0.0009
    118  CD2       10.2980   48.4760    1.0100 C.ar  161  TYR161     -0.0009
    119  CE1       11.9660   46.2880    0.8150 C.ar  161  TYR161      0.0417
    120  CE2       11.0760   48.3080   -0.1140 C.ar  161  TYR161      0.0417
    121  CZ        11.9100   47.2140   -0.2070 C.ar  161  TYR161      0.1957
    122  OH        12.6860   47.0560   -1.3280 O.3   161  TYR161     -0.2866
    123  N          9.7520   49.5140   -4.2120 N.3   212  TRP212     -0.1241
    124  CA         8.8980   48.3410   -4.2960 C.3   212  TRP212      0.1605
    125  C          7.7400   48.6130   -5.2440 C.2   212  TRP212      0.2264
    126  O          7.2270   49.7320   -5.3080 O.2   212  TRP212     -0.2867
    127  CB         8.3880   47.9510   -2.9070 C.3   212  TRP212      0.0550
    128  CG         7.2610   46.9810   -2.9420 C.ar  212  TRP212      0.0003
    129  CD1        7.3410   45.6310   -3.1420 C.ar  212  TRP212      0.0946
    130  CD2        5.8730   47.2840   -2.7760 C.ar  212  TRP212      0.0152
    131  NE1        6.0820   45.0760   -3.1100 N.ar  212  TRP212     -0.2442
    132  CE2        5.1640   46.0710   -2.8880 C.ar  212  TRP212      0.0810
    133  CE3        5.1610   48.4630   -2.5430 C.ar  212  TRP212      0.0012
    134  CZ2        3.7730   46.0040   -2.7750 C.ar  212  TRP212      0.0191
    135  CZ3        3.7790   48.3970   -2.4310 C.ar  212  TRP212      0.0001
    136  CH2        3.1000   47.1760   -2.5470 C.ar  212  TRP212      0.0015
    137  N         13.9060   42.6630   -2.9220 N.3   238  TRP238     -0.1241
    138  CA        12.5180   42.8310   -3.3380 C.3   238  TRP238      0.1605
    139  C         12.4020   43.8070   -4.5040 C.2   238  TRP238      0.2264
    140  O         11.3360   44.3530   -4.7740 O.2   238  TRP238     -0.2867
    141  CB        11.6650   43.2810   -2.1500 C.3   238  TRP238      0.0550
    142  CG        11.7230   42.2680   -1.0640 C.ar  238  TRP238      0.0003
    143  CD1       12.3900   42.3710    0.1130 C.ar  238  TRP238      0.0946
    144  CD2       11.1320   40.9660   -1.0820 C.ar  238  TRP238      0.0152
    145  NE1       12.2350   41.2210    0.8450 N.ar  238  TRP238     -0.2442
    146  CE2       11.4660   40.3420    0.1310 C.ar  238  TRP238      0.0810
    147  CE3       10.3400   40.2730   -2.0030 C.ar  238  TRP238      0.0012
    148  CZ2       11.0420   39.0520    0.4500 C.ar  238  TRP238      0.0191
    149  CZ3        9.9190   38.9930   -1.6870 C.ar  238  TRP238      0.0001
    150  CH2       10.2700   38.3970   -0.4710 C.ar  238  TRP238      0.0015
@<TRIPOS>BOND
     1    13    14    1
     2    14    15    1
     3    14    17    1
     4    22    23    2
     5    22    21    1
     6     4     3    2
     7    20    15   am
     8    20    21    1
     9    19    17    1
    10    26    28   ar
    11    26    25   ar
    12    15    16    2
    13    24    21    1
    14    24    25    1
    15   126   125    2
    16   125   124    1
    17    17    18    1
    18    28    29   ar
    19     3     2    1
    20    25    27   ar
    21   140   139    2
    22     7     9   ar
    23     7     6   ar
    24     9    11   ar
    25   139   138    1
    26   124   123    1
    27   124   127    1
    28    29    27   ar
    29    29    31   ar
    30    27    30   ar
    31     2     5    1
    32     2     1    1
    33     5     6    1
    34     6     8   ar
    35    31    33   ar
    36    11    12    1
    37    11    10   ar
    38   138   137    1
    39   138   141    1
    40    30    32   ar
    41   129   131   ar
    42   129   128   ar
    43   131   132   ar
    44   128   127    1
    45   128   130   ar
    46   132   130   ar
    47   132   134   ar
    48   130   133   ar
    49   134   136   ar
    50   136   135   ar
    51    33    32   ar
    52   133   135   ar
    53     8    10   ar
    54   141   142    1
    55   147   149   ar
    56   147   144   ar
    57    40    42   ar
    58    40    39   ar
    59    38    39    1
    60    38    35    1
    61   102   104   ar
    62   102   100   ar
    63    42    43   ar
    64    39    41   ar
    65    43    41   ar
    66    43    45   ar
    67    41    44   ar
    68   149   150   ar
    69    45    47   ar
    70    44    46   ar
    71   104   103   ar
    72    47    46   ar
    73   122   121    1
    74   144   142   ar
    75   144   146   ar
    76   142   143   ar
    77    34    35    1
    78   100    99    1
    79   100   101   ar
    80    99    96    1
    81    95    96    1
    82    35    36    1
    83    96    97    1
    84   150   148   ar
    85   121   120   ar
    86   121   119   ar
    87   103   101   ar
    88   120   118   ar
    89   143   145   ar
    90   146   148   ar
    91   146   145   ar
    92    36    37    2
    93   119   117   ar
    94    97    98    2
    95   118   116   ar
    96    55    53   am
    97    51    50    2
    98    52    53    1
    99    52    49    1
   100    53    54    2
   101   117   116   ar
   102   116   115    1
   103    50    49    1
   104    50    56   am
   105    49    48    1
   106   110   109    1
   107    92    94   ar
   108    92    90   ar
   109    56    57    1
   110    57    58    1
   111   115   112    1
   112   109   106    1
   113    94    93   ar
   114   105   106    1
   115    90    89   ar
   116    78    80   ar
   117    78    77   ar
   118    80    82   ar
   119   114   113    2
   120   113   112    1
   121    60    58   am
   122    60    61    1
   123    71    70    1
   124    71    65    1
   125    76    77    1
   126    76    73    1
   127    58    59    2
   128    70    69    1
   129    77    79   ar
   130   106   107    1
   131   112   111    1
   132    64    61    1
   133    82    83    1
   134    82    81   ar
   135    72    73    1
   136    93    91   ar
   137    79    81   ar
   138    89    91   ar
   139    89    88    1
   140    61    62    1
   141    73    74    1
   142   107   108    2
   143    65    62   am
   144    65    66    1
   145    69    66    1
   146    85    88    1
   147    85    84    1
   148    85    86    1
   149    87    86    2
   150    62    63    2
   151    66    67    1
   152    74    75    2
   153    67    68    2
