@<TRIPOS>MOLECULE
tmp/4ru0B00.pdb
 143 145 0 0 0
SMALL
GASTEIGER

@<TRIPOS>ATOM
      1  N         71.1740   75.5670  -12.9000 N.3    12  TYR12      -0.1241
      2  CA        70.9090   76.8210  -12.2080 C.3    12  TYR12       0.1605
      3  C         71.1210   76.6570  -10.7070 C.2    12  TYR12       0.2264
      4  O         70.6090   75.7180  -10.0910 O.2    12  TYR12      -0.2867
      5  CB        69.4900   77.3280  -12.5040 C.3    12  TYR12       0.0534
      6  CG        68.4140   76.2630  -12.4960 C.ar   12  TYR12      -0.0201
      7  CD1       67.8230   75.8520  -11.3090 C.ar   12  TYR12      -0.0009
      8  CD2       67.9730   75.6850  -13.6800 C.ar   12  TYR12      -0.0009
      9  CE1       66.8360   74.8800  -11.2980 C.ar   12  TYR12       0.0417
     10  CE2       66.9870   74.7170  -13.6810 C.ar   12  TYR12       0.0417
     11  CZ        66.4220   74.3180  -12.4880 C.ar   12  TYR12       0.1957
     12  OH        65.4410   73.3520  -12.4880 O.3    12  TYR12      -0.2866
     13  N         69.0460   68.0780   -8.3120 N.3    24  VAL24      -0.1231
     14  CA        69.0970   67.4480   -9.6280 C.3    24  VAL24       0.1692
     15  C         70.5350   67.3150  -10.1410 C.2    24  VAL24       0.2592
     16  O         70.9530   66.2300  -10.5510 O.2    24  VAL24      -0.2718
     17  CB        68.2630   68.2360  -10.6650 C.3    24  VAL24       0.0266
     18  CG1       68.3210   67.5540  -12.0280 C.3    24  VAL24       0.0020
     19  CG2       66.8220   68.3790  -10.1930 C.3    24  VAL24       0.0020
     20  N         71.2870   68.4130  -10.1140 N.am   25  TRP25      -0.1976
     21  CA        72.6500   68.4030  -10.6360 C.3    25  TRP25       0.1640
     22  C         73.5180   67.4020   -9.8760 C.2    25  TRP25       0.2290
     23  O         74.3010   66.6600  -10.4770 O.2    25  TRP25      -0.2864
     24  CB        73.2830   69.8000  -10.5690 C.3    25  TRP25       0.0576
     25  CG        72.3380   70.9600  -10.7610 C.ar   25  TRP25       0.0006
     26  CD1       72.3410   72.1330  -10.0600 C.ar   25  TRP25       0.0946
     27  CD2       71.2590   71.0640  -11.7080 C.ar   25  TRP25       0.0152
     28  NE1       71.3370   72.9600  -10.5090 N.ar   25  TRP25      -0.2442
     29  CE2       70.6560   72.3260  -11.5150 C.ar   25  TRP25       0.0810
     30  CE3       70.7430   70.2150  -12.6940 C.ar   25  TRP25       0.0012
     31  CZ2       69.5660   72.7560  -12.2720 C.ar   25  TRP25       0.0191
     32  CZ3       69.6650   70.6420  -13.4380 C.ar   25  TRP25       0.0001
     33  CH2       69.0870   71.9010  -13.2240 C.ar   25  TRP25       0.0015
     34  N         67.7030   79.5120  -14.9420 N.3    55  TRP55      -0.1241
     35  CA        66.3670   79.0160  -15.2610 C.3    55  TRP55       0.1605
     36  C         65.6960   79.8060  -16.4040 C.2    55  TRP55       0.2264
     37  O         64.4980   79.6610  -16.6520 O.2    55  TRP55      -0.2867
     38  CB        65.5030   79.0380  -13.9920 C.3    55  TRP55       0.0550
     39  CG        64.2650   78.2040  -14.0490 C.ar   55  TRP55       0.0003
     40  CD1       64.1810   76.8460  -13.9290 C.ar   55  TRP55       0.0946
     41  CD2       62.9210   78.6770  -14.2120 C.ar   55  TRP55       0.0152
     42  NE1       62.8690   76.4430  -14.0230 N.ar   55  TRP55      -0.2442
     43  CE2       62.0760   77.5480  -14.1970 C.ar   55  TRP55       0.0810
     44  CE3       62.3530   79.9450  -14.3780 C.ar   55  TRP55       0.0012
     45  CZ2       60.6920   77.6500  -14.3390 C.ar   55  TRP55       0.0191
     46  CZ3       60.9770   80.0430  -14.5190 C.ar   55  TRP55       0.0001
     47  CH2       60.1640   78.9020  -14.4990 C.ar   55  TRP55       0.0015
     48  N         67.9040   71.2010  -19.5750 N.3    82  ASN82      -0.1225
     49  CA        67.2780   71.2580  -18.2480 C.3    82  ASN82       0.1785
     50  C         66.4320   72.5220  -18.0760 C.2    82  ASN82       0.2598
     51  O         66.6760   73.3280  -17.1730 O.2    82  ASN82      -0.2718
     52  CB        68.3370   71.1890  -17.1410 C.3    82  ASN82       0.1169
     53  CG        69.2160   69.9400  -17.2360 C.2    82  ASN82       0.2627
     54  OD1       68.7230   68.8230  -17.4010 O.2    82  ASN82      -0.2716
     55  ND2       70.5230   70.1310  -17.1300 N.am   82  ASN82      -0.0877
     56  N         65.4560   72.7000  -18.9620 N.am   83  GLY83      -0.1942
     57  CA        64.6150   73.8900  -18.9560 C.3    83  GLY83       0.2014
     58  C         63.7310   73.9940  -20.1900 C.2    83  GLY83       0.2638
     59  O         64.2240   74.0100  -21.3170 O.2    83  GLY83      -0.2714
     60  N         62.4220   74.0610  -19.9780 N.am   84  ALA84      -0.1977
     61  CA        61.4630   74.0760  -21.0810 C.3    84  ALA84       0.1597
     62  C         61.5870   75.2970  -22.0090 C.2    84  ALA84       0.2287
     63  O         61.6130   75.1250  -23.2300 O.2    84  ALA84      -0.2864
     64  CB        60.0380   73.9630  -20.5380 C.3    84  ALA84       0.0319
     65  N         59.5410   66.1150  -20.7330 N.3   106  TYR106     -0.1241
     66  CA        58.9390   67.3820  -21.1410 C.3   106  TYR106      0.1605
     67  C         59.3140   67.7150  -22.5840 C.2   106  TYR106      0.2264
     68  O         59.8320   66.8700  -23.3050 O.2   106  TYR106     -0.2867
     69  CB        59.3530   68.5180  -20.1900 C.3   106  TYR106      0.0534
     70  CG        60.8020   68.9780  -20.2820 C.ar  106  TYR106     -0.0201
     71  CD1       61.8330   68.2340  -19.7190 C.ar  106  TYR106     -0.0009
     72  CD2       61.1290   70.1810  -20.9040 C.ar  106  TYR106     -0.0009
     73  CE1       63.1500   68.6610  -19.7890 C.ar  106  TYR106      0.0417
     74  CE2       62.4460   70.6160  -20.9850 C.ar  106  TYR106      0.0417
     75  CZ        63.4520   69.8510  -20.4230 C.ar  106  TYR106      0.1957
     76  OH        64.7550   70.2860  -20.5020 O.3   106  TYR106     -0.2866
     77  N         53.8180   64.0370  -22.4380 N.3   126  PHE126     -0.1241
     78  CA        52.5430   64.3250  -21.7900 C.3   126  PHE126      0.1605
     79  C         51.3850   63.5600  -22.4340 C.2   126  PHE126      0.2264
     80  O         50.3850   63.2690  -21.7800 O.2   126  PHE126     -0.2867
     81  CB        52.2820   65.8270  -21.8070 C.3   126  PHE126      0.0534
     82  CG        53.2660   66.6100  -20.9910 C.ar  126  PHE126     -0.0203
     83  CD1       53.5710   66.2220  -19.6910 C.ar  126  PHE126     -0.0042
     84  CD2       53.9070   67.7230  -21.5260 C.ar  126  PHE126     -0.0042
     85  CE1       54.4890   66.9390  -18.9320 C.ar  126  PHE126     -0.0003
     86  CE2       54.8220   68.4440  -20.7730 C.ar  126  PHE126     -0.0003
     87  CZ        55.1150   68.0510  -19.4740 C.ar  126  PHE126     -0.0000
     88  N         47.1580   74.0300  -15.1830 N.3   157  HIS157     -0.1241
     89  CA        47.7740   75.3400  -15.3510 C.3   157  HIS157      0.1621
     90  C         47.5490   75.8110  -16.7780 C.2   157  HIS157      0.2264
     91  O         47.8870   75.1040  -17.7240 O.2   157  HIS157     -0.2867
     92  CB        49.2660   75.2580  -15.0290 C.3   157  HIS157      0.0745
     93  CG        49.9490   76.5880  -14.9510 C.ar  157  HIS157      0.0817
     94  ND1       50.7140   77.0900  -15.9810 N.ar  157  HIS157     -0.2268
     95  CD2       49.9940   77.5080  -13.9600 C.ar  157  HIS157      0.1154
     96  CE1       51.1940   78.2700  -15.6310 C.ar  157  HIS157      0.1986
     97  NE2       50.7690   78.5490  -14.4100 N.ar  157  HIS157     -0.2212
     98  N         48.4990   76.9480  -19.6770 N.3   159  SER159     -0.1217
     99  CA        49.7570   77.1670  -20.3790 C.3   159  SER159      0.1889
    100  C         49.9440   76.0270  -21.3600 C.2   159  SER159      0.2288
    101  O         49.1540   75.0860  -21.3560 O.2   159  SER159     -0.2866
    102  CB        50.9300   77.2360  -19.3990 C.3   159  SER159      0.2089
    103  OG        51.0260   76.0370  -18.6450 O.3   159  SER159     -0.2183
    104  N         52.0980   73.7370  -21.3010 N.3   161  TYR161     -0.1241
    105  CA        52.2640   72.5550  -20.4540 C.3   161  TYR161      0.1605
    106  C         50.9200   71.9770  -20.0090 C.2   161  TYR161      0.2264
    107  O         50.7270   70.7690  -20.0390 O.2   161  TYR161     -0.2867
    108  CB        53.1250   72.9030  -19.2360 C.3   161  TYR161      0.0534
    109  CG        52.8530   72.0810  -17.9940 C.ar  161  TYR161     -0.0201
    110  CD1       53.3760   70.8050  -17.8510 C.ar  161  TYR161     -0.0009
    111  CD2       52.0990   72.5990  -16.9490 C.ar  161  TYR161     -0.0009
    112  CE1       53.1380   70.0580  -16.7080 C.ar  161  TYR161      0.0417
    113  CE2       51.8570   71.8660  -15.8050 C.ar  161  TYR161      0.0417
    114  CZ        52.3740   70.5930  -15.6870 C.ar  161  TYR161      0.1957
    115  OH        52.1290   69.8550  -14.5460 O.3   161  TYR161     -0.2866
    116  N         51.4190   73.4690  -11.5810 N.3   212  TRP212     -0.1241
    117  CA        52.8630   73.6360  -11.5100 C.3   212  TRP212      0.1605
    118  C         53.2270   74.8320  -10.6430 C.2   212  TRP212      0.2264
    119  O         52.5510   75.8610  -10.6700 O.2   212  TRP212     -0.2867
    120  CB        53.4540   73.8050  -12.9110 C.3   212  TRP212      0.0550
    121  CG        54.8710   74.2680  -12.8890 C.ar  212  TRP212      0.0003
    122  CD1       55.9860   73.5030  -12.6860 C.ar  212  TRP212      0.0946
    123  CD2       55.3310   75.6120  -13.0650 C.ar  212  TRP212      0.0152
    124  NE1       57.1120   74.2920  -12.7300 N.ar  212  TRP212     -0.2442
    125  CE2       56.7360   75.5910  -12.9610 C.ar  212  TRP212      0.0810
    126  CE3       54.6900   76.8310  -13.3050 C.ar  212  TRP212      0.0012
    127  CZ2       57.5110   76.7440  -13.0880 C.ar  212  TRP212      0.0191
    128  CZ3       55.4590   77.9740  -13.4300 C.ar  212  TRP212      0.0001
    129  CH2       56.8550   77.9230  -13.3220 C.ar  212  TRP212      0.0015
    130  N         55.2680   66.5410  -12.9980 N.3   238  TRP238     -0.1241
    131  CA        55.8400   67.8220  -12.6050 C.3   238  TRP238      0.1605
    132  C         55.0900   68.4240  -11.4230 C.2   238  TRP238      0.2264
    133  O         55.2240   69.6090  -11.1210 O.2   238  TRP238     -0.2867
    134  CB        55.8530   68.7740  -13.8010 C.3   238  TRP238      0.0550
    135  CG        56.7240   68.2420  -14.8820 C.ar  238  TRP238      0.0003
    136  CD1       56.3290   67.7420  -16.0800 C.ar  238  TRP238      0.0946
    137  CD2       58.1500   68.1110  -14.8390 C.ar  238  TRP238      0.0152
    138  NE1       57.4220   67.3270  -16.8030 N.ar  238  TRP238     -0.2442
    139  CE2       58.5520   67.5410  -16.0600 C.ar  238  TRP238      0.0810
    140  CE3       59.1260   68.4280  -13.8880 C.ar  238  TRP238      0.0012
    141  CZ2       59.8910   67.2770  -16.3570 C.ar  238  TRP238      0.0191
    142  CZ3       60.4530   68.1680  -14.1840 C.ar  238  TRP238      0.0001
    143  CH2       60.8230   67.5970  -15.4090 C.ar  238  TRP238      0.0015
@<TRIPOS>BOND
     1    68    67    2
     2    63    62    2
     3    67    66    1
     4    77    78    1
     5    79    78    1
     6    79    80    2
     7    62    61    1
     8    81    78    1
     9    81    82    1
    10    84    82   ar
    11    84    86   ar
    12   100   101    2
    13   100    99    1
    14    59    58    2
    15   104   105    1
    16    66    65    1
    17    66    69    1
    18    61    64    1
    19    61    60    1
    20    82    83   ar
    21    74    72   ar
    22    74    75   ar
    23    72    70   ar
    24    86    87   ar
    25    76    75    1
    26   105   106    1
    27   105   108    1
    28    75    73   ar
    29    99    98    1
    30    99   102    1
    31    70    69    1
    32    70    71   ar
    33    58    60   am
    34    58    57    1
    35   107   106    2
    36    73    71   ar
    37    83    85   ar
    38    48    49    1
    39    87    85   ar
    40   102   103    1
    41   108   109    1
    42    56    57    1
    43    56    50   am
    44    49    50    1
    45    49    52    1
    46    50    51    2
    47   109   110   ar
    48   109   111   ar
    49   110   112   ar
    50    91    90    2
    51    54    53    2
    52    53    52    1
    53    53    55   am
    54   111   113   ar
    55   138   136   ar
    56   138   139   ar
    57    90    89    1
    58   112   114   ar
    59    37    36    2
    60    36    35    1
    61   141   139   ar
    62   141   143   ar
    63   136   135   ar
    64   139   137   ar
    65    94    96   ar
    66    94    93   ar
    67   113   114   ar
    68   114   115    1
    69    96    97   ar
    70   143   142   ar
    71    89    88    1
    72    89    92    1
    73    35    34    1
    74    35    38    1
    75    92    93    1
    76    93    95   ar
    77   135   137   ar
    78   135   134    1
    79   137   140   ar
    80    46    47   ar
    81    46    44   ar
    82    47    45   ar
    83    97    95   ar
    84    44    41   ar
    85    45    43   ar
    86    41    43   ar
    87    41    39   ar
    88    43    42   ar
    89   142   140   ar
    90    39    38    1
    91    39    40   ar
    92    42    40   ar
    93   134   131    1
    94    10     8   ar
    95    10    11   ar
    96     8     6   ar
    97    32    33   ar
    98    32    30   ar
    99   128   129   ar
   100   128   126   ar
   101   129   127   ar
   102   126   123   ar
   103    33    31   ar
   104   127   125   ar
   105   123   125   ar
   106   123   121   ar
   107   130   131    1
   108   125   124   ar
   109   120   121    1
   110   120   117    1
   111     1     2    1
   112   121   122   ar
   113   124   122   ar
   114    30    27   ar
   115   131   132    1
   116     5     6    1
   117     5     2    1
   118     6     7   ar
   119    12    11    1
   120    11     9   ar
   121    31    29   ar
   122     2     3    1
   123    18    17    1
   124    27    29   ar
   125    27    25   ar
   126   116   117    1
   127    29    28   ar
   128   117   118    1
   129   132   133    2
   130     7     9   ar
   131    25    24    1
   132    25    26   ar
   133     3     4    2
   134   119   118    2
   135    17    19    1
   136    17    14    1
   137    21    24    1
   138    21    20    1
   139    21    22    1
   140    16    15    2
   141    28    26   ar
   142    23    22    2
   143    15    20   am
   144    15    14    1
   145    14    13    1
