@<TRIPOS>MOLECULE
tmp/4ru1B00.pdb
 144 136 0 0 0
SMALL
GASTEIGER

@<TRIPOS>ATOM
      1  N         40.8160   71.5870   89.7160 N.3    12  HIS12      -0.1226
      2  CA        40.6410   70.6810   90.8330 C.3    12  HIS12       0.1752
      3  C         41.9090   70.7110   91.7710 C.2    12  HIS12       0.2595
      4  O         42.1370   69.7890   92.5630 O.2    12  HIS12      -0.2718
      5  CB        40.3860   69.2870   90.2900 C.3    12  HIS12       0.0759
      6  CG        41.5040   68.7710   89.4360 C.ar   12  HIS12       0.0818
      7  ND1       41.5810   69.0890   88.0930 N.ar   12  HIS12      -0.2268
      8  CD2       42.6300   68.0780   89.7200 C.ar   12  HIS12       0.1154
      9  CE1       42.6660   68.5570   87.5810 C.ar   12  HIS12       0.1986
     10  NE2       43.3110   67.9180   88.5510 N.ar   12  HIS12      -0.2212
     11  N         42.7510   71.7440   91.6400 N.am   13  GLN13      -0.1979
     12  CA        43.9730   71.8660   92.3860 C.3    13  GLN13       0.1601
     13  C         43.7510   71.6920   93.8760 C.2    13  GLN13       0.2287
     14  O         42.8820   72.3600   94.4300 O.2    13  GLN13      -0.2864
     15  CB        44.5410   73.2600   92.1290 C.3    13  GLN13       0.0394
     16  CG        45.6560   73.6520   93.1050 C.3    13  GLN13       0.0908
     17  CD        46.2070   75.0470   92.9070 C.2    13  GLN13       0.2608
     18  OE1       45.7290   75.8160   92.1580 O.2    13  GLN13      -0.2717
     19  NE2       47.3170   75.3180   93.5660 N.am   13  GLN13      -0.0878
     20  N         49.6390   71.9650   95.9700 N.3    17  ASP17      -0.1239
     21  CA        50.1240   71.2650   94.7750 C.3    17  ASP17       0.1674
     22  C         50.6860   72.2660   93.7550 C.2    17  ASP17       0.2266
     23  O         49.9220   72.9590   93.0080 O.2    17  ASP17      -0.2867
     24  CB        48.9970   70.4440   94.1040 C.3    17  ASP17       0.1410
     25  CG        49.4790   69.5650   92.9630 C.2    17  ASP17       0.3668
     26  OD1       50.6260   69.7230   92.4990 O.co2  17  ASP17      -0.2456
     27  OD2       48.6310   68.7380   92.4900 O.co2  17  ASP17      -0.2456
     28  N         52.2580   71.9410   90.9550 N.3    19  PHE19      -0.1227
     29  CA        52.0940   71.7510   89.5010 C.3    19  PHE19       0.1736
     30  C         51.2560   72.9240   88.9420 C.2    19  PHE19       0.2595
     31  O         51.4120   73.4040   87.8380 O.2    19  PHE19      -0.2718
     32  CB        51.3600   70.4070   89.3120 C.3    19  PHE19       0.0547
     33  CG        50.8460   70.1910   87.9530 C.ar   19  PHE19      -0.0202
     34  CD1       51.7470   69.7590   86.9650 C.ar   19  PHE19      -0.0042
     35  CD2       49.5340   70.4640   87.6020 C.ar   19  PHE19      -0.0042
     36  CE1       51.3260   69.5060   85.7140 C.ar   19  PHE19      -0.0003
     37  CE2       49.1270   70.2950   86.3130 C.ar   19  PHE19      -0.0003
     38  CZ        50.0390   69.8030   85.3890 C.ar   19  PHE19      -0.0000
     39  N         50.2610   73.3190   89.7120 N.am   20  TRP20      -0.1976
     40  CA        49.3270   74.3140   89.2900 C.3    20  TRP20       0.1640
     41  C         49.8890   75.6990   89.1780 C.2    20  TRP20       0.2290
     42  O         49.3100   76.5340   88.4530 O.2    20  TRP20      -0.2864
     43  CB        48.0620   74.2700   90.1420 C.3    20  TRP20       0.0576
     44  CG        47.3870   72.9740   89.9110 C.ar   20  TRP20       0.0006
     45  CD1       47.5450   71.8070   90.6480 C.ar   20  TRP20       0.0946
     46  CD2       46.5230   72.5880   88.7930 C.ar   20  TRP20       0.0152
     47  NE1       46.8160   70.7990   90.1180 N.ar   20  TRP20      -0.2442
     48  CE2       46.1920   71.2290   88.9730 C.ar   20  TRP20       0.0810
     49  CE3       46.0060   73.2590   87.6890 C.ar   20  TRP20       0.0012
     50  CZ2       45.3900   70.5480   88.1020 C.ar   20  TRP20       0.0191
     51  CZ3       45.1930   72.6080   86.8320 C.ar   20  TRP20       0.0001
     52  CH2       44.8880   71.2330   87.0090 C.ar   20  TRP20       0.0015
     53  N         43.7100   69.7270   80.8490 N.3    92  ASN92      -0.1240
     54  CA        44.3720   68.9250   81.8680 C.3    92  ASN92       0.1653
     55  C         43.7420   67.5610   82.2640 C.2    92  ASN92       0.2266
     56  O         44.4600   66.5620   82.2570 O.2    92  ASN92      -0.2867
     57  CB        44.7270   69.7630   83.1130 C.3    92  ASN92       0.1155
     58  CG        45.5010   68.9550   84.1530 C.2    92  ASN92       0.2627
     59  OD1       44.9010   68.3990   85.0430 O.2    92  ASN92      -0.2716
     60  ND2       46.8150   68.9170   84.0400 N.am   92  ASN92      -0.0877
     61  N         46.4390   60.4750   78.6400 N.3   111  GLU111     -0.1245
     62  CA        47.0600   59.8550   79.7970 C.3   111  GLU111      0.1567
     63  C         47.0980   58.3500   79.6590 C.2   111  GLU111      0.2260
     64  O         47.9710   57.7040   80.2490 O.2   111  GLU111     -0.2867
     65  CB        46.3220   60.2430   81.0600 C.3   111  GLU111      0.0388
     66  CG        46.2630   61.7490   81.3250 C.3   111  GLU111      0.1160
     67  CD        47.6380   62.3640   81.5850 C.2   111  GLU111      0.3649
     68  OE1       48.6550   61.6850   81.4850 O.co2 111  GLU111     -0.2457
     69  OE2       47.7240   63.5780   81.9510 O.co2 111  GLU111     -0.2457
     70  N         47.9060   60.1850   94.1580 N.3   135  GLN135     -0.1245
     71  CA        47.7150   61.1210   95.2470 C.3   135  GLN135      0.1566
     72  C         46.2950   61.6250   95.5340 C.2   135  GLN135      0.2260
     73  O         46.0320   62.4940   96.3660 O.2   135  GLN135     -0.2867
     74  CB        48.6950   62.3320   95.0030 C.3   135  GLN135      0.0367
     75  CG        48.2990   63.2330   93.8140 C.3   135  GLN135      0.0905
     76  CD        48.9390   62.8690   92.4800 C.2   135  GLN135      0.2608
     77  OE1       49.2540   61.7320   92.2330 O.2   135  GLN135     -0.2717
     78  NE2       49.1250   63.8560   91.6160 N.am  135  GLN135     -0.0878
     79  N         39.9520   60.2890   90.2530 N.3   139  GLN139     -0.1245
     80  CA        40.3820   61.3270   89.2630 C.3   139  GLN139      0.1566
     81  C         40.7460   60.6330   87.9680 C.2   139  GLN139      0.2260
     82  O         41.6940   59.8310   87.9810 O.2   139  GLN139     -0.2867
     83  CB        41.5220   62.2280   89.8020 C.3   139  GLN139      0.0367
     84  CG        41.0600   63.1120   91.0110 C.3   139  GLN139      0.0905
     85  CD        41.8760   64.3540   91.2480 C.2   139  GLN139      0.2608
     86  OE1       42.8380   64.5400   90.5900 O.2   139  GLN139     -0.2717
     87  NE2       41.6460   65.0680   92.3850 N.am  139  GLN139     -0.0878
     88  N         42.1470   61.3360   85.1520 N.3   141  GLN141     -0.1231
     89  CA        43.4490   61.4930   84.5590 C.3   141  GLN141      0.1698
     90  C         44.5430   60.6970   85.2350 C.2   141  GLN141      0.2592
     91  O         45.4900   60.2590   84.6100 O.2   141  GLN141     -0.2718
     92  CB        43.8900   62.9580   84.4800 C.3   141  GLN141      0.0381
     93  CG        44.3210   63.6660   85.7270 C.3   141  GLN141      0.0905
     94  CD        43.2970   63.9360   86.8140 C.2   141  GLN141      0.2608
     95  OE1       42.1350   63.6020   86.7370 O.2   141  GLN141     -0.2717
     96  NE2       43.7920   64.6000   87.8940 N.am  141  GLN141     -0.0878
     97  N         44.3970   60.4870   86.5240 N.am  142  LEU142     -0.1980
     98  CA        45.3200   59.6610   87.3080 C.3   142  LEU142      0.1596
     99  C         45.0410   58.2140   87.0670 C.2   142  LEU142      0.2287
    100  O         45.9500   57.4390   86.8420 O.2   142  LEU142     -0.2864
    101  CB        45.2990   59.9890   88.8100 C.3   142  LEU142      0.0297
    102  CG        45.5220   61.4530   89.1840 C.3   142  LEU142      0.0022
    103  CD1       45.5620   61.5550   90.7010 C.3   142  LEU142      0.0001
    104  CD2       46.8090   62.0270   88.6450 C.3   142  LEU142      0.0001
    105  N         46.3490   56.9700   83.6310 N.3   145  ARG145     -0.1245
    106  CA        47.7710   56.7040   83.6240 C.3   145  ARG145      0.1563
    107  C         48.0870   55.2910   84.1020 C.2   145  ARG145      0.2260
    108  O         48.8150   54.5530   83.4910 O.2   145  ARG145     -0.2867
    109  CB        48.5690   57.7450   84.4800 C.3   145  ARG145      0.0307
    110  CG        48.6090   59.1180   83.9290 C.3   145  ARG145      0.0489
    111  CD        49.1810   60.1160   84.8610 C.3   145  ARG145      0.2205
    112  NE        49.1550   61.3930   84.2110 N.pl3 145  ARG145     -0.0865
    113  CZ        49.5110   62.5020   84.8250 C.cat 145  ARG145      0.5346
    114  NH1       49.9510   62.4650   86.1130 N.pl3 145  ARG145      0.1354
    115  NH2       49.4900   63.6870   84.1880 N.pl3 145  ARG145      0.1354
    116  N         52.8090   60.1380   90.1060 N.3   190  LEU190     -0.1231
    117  CA        51.9850   60.8310   89.1130 C.3   190  LEU190      0.1693
    118  C         52.0650   62.3220   89.2970 C.2   190  LEU190      0.2592
    119  O         51.2660   63.0760   88.7160 O.2   190  LEU190     -0.2718
    120  CB        50.5340   60.3680   89.1940 C.3   190  LEU190      0.0284
    121  CG        50.2600   58.8920   89.0180 C.3   190  LEU190      0.0019
    122  CD1       48.7610   58.5700   88.9260 C.3   190  LEU190      0.0001
    123  CD2       50.9590   58.2150   87.8600 C.3   190  LEU190      0.0001
    124  N         53.0300   62.7760   90.1100 N.am  191  GLY191     -0.1957
    125  CA        53.3330   64.1800   90.1500 C.3   191  GLY191      0.1869
    126  C         54.7370   64.3660   90.6700 C.2   191  GLY191      0.2309
    127  O         55.2620   63.5350   91.4200 O.2   191  GLY191     -0.2863
    128  N         55.7280   64.6010   85.1920 N.3   215  ASP215     -0.1239
    129  CA        55.9070   66.0740   85.4650 C.3   215  ASP215      0.1674
    130  C         57.3140   66.4480   85.8870 C.2   215  ASP215      0.2266
    131  O         58.0590   65.6670   86.4500 O.2   215  ASP215     -0.2867
    132  CB        54.8440   66.7470   86.4020 C.3   215  ASP215      0.1410
    133  CG        53.4350   66.3780   86.0530 C.2   215  ASP215      0.3668
    134  OD1       53.0990   66.3590   84.8510 O.co2 215  ASP215     -0.2456
    135  OD2       52.6020   66.2020   86.9650 O.co2 215  ASP215     -0.2456
    136  N         54.0560   66.8380   80.2750 N.3   235  GLN235     -0.1245
    137  CA        52.7900   67.1970   79.6710 C.3   235  GLN235      0.1566
    138  C         52.6510   68.7160   79.3820 C.2   235  GLN235      0.2260
    139  O         51.6130   69.1690   78.8690 O.2   235  GLN235     -0.2867
    140  CB        51.5680   66.8470   80.6020 C.3   235  GLN235      0.0367
    141  CG        51.4250   67.7180   81.8800 C.3   235  GLN235      0.0905
    142  CD        50.2440   67.3380   82.6760 C.2   235  GLN235      0.2608
    143  OE1       50.4200   66.7810   83.8050 O.2   235  GLN235     -0.2717
    144  NE2       49.0730   67.5710   82.1830 N.am  235  GLN235     -0.0878
@<TRIPOS>BOND
     1    61    62    1
     2   139   138    2
     3   138   137    1
     4    63    62    1
     5    63    64    2
     6   137   136    1
     7   137   140    1
     8    62    65    1
     9   140   141    1
    10    53    54    1
    11    65    66    1
    12    66    67    1
    13    68    67   ar
    14    67    69   ar
    15    54    55    1
    16    54    57    1
    17   141   142    1
    18   144   142   am
    19    56    55    2
    20   142   143    2
    21    57    58    1
    22   108   107    2
    23   106   105    1
    24   106   107    1
    25   106   109    1
    26   110   109    1
    27   110   111    1
    28    60    58   am
    29    58    59    2
    30   115   113    1
    31   112   113    2
    32   112   111    1
    33    92    89    1
    34    92    93    1
    35    89    88    1
    36    89    90    1
    37    91    90    2
    38   113   114    1
    39   134   133   ar
    40   128   129    1
    41    90    97   am
    42    38    36   ar
    43    38    37   ar
    44   129   130    1
    45   129   132    1
    46    36    34   ar
    47    93    94    1
    48   130   131    2
    49   133   132    1
    50   133   135   ar
    51    37    35   ar
    52    97    98    1
    53    95    94    2
    54    94    96   am
    55    51    52   ar
    56    51    49   ar
    57   100    99    2
    58    34    33   ar
    59    52    50   ar
    60    99    98    1
    61    98   101    1
    62     9     7   ar
    63     9    10   ar
    64    35    33   ar
    65    49    46   ar
    66    31    30    2
    67   123   121    1
    68    33    32    1
    69    81    82    2
    70    81    80    1
    71     7     6   ar
    72    50    48   ar
    73    42    41    2
    74    10     8   ar
    75   104   102    1
    76   119   118    2
    77    46    48   ar
    78    46    44   ar
    79   101   102    1
    80   122   121    1
    81    30    29    1
    82    30    39   am
    83    48    47   ar
    84   121   120    1
    85   117   120    1
    86   117   118    1
    87   117   116    1
    88    41    40    1
    89   102   103    1
    90    80    83    1
    91    80    79    1
    92    40    39    1
    93    40    43    1
    94   118   124   am
    95    32    29    1
    96     6     8   ar
    97     6     5    1
    98    29    28    1
    99     1     2    1
   100    83    84    1
   101    44    43    1
   102    44    45   ar
   103   124   125    1
   104    47    45   ar
   105   125   126    1
   106     5     2    1
   107    86    85    2
   108   126   127    2
   109     2     3    1
   110    84    85    1
   111    85    87   am
   112    78    76   am
   113    11     3   am
   114    11    12    1
   115     3     4    2
   116    15    12    1
   117    15    16    1
   118    18    17    2
   119    77    76    2
   120    12    13    1
   121    76    75    1
   122    27    25   ar
   123    26    25   ar
   124    17    16    1
   125    17    19   am
   126    25    24    1
   127    23    22    2
   128    22    21    1
   129    75    74    1
   130    13    14    2
   131    24    21    1
   132    70    71    1
   133    21    20    1
   134    74    71    1
   135    71    72    1
   136    72    73    2
