@<TRIPOS>MOLECULE
tmp/4ru2O00.pdb
 152 147 0 0 0
SMALL
GASTEIGER

@<TRIPOS>ATOM
      1  N        101.3490  108.1840   38.3970 N.3     9  LEU9       -0.1245
      2  CA       101.9650  107.9420   39.6940 C.3     9  LEU9        0.1561
      3  C        103.2810  108.7030   39.6890 C.2     9  LEU9        0.2260
      4  O        103.9440  108.7350   38.6570 O.2     9  LEU9       -0.2867
      5  CB       102.2110  106.4450   39.9710 C.3     9  LEU9        0.0270
      6  CG       101.0240  105.5210   40.0200 C.3     9  LEU9        0.0019
      7  CD1      101.4920  104.0710   39.9480 C.3     9  LEU9        0.0001
      8  CD2      100.1600  105.7820   41.2600 C.3     9  LEU9        0.0001
      9  N        107.9210  107.3030   42.4170 N.3    12  MET12      -0.1245
     10  CA       108.0570  105.8460   42.3640 C.3    12  MET12       0.1570
     11  C        109.5270  105.3930   42.3580 C.2    12  MET12       0.2261
     12  O        109.8020  104.2240   42.6320 O.2    12  MET12      -0.2867
     13  CB       107.3350  105.2920   41.1230 C.3    12  MET12       0.0387
     14  CG       105.8120  105.3630   41.1990 C.3    12  MET12       0.0595
     15  SD       105.0850  104.2040   42.3860 S.3    12  MET12      -0.1393
     16  CE       105.4790  102.6250   41.5850 C.3    12  MET12       0.0692
     17  N        115.4200   97.7660   35.5650 N.3    23  TRP23      -0.1241
     18  CA       114.7550   98.2820   36.7660 C.3    23  TRP23       0.1605
     19  C        113.3470   98.8110   36.4410 C.2    23  TRP23       0.2264
     20  O        112.4380   98.6800   37.2640 O.2    23  TRP23      -0.2867
     21  CB       115.6000   99.3870   37.4450 C.3    23  TRP23       0.0550
     22  CG       115.8170  100.6210   36.6140 C.ar   23  TRP23       0.0003
     23  CD1      116.8660  100.8700   35.7800 C.ar   23  TRP23       0.0946
     24  CD2      114.9430  101.7600   36.5130 C.ar   23  TRP23       0.0152
     25  NE1      116.7000  102.0870   35.1590 N.ar   23  TRP23      -0.2442
     26  CE2      115.5220  102.6500   35.5810 C.ar   23  TRP23       0.0810
     27  CE3      113.7180  102.1150   37.1200 C.ar   23  TRP23       0.0012
     28  CZ2      114.9300  103.8750   35.2490 C.ar   23  TRP23       0.0191
     29  CZ3      113.1110  103.3080   36.7560 C.ar   23  TRP23       0.0001
     30  CH2      113.7220  104.1820   35.8490 C.ar   23  TRP23       0.0015
     31  N        110.7490   96.1140   36.2290 N.3    26  GLU26      -0.1231
     32  CA       110.3770   95.6900   37.5760 C.3    26  GLU26       0.1699
     33  C        109.3540   96.6660   38.1740 C.2    26  GLU26       0.2592
     34  O        108.3960   96.2080   38.7990 O.2    26  GLU26      -0.2718
     35  CB       111.6070   95.5520   38.4820 C.3    26  GLU26       0.0402
     36  CG       112.5840   94.4610   38.0750 C.3    26  GLU26       0.1161
     37  CD       112.0660   93.0320   38.0840 C.2    26  GLU26       0.3649
     38  OE1      111.4590   92.6150   39.0990 O.co2  26  GLU26      -0.2457
     39  OE2      112.2900   92.3190   37.0770 O.co2  26  GLU26      -0.2457
     40  N        109.5130   97.9960   37.9260 N.am   27  ILE27      -0.1980
     41  CA       108.5600   99.0170   38.3820 C.3    27  ILE27       0.1595
     42  C        107.2040   98.7670   37.7000 C.2    27  ILE27       0.2287
     43  O        106.1580   98.7750   38.3630 O.2    27  ILE27      -0.2864
     44  CB       109.0780  100.4740   38.1350 C.3    27  ILE27       0.0276
     45  CG1      110.3370  100.8000   39.0050 C.3    27  ILE27       0.0022
     46  CG2      107.9570  101.5320   38.3720 C.3    27  ILE27       0.0022
     47  CD1      110.1520  100.8610   40.5210 C.3    27  ILE27       0.0001
     48  N        105.4860   95.9180   39.2800 N.3    30  ASP30      -0.1225
     49  CA       104.9950   96.2900   40.6120 C.3    30  ASP30       0.1805
     50  C        103.6410   96.9910   40.5040 C.2    30  ASP30       0.2597
     51  O        102.7530   96.7400   41.3160 O.2    30  ASP30      -0.2718
     52  CB       105.9940   97.2170   41.3380 C.3    30  ASP30       0.1424
     53  CG       107.3690   96.6370   41.6740 C.2    30  ASP30       0.3668
     54  OD1      107.4590   95.4180   41.9270 O.co2  30  ASP30      -0.2456
     55  OD2      108.3460   97.4180   41.7290 O.co2  30  ASP30      -0.2456
     56  N        103.4740   97.8510   39.4830 N.am   31  VAL31      -0.1980
     57  CA       102.2420   98.6110   39.2620 C.3    31  VAL31       0.1595
     58  C        101.1330   97.6870   38.7230 C.2    31  VAL31       0.2287
     59  O         99.9980   97.7820   39.1980 O.2    31  VAL31      -0.2864
     60  CB       102.4730   99.8510   38.3550 C.3    31  VAL31       0.0276
     61  CG1      101.1620  100.6020   38.0820 C.3    31  VAL31       0.0022
     62  CG2      103.5080  100.7890   38.9860 C.3    31  VAL31       0.0022
     63  N        100.8590   94.3610   39.0860 N.3    33  GLU33      -0.1182
     64  CA       100.5210   93.4590   40.1930 C.3    33  GLU33       0.1915
     65  C         99.5700   94.1330   41.1620 C.2    33  GLU33       0.2634
     66  O         98.5280   93.5590   41.4660 O.2    33  GLU33      -0.2714
     67  CB       101.7820   92.9640   40.9360 C.2    33  GLU33       0.0085
     68  CG       102.5660   91.8640   40.2280 C.2    33  GLU33       0.0835
     69  CD       103.8730   91.4220   40.8810 C.2    33  GLU33       0.3877
     70  OE1      104.2050   91.9210   41.9830 O.co2  33  GLU33      -0.2406
     71  OE2      104.5640   90.5600   40.2890 O.co2  33  GLU33      -0.2406
     72  N         99.8850   95.3780   41.5810 N.am   34  GLU34      -0.1977
     73  CA        99.0770   96.1290   42.5350 C.3    34  GLU34       0.1602
     74  C         97.7170   96.5280   41.9500 C.2    34  GLU34       0.2287
     75  O         96.7270   96.4300   42.6610 O.2    34  GLU34      -0.2864
     76  CB        99.8410   97.3780   43.0350 C.3    34  GLU34       0.0415
     77  CG        99.3470   97.9450   44.3660 C.3    34  GLU34       0.1163
     78  CD        99.3390   97.0270   45.5800 C.2    34  GLU34       0.3649
     79  OE1      100.1910   96.1110   45.6620 O.co2  34  GLU34      -0.2457
     80  OE2       98.4750   97.2350   46.4630 O.co2  34  GLU34      -0.2457
     81  N         96.1000  103.8790   45.6980 N.3    72  LEU72      -0.1245
     82  CA        97.5390  104.0960   45.5230 C.3    72  LEU72       0.1561
     83  C         98.0250  105.4350   46.0500 C.2    72  LEU72       0.2260
     84  O         99.1760  105.5260   46.4650 O.2    72  LEU72      -0.2867
     85  CB        97.9590  103.9440   44.0410 C.3    72  LEU72       0.0270
     86  CG        97.7810  102.5480   43.4270 C.3    72  LEU72       0.0019
     87  CD1       98.1350  102.5320   41.9600 C.3    72  LEU72       0.0001
     88  CD2       98.5590  101.5010   44.1790 C.3    72  LEU72       0.0001
     89  N        100.4450  106.2070   49.4090 N.3    75  ARG75      -0.1231
     90  CA       101.0800  104.9690   49.8670 C.3    75  ARG75       0.1694
     91  C        102.5920  105.1100   49.9250 C.2    75  ARG75       0.2592
     92  O        103.1830  105.8580   49.1460 O.2    75  ARG75      -0.2718
     93  CB       100.7550  103.8050   48.8910 C.3    75  ARG75       0.0321
     94  CG        99.3080  103.3670   48.8540 C.3    75  ARG75       0.0489
     95  CD        98.9590  102.3050   49.8770 C.3    75  ARG75       0.2205
     96  NE        99.5520  100.9940   49.5870 N.pl3  75  ARG75      -0.0865
     97  CZ        99.0980  100.1300   48.6870 C.cat  75  ARG75       0.5346
     98  NH1       98.0760  100.4520   47.9060 N.pl3  75  ARG75       0.1354
     99  NH2       99.6840   98.9490   48.5370 N.pl3  75  ARG75       0.1354
    100  N        103.2280  104.3010   50.7610 N.am   76  TRP76      -0.1962
    101  CA       104.6790  104.1880   50.7670 C.3    76  TRP76       0.1771
    102  C        105.1080  103.2330   49.6500 C.2    76  TRP76       0.2620
    103  O        104.4920  102.1800   49.4670 O.2    76  TRP76      -0.2715
    104  CB       105.2010  103.6150   52.0890 C.3    76  TRP76       0.0590
    105  CG       105.0750  104.4440   53.3250 C.ar   76  TRP76       0.0006
    106  CD1      104.5000  104.0600   54.5000 C.ar   76  TRP76       0.0946
    107  CD2      105.7240  105.6950   53.5830 C.ar   76  TRP76       0.0152
    108  NE1      104.6710  105.0390   55.4510 N.ar   76  TRP76      -0.2442
    109  CE2      105.4210  106.0550   54.9160 C.ar   76  TRP76       0.0810
    110  CE3      106.4650  106.5920   52.7940 C.ar   76  TRP76       0.0012
    111  CZ2      105.8670  107.2510   55.4890 C.ar   76  TRP76       0.0191
    112  CZ3      106.8930  107.7810   53.3590 C.ar   76  TRP76       0.0001
    113  CH2      106.6000  108.0980   54.6920 C.ar   76  TRP76       0.0015
    114  N        106.1560  103.5880   48.9190 N.am   77  PHE77      -0.1960
    115  CA       106.7720  102.7150   47.9280 C.3    77  PHE77       0.1771
    116  C        108.2680  102.9220   48.0470 C.2    77  PHE77       0.2619
    117  O        108.7460  104.0360   47.8300 O.2    77  PHE77      -0.2715
    118  CB       106.2660  102.9680   46.4990 C.3    77  PHE77       0.0574
    119  CG       106.7970  101.9870   45.4670 C.ar   77  PHE77      -0.0200
    120  CD1      106.1410  100.7780   45.2260 C.ar   77  PHE77      -0.0042
    121  CD2      107.9560  102.2690   44.7440 C.ar   77  PHE77      -0.0042
    122  CE1      106.6470   99.8620   44.2890 C.ar   77  PHE77      -0.0003
    123  CE2      108.4630  101.3520   43.8080 C.ar   77  PHE77      -0.0003
    124  CZ       107.7960  100.1620   43.5740 C.ar   77  PHE77      -0.0000
    125  N        108.9990  101.8740   48.4830 N.am   78  ALA78      -0.1963
    126  CA       110.4550  101.9120   48.6580 C.3    78  ALA78       0.1728
    127  C        110.8890  103.1060   49.5630 C.2    78  ALA78       0.2616
    128  O        111.8590  103.8040   49.2580 O.2    78  ALA78      -0.2715
    129  CB       111.1580  101.9680   47.2860 C.3    78  ALA78       0.0334
    130  N        110.1530  103.3150   50.6580 N.am   79  GLY79      -0.1955
    131  CA       110.4360  104.3410   51.6580 C.3    79  GLY79       0.1869
    132  C        110.1390  105.7820   51.2900 C.2    79  GLY79       0.2309
    133  O        110.6560  106.6910   51.9350 O.2    79  GLY79      -0.2863
    134  N        104.0690  108.1020   47.5430 N.3    82  ILE82      -0.1245
    135  CA       103.6950  108.2500   46.1420 C.3    82  ILE82       0.1561
    136  C        102.3810  109.0240   46.0380 C.2    82  ILE82       0.2260
    137  O        101.5500  109.0100   46.9480 O.2    82  ILE82      -0.2867
    138  CB       103.6860  106.9130   45.3360 C.3    82  ILE82       0.0252
    139  CG1      102.4970  106.0010   45.6920 C.3    82  ILE82       0.0019
    140  CG2      105.0200  106.1930   45.4690 C.3    82  ILE82       0.0019
    141  CD1      102.0340  105.0180   44.5470 C.3    82  ILE82       0.0001
    142  N        107.6530   89.2300   35.0280 N.3   110  ARG110     -0.1245
    143  CA       108.2780   88.2320   35.9090 C.3   110  ARG110      0.1563
    144  C        107.3010   87.1090   36.3110 C.2   110  ARG110      0.2260
    145  O        106.1870   87.3720   36.7640 O.2   110  ARG110     -0.2867
    146  CB       108.8910   88.8940   37.1640 C.3   110  ARG110      0.0307
    147  CG       107.9810   89.8540   37.9210 C.3   110  ARG110      0.0489
    148  CD       108.6740   90.4340   39.1460 C.3   110  ARG110      0.2205
    149  NE       107.7290   91.1760   39.9790 N.pl3 110  ARG110     -0.0865
    150  CZ       107.8420   92.4640   40.2890 C.cat 110  ARG110      0.5346
    151  NH1      108.8890   93.1640   39.8740 N.pl3 110  ARG110      0.1354
    152  NH2      106.9210   93.0560   41.0330 N.pl3 110  ARG110      0.1354
@<TRIPOS>BOND
     1   142   143    1
     2    25    26   ar
     3    25    23   ar
     4    28    26   ar
     5    28    30   ar
     6    17    18    1
     7    26    24   ar
     8    23    22   ar
     9    30    29   ar
    10   143   144    1
    11   143   146    1
    12    31    32    1
    13   144   145    2
    14    19    18    1
    15    19    20    2
    16    24    22   ar
    17    24    27   ar
    18    22    21    1
    19    29    27   ar
    20    18    21    1
    21    39    37   ar
    22   146   147    1
    23    32    33    1
    24    32    35    1
    25    42    43    2
    26    42    41    1
    27   147   148    1
    28    40    33   am
    29    40    41    1
    30    36    37    1
    31    36    35    1
    32    61    60    1
    33    37    38   ar
    34    44    46    1
    35    44    41    1
    36    44    45    1
    37    33    34    2
    38    60    62    1
    39    60    57    1
    40     1     2    1
    41     4     3    2
    42    58    59    2
    43    58    57    1
    44    45    47    1
    45    63    64    1
    46   148   149    1
    47    57    56    1
    48    48    49    1
    49    56    50   am
    50     3     2    1
    51     2     5    1
    52   151   150    1
    53     7     6    1
    54     5     6    1
    55   149   150    2
    56     6     8    1
    57    64    67    1
    58    64    65    1
    59    68    69    1
    60    68    67    2
    61   150   152    1
    62    71    69   ar
    63    50    49    1
    64    50    51    2
    65    49    52    1
    66    69    70   ar
    67    13    14    1
    68    13    10    1
    69    65    66    2
    70    65    72   am
    71    14    15    1
    72    52    53    1
    73    72    73    1
    74    16    15    1
    75    53    55   ar
    76    53    54   ar
    77    74    73    1
    78    74    75    2
    79    87    86    1
    80    11    10    1
    81    11    12    2
    82    10     9    1
    83    73    76    1
    84    76    77    1
    85    86    85    1
    86    86    88    1
    87   124   123   ar
    88   124   122   ar
    89   123   121   ar
    90    85    82    1
    91   122   120   ar
    92    77    78    1
    93   141   139    1
    94   121   119   ar
    95   120   119   ar
    96   138   140    1
    97   138   139    1
    98   138   135    1
    99   119   118    1
   100    82    81    1
   101    82    83    1
   102    78    79   ar
   103    78    80   ar
   104   136   135    1
   105   136   137    2
   106    83    84    2
   107   135   134    1
   108   118   115    1
   109   129   126    1
   110   117   116    2
   111    98    97    1
   112   115   116    1
   113   115   114    1
   114   116   125   am
   115   125   126    1
   116    99    97    1
   117   126   127    1
   118    97    96    2
   119    94    93    1
   120    94    95    1
   121    93    90    1
   122   114   102   am
   123    92    91    2
   124   128   127    2
   125    89    90    1
   126   103   102    2
   127   127   130   am
   128    96    95    1
   129   102   101    1
   130    90    91    1
   131    91   100   am
   132   130   131    1
   133   100   101    1
   134   101   104    1
   135   132   131    1
   136   132   133    2
   137   104   105    1
   138   110   112   ar
   139   110   107   ar
   140   105   107   ar
   141   105   106   ar
   142   112   113   ar
   143   107   109   ar
   144   106   108   ar
   145   113   111   ar
   146   109   108   ar
   147   109   111   ar
