@<TRIPOS>MOLECULE
tmp/4ru2A00.pdb
 152 147 0 0 0
SMALL
GASTEIGER

@<TRIPOS>ATOM
      1  N         88.6400   71.7440  -22.2850 N.3     9  LEU9       -0.1245
      2  CA        88.0470   71.4840  -23.5810 C.3     9  LEU9        0.1561
      3  C         86.7080   72.1980  -23.5990 C.2     9  LEU9        0.2260
      4  O         86.0400   72.2170  -22.5710 O.2     9  LEU9       -0.2867
      5  CB        87.8610   69.9740  -23.8570 C.3     9  LEU9        0.0270
      6  CG        89.1100   69.0990  -23.8970 C.3     9  LEU9        0.0019
      7  CD1       88.7300   67.6370  -23.8010 C.3     9  LEU9        0.0001
      8  CD2       89.9330   69.3540  -25.1590 C.3     9  LEU9        0.0001
      9  N         82.1130   70.6080  -26.3320 N.3    12  MET12      -0.1245
     10  CA        82.0510   69.1380  -26.2810 C.3    12  MET12       0.1570
     11  C         80.6030   68.6170  -26.2650 C.2    12  MET12       0.2261
     12  O         80.3670   67.4290  -26.5230 O.2    12  MET12      -0.2867
     13  CB        82.8030   68.6270  -25.0370 C.3    12  MET12       0.0387
     14  CG        84.3120   68.7580  -25.1050 C.3    12  MET12       0.0595
     15  SD        85.0820   67.6010  -26.2640 S.3    12  MET12      -0.1393
     16  CE        84.7840   66.0460  -25.4610 C.3    12  MET12       0.0692
     17  N         75.0570   60.7930  -19.4580 N.3    23  TRP23      -0.1241
     18  CA        75.7020   61.3260  -20.6600 C.3    23  TRP23       0.1605
     19  C         77.0890   61.9130  -20.3350 C.2    23  TRP23       0.2264
     20  O         77.9970   61.8190  -21.1560 O.2    23  TRP23      -0.2867
     21  CB        74.8180   62.3940  -21.3500 C.3    23  TRP23       0.0550
     22  CG        74.5490   63.6200  -20.5250 C.ar   23  TRP23       0.0003
     23  CD1       73.4880   63.8270  -19.6950 C.ar   23  TRP23       0.0946
     24  CD2       75.3760   64.7910  -20.4190 C.ar   23  TRP23       0.0152
     25  NE1       73.6040   65.0480  -19.0730 N.ar   23  TRP23      -0.2442
     26  CE2       74.7580   65.6560  -19.4890 C.ar   23  TRP23       0.0810
     27  CE3       76.5870   65.1930  -21.0210 C.ar   23  TRP23       0.0012
     28  CZ2       75.2970   66.9010  -19.1520 C.ar   23  TRP23       0.0191
     29  CZ3       77.1410   66.4100  -20.6550 C.ar   23  TRP23       0.0001
     30  CH2       76.4880   67.2590  -19.7490 C.ar   23  TRP23       0.0015
     31  N         79.7930   59.3080  -20.1140 N.3    26  GLU26      -0.1231
     32  CA        80.1840   58.9020  -21.4670 C.3    26  GLU26       0.1699
     33  C         81.1610   59.9130  -22.0660 C.2    26  GLU26       0.2592
     34  O         82.1370   59.5010  -22.6950 O.2    26  GLU26      -0.2718
     35  CB        78.9520   58.7230  -22.3660 C.3    26  GLU26       0.0402
     36  CG        78.0090   57.5960  -21.9480 C.3    26  GLU26       0.1161
     37  CD        78.5700   56.1840  -21.9620 C.2    26  GLU26       0.3649
     38  OE1       79.1700   55.7870  -22.9880 O.co2  26  GLU26      -0.2457
     39  OE2       78.3920   55.4690  -20.9480 O.co2  26  GLU26      -0.2457
     40  N         80.9390   61.2310  -21.8280 N.am   27  ILE27      -0.1980
     41  CA        81.8520   62.2940  -22.2860 C.3    27  ILE27       0.1595
     42  C         83.2120   62.1010  -21.5890 C.2    27  ILE27       0.2287
     43  O         84.2520   62.1290  -22.2510 O.2    27  ILE27      -0.2864
     44  CB        81.2770   63.7390  -22.0500 C.3    27  ILE27       0.0276
     45  CG1       80.0160   64.0120  -22.8960 C.3    27  ILE27       0.0022
     46  CG2       82.3460   64.8420  -22.2820 C.3    27  ILE27       0.0022
     47  CD1       80.2060   64.0950  -24.4140 C.3    27  ILE27       0.0001
     48  N         85.0610   59.3200  -23.1500 N.3    30  ASP30      -0.1225
     49  CA        85.5380   59.7210  -24.4810 C.3    30  ASP30       0.1805
     50  C         86.8590   60.4620  -24.3580 C.2    30  ASP30       0.2597
     51  O         87.7510   60.2380  -25.1610 O.2    30  ASP30      -0.2718
     52  CB        84.5100   60.6120  -25.2120 C.3    30  ASP30       0.1424
     53  CG        83.1710   59.9610  -25.5690 C.2    30  ASP30       0.3668
     54  OD1       83.1460   58.7320  -25.8040 O.co2  30  ASP30      -0.2456
     55  OD2       82.1500   60.6910  -25.6290 O.co2  30  ASP30      -0.2456
     56  N         86.9920   61.3250  -23.3370 N.am   31  VAL31      -0.1980
     57  CA        88.1870   62.1320  -23.1100 C.3    31  VAL31       0.1595
     58  C         89.3310   61.2540  -22.5620 C.2    31  VAL31       0.2287
     59  O         90.4590   61.3750  -23.0470 O.2    31  VAL31      -0.2864
     60  CB        87.9030   63.3750  -22.2180 C.3    31  VAL31       0.0276
     61  CG1       89.1780   64.1930  -21.9820 C.3    31  VAL31       0.0022
     62  CG2       86.8210   64.2660  -22.8490 C.3    31  VAL31       0.0022
     63  N         89.7420   57.9120  -22.9310 N.3    33  GLU33      -0.1231
     64  CA        90.1520   57.0360  -24.0290 C.3    33  GLU33       0.1699
     65  C         91.0460   57.7720  -25.0270 C.2    33  GLU33       0.2592
     66  O         92.0900   57.2380  -25.4000 O.2    33  GLU33      -0.2718
     67  CB        88.9490   56.4190  -24.7610 C.3    33  GLU33       0.0402
     68  CG        88.2840   55.2730  -24.0130 C.3    33  GLU33       0.1161
     69  CD        86.8860   54.8790  -24.4670 C.2    33  GLU33       0.3649
     70  OE1       86.3810   55.4460  -25.4670 O.co2  33  GLU33      -0.2457
     71  OE2       86.2930   53.9930  -23.8090 O.co2  33  GLU33      -0.2457
     72  N         90.6800   59.0040  -25.4110 N.am   34  GLU34      -0.1979
     73  CA        91.4600   59.7790  -26.3730 C.3    34  GLU34       0.1602
     74  C         92.8170   60.2100  -25.7890 C.2    34  GLU34       0.2287
     75  O         93.8150   60.1360  -26.5010 O.2    34  GLU34      -0.2864
     76  CB        90.6580   61.0030  -26.8460 C.3    34  GLU34       0.0415
     77  CG        91.0880   61.5720  -28.1930 C.3    34  GLU34       0.1163
     78  CD        91.1240   60.6580  -29.4050 C.2    34  GLU34       0.3649
     79  OE1       90.3000   59.7170  -29.5000 O.co2  34  GLU34      -0.2457
     80  OE2       91.9820   60.9100  -30.2810 O.co2  34  GLU34      -0.2457
     81  N         94.0830   67.5270  -29.5660 N.3    72  LEU72      -0.1245
     82  CA        92.6370   67.7050  -29.3940 C.3    72  LEU72       0.1561
     83  C         92.1070   69.0270  -29.9250 C.2    72  LEU72       0.2260
     84  O         90.9440   69.0710  -30.3330 O.2    72  LEU72      -0.2867
     85  CB        92.2350   67.5620  -27.9130 C.3    72  LEU72       0.0270
     86  CG        92.4770   66.1950  -27.2760 C.3    72  LEU72       0.0019
     87  CD1       92.0900   66.2110  -25.8270 C.3    72  LEU72       0.0001
     88  CD2       91.7600   65.0950  -28.0350 C.3    72  LEU72       0.0001
     89  N         89.6820   69.7170  -33.3020 N.3    75  ARG75      -0.1231
     90  CA        89.1040   68.4530  -33.7670 C.3    75  ARG75       0.1694
     91  C         87.5890   68.5440  -33.8250 C.2    75  ARG75       0.2592
     92  O         86.9830   69.2890  -33.0450 O.2    75  ARG75      -0.2718
     93  CB        89.4740   67.3000  -32.7960 C.3    75  ARG75       0.0321
     94  CG        90.9490   66.9220  -32.7530 C.3    75  ARG75       0.0489
     95  CD        91.3630   65.8780  -33.7770 C.3    75  ARG75       0.2205
     96  NE        90.8160   64.5410  -33.5020 N.pl3  75  ARG75      -0.0865
     97  CZ        91.2790   63.6910  -32.5850 C.cat  75  ARG75       0.5346
     98  NH1       92.2690   64.0480  -31.7770 N.pl3  75  ARG75       0.1354
     99  NH2       90.7360   62.4850  -32.4540 N.pl3  75  ARG75       0.1354
    100  N         86.9700   67.7180  -34.6840 N.am   76  TRP76      -0.1962
    101  CA        85.5310   67.5530  -34.6680 C.3    76  TRP76       0.1771
    102  C         85.1540   66.6060  -33.5240 C.2    76  TRP76       0.2620
    103  O         85.8170   65.5660  -33.3350 O.2    76  TRP76      -0.2715
    104  CB        85.0290   66.9270  -35.9670 C.3    76  TRP76       0.0590
    105  CG        85.0880   67.7360  -37.2280 C.ar   76  TRP76       0.0006
    106  CD1       85.5890   67.3160  -38.4240 C.ar   76  TRP76       0.0946
    107  CD2       84.4080   68.9780  -37.4880 C.ar   76  TRP76       0.0152
    108  NE1       85.3130   68.2410  -39.4030 N.ar   76  TRP76      -0.2442
    109  CE2       84.5700   69.2620  -38.8600 C.ar   76  TRP76       0.0810
    110  CE3       83.6700   69.8760  -36.6950 C.ar   76  TRP76       0.0012
    111  CZ2       84.0360   70.4170  -39.4540 C.ar   76  TRP76       0.0191
    112  CZ3       83.1560   71.0210  -37.2800 C.ar   76  TRP76       0.0001
    113  CH2       83.3710   71.2980  -38.6370 C.ar   76  TRP76       0.0015
    114  N         84.0840   66.9250  -32.7970 N.am   77  PHE77      -0.1960
    115  CA        83.5010   66.0380  -31.8010 C.3    77  PHE77       0.1771
    116  C         82.0000   66.1750  -31.9180 C.2    77  PHE77       0.2619
    117  O         81.4720   67.2630  -31.6940 O.2    77  PHE77      -0.2715
    118  CB        84.0080   66.2990  -30.3740 C.3    77  PHE77       0.0574
    119  CG        83.4990   65.2980  -29.3460 C.ar   77  PHE77      -0.0200
    120  CD1       84.1950   64.1190  -29.0980 C.ar   77  PHE77      -0.0042
    121  CD2       82.3200   65.5370  -28.6340 C.ar   77  PHE77      -0.0042
    122  CE1       83.7280   63.1950  -28.1570 C.ar   77  PHE77      -0.0003
    123  CE2       81.8470   64.6100  -27.6980 C.ar   77  PHE77      -0.0003
    124  CZ        82.5660   63.4550  -27.4460 C.ar   77  PHE77      -0.0000
    125  N         81.3160   65.0900  -32.3340 N.am   78  ALA78      -0.1963
    126  CA        79.8610   65.0500  -32.5310 C.3    78  ALA78       0.1728
    127  C         79.3790   66.2240  -33.4370 C.2    78  ALA78       0.2616
    128  O         78.3950   66.8920  -33.1350 O.2    78  ALA78      -0.2715
    129  CB        79.1420   65.0600  -31.1690 C.3    78  ALA78       0.0334
    130  N         80.0980   66.4540  -34.5320 N.am   79  GLY79      -0.1955
    131  CA        79.7590   67.4700  -35.5260 C.3    79  GLY79       0.1869
    132  C         80.0020   68.9210  -35.1590 C.2    79  GLY79       0.2309
    133  O         79.4400   69.8130  -35.7990 O.2    79  GLY79      -0.2863
    134  N         85.9790   71.4680  -31.4530 N.3    82  ILE82      -0.1245
    135  CA        86.3480   71.6650  -30.0620 C.3    82  ILE82       0.1561
    136  C         87.6290   72.5040  -29.9490 C.2    82  ILE82       0.2260
    137  O         88.4870   72.5350  -30.8480 O.2    82  ILE82      -0.2867
    138  CB        86.4250   70.3480  -29.2340 C.3    82  ILE82       0.0252
    139  CG1       87.6530   69.4890  -29.5930 C.3    82  ILE82       0.0019
    140  CG2       85.0980   69.5650  -29.3350 C.3    82  ILE82       0.0019
    141  CD1       88.0290   68.4550  -28.5560 C.3    82  ILE82       0.0001
    142  N         83.1910   52.6080  -18.7990 N.3   110  ARG110     -0.1245
    143  CA        82.6340   51.6130  -19.7220 C.3   110  ARG110      0.1563
    144  C         83.7040   50.6730  -20.3070 C.2   110  ARG110      0.2260
    145  O         84.8910   51.0110  -20.3150 O.2   110  ARG110     -0.2867
    146  CB        81.9000   52.3300  -20.8710 C.3   110  ARG110      0.0307
    147  CG        82.8070   53.2390  -21.7020 C.3   110  ARG110      0.0489
    148  CD        82.0830   53.8830  -22.8540 C.3   110  ARG110      0.2205
    149  NE        83.0360   54.5940  -23.6960 N.pl3 110  ARG110     -0.0865
    150  CZ        82.8670   55.8280  -24.1480 C.cat 110  ARG110      0.5346
    151  NH1       81.7650   56.5040  -23.8560 N.pl3 110  ARG110      0.1354
    152  NH2       83.8000   56.3970  -24.8900 N.pl3 110  ARG110      0.1354
@<TRIPOS>BOND
     1   111   109   ar
     2   111   113   ar
     3   108   109   ar
     4   108   106   ar
     5   109   107   ar
     6   113   112   ar
     7   106   105   ar
     8   107   105   ar
     9   107   110   ar
    10   112   110   ar
    11   105   104    1
    12   104   101    1
    13   133   132    2
    14   131   132    1
    15   131   130    1
    16   100   101    1
    17   100    91   am
    18   101   102    1
    19   130   127   am
    20    91    90    1
    21    91    92    2
    22    95    96    1
    23    95    94    1
    24    90    89    1
    25    90    93    1
    26   102   103    2
    27   102   114   am
    28    96    97    2
    29   127   128    2
    30   127   126    1
    31   114   115    1
    32    93    94    1
    33    97    99    1
    34    97    98    1
    35   126   125    1
    36   126   129    1
    37   125   116   am
    38   116   115    1
    39   116   117    2
    40   115   118    1
    41   134   135    1
    42   137   136    2
    43   118   119    1
    44    84    83    2
    45    80    78   ar
    46   135   136    1
    47   135   138    1
    48    83    82    1
    49   139   138    1
    50   139   141    1
    51    81    82    1
    52    79    78   ar
    53    78    77    1
    54    82    85    1
    55   119   120   ar
    56   119   121   ar
    57   140   138    1
    58   120   122   ar
    59   121   123   ar
    60    77    76    1
    61   122   124   ar
    62    88    86    1
    63    85    86    1
    64   123   124   ar
    65    86    87    1
    66    76    73    1
    67    12    11    2
    68    75    74    2
    69    73    74    1
    70    73    72    1
    71     9    10    1
    72    10    11    1
    73    10    13    1
    74    15    16    1
    75    15    14    1
    76    54    53   ar
    77    55    53   ar
    78    53    52    1
    79    70    69   ar
    80    72    65   am
    81    66    65    2
    82    52    49    1
    83    51    50    2
    84     8     6    1
    85    14    13    1
    86    65    64    1
    87   152   150    1
    88    67    64    1
    89    67    68    1
    90    49    50    1
    91    49    48    1
    92    69    68    1
    93    69    71   ar
    94    47    45    1
    95    50    56   am
    96   150   151    1
    97   150   149    2
    98    64    63    1
    99     6     5    1
   100     6     7    1
   101     5     2    1
   102   149   148    1
   103     3     2    1
   104     3     4    2
   105     2     1    1
   106    56    57    1
   107    57    58    1
   108    57    60    1
   109    59    58    2
   110    38    37   ar
   111    45    44    1
   112   148   147    1
   113    62    60    1
   114    34    33    2
   115    35    36    1
   116    35    32    1
   117    41    44    1
   118    41    40    1
   119    41    42    1
   120    46    44    1
   121    43    42    2
   122    60    61    1
   123    33    40   am
   124    33    32    1
   125    37    36    1
   126    37    39   ar
   127   147   146    1
   128    32    31    1
   129    21    18    1
   130    21    22    1
   131    20    19    2
   132    27    29   ar
   133    27    24   ar
   134   146   143    1
   135    18    19    1
   136    18    17    1
   137    29    30   ar
   138    22    24   ar
   139    22    23   ar
   140    24    26   ar
   141   145   144    2
   142   144   143    1
   143    30    28   ar
   144   143   142    1
   145    23    25   ar
   146    26    28   ar
   147    26    25   ar
