@<TRIPOS>MOLECULE
tmp/4ru9A00.pdb
 139 135 0 0 0
SMALL
GASTEIGER

@<TRIPOS>ATOM
      1  N        -19.8260   34.6360    7.6070 N.3    13  ASP13      -0.1225
      2  CA       -19.8140   35.9190    8.2480 C.3    13  ASP13       0.1805
      3  C        -18.4480   36.0990    8.9060 C.2    13  ASP13       0.2598
      4  O        -17.9520   35.2150    9.5970 O.2    13  ASP13      -0.2718
      5  CB       -20.9150   36.0300    9.3110 C.3    13  ASP13       0.1424
      6  CG       -20.9570   37.4230    9.9760 C.2    13  ASP13       0.3668
      7  OD1      -21.8780   38.2150    9.6850 O.co2  13  ASP13      -0.2456
      8  OD2      -20.0440   37.7500   10.7700 O.co2  13  ASP13      -0.2456
      9  N        -17.8800   37.2740    8.7360 N.am   14  MET14      -0.1965
     10  CA       -16.5800   37.5460    9.2800 C.3    14  MET14       0.1736
     11  C        -16.6930   37.8030   10.7860 C.2    14  MET14       0.2616
     12  O        -17.6660   38.3910   11.2830 O.2    14  MET14      -0.2715
     13  CB       -15.9380   38.7590    8.5850 C.3    14  MET14       0.0427
     14  CG       -15.9850   38.7120    7.0740 C.3    14  MET14       0.0599
     15  SD       -15.2390   37.2560    6.3460 S.3    14  MET14      -0.1393
     16  CE       -13.5510   37.6360    6.7420 C.3    14  MET14       0.0692
     17  N        -15.6680   37.3550   11.4910 N.am   15  ASP15      -0.1957
     18  CA       -15.5580   37.5950   12.9160 C.3    15  ASP15       0.1840
     19  C        -15.1770   39.0510   13.1630 C.2    15  ASP15       0.2622
     20  O        -14.2650   39.5760   12.5380 O.2    15  ASP15      -0.2715
     21  CB       -14.5770   36.5980   13.5410 C.3    15  ASP15       0.1450
     22  CG       -14.9730   35.1540   13.2520 C.2    15  ASP15       0.3671
     23  OD1      -16.1750   34.8930   13.0340 O.co2  15  ASP15      -0.2456
     24  OD2      -14.0900   34.2630   13.2390 O.co2  15  ASP15      -0.2456
     25  N        -15.8860   39.6880   14.0880 N.am   16  CYS16      -0.1954
     26  CA       -15.6700   41.0980   14.4480 C.3    16  CYS16       0.1843
     27  C        -15.0510   41.9000   13.2930 C.2    16  CYS16       0.2625
     28  O        -13.9210   42.3220   13.3680 O.2    16  CYS16      -0.2714
     29  CB       -14.8200   41.1790   15.7180 C.3    16  CYS16       0.0997
     30  SG       -13.3170   40.1950   15.6610 S.3    16  CYS16      -0.0797
     31  N        -15.7760   42.0690   12.2050 N.am   17  PHE17      -0.1960
     32  CA       -15.1140   42.3840   10.9590 C.3    17  PHE17       0.1771
     33  C        -14.2360   43.6650   10.9390 C.2    17  PHE17       0.2619
     34  O        -13.0250   43.6330   10.6290 O.2    17  PHE17      -0.2715
     35  CB       -16.1440   42.4490    9.8720 C.3    17  PHE17       0.0574
     36  CG       -15.5570   42.6450    8.5330 C.ar   17  PHE17      -0.0200
     37  CD1      -14.5460   41.8220    8.0960 C.ar   17  PHE17      -0.0042
     38  CD2      -15.9760   43.6810    7.7230 C.ar   17  PHE17      -0.0042
     39  CE1      -13.9620   42.0190    6.8630 C.ar   17  PHE17      -0.0003
     40  CE2      -15.4080   43.8800    6.4700 C.ar   17  PHE17      -0.0003
     41  CZ       -14.4030   43.0400    6.0410 C.ar   17  PHE17      -0.0000
     42  N        -14.8460   44.7860   11.3030 N.am   18  PHE18      -0.1974
     43  CA       -14.1520   46.0560   11.3140 C.3    18  PHE18       0.1639
     44  C        -12.9100   45.9890   12.2000 C.2    18  PHE18       0.2290
     45  O        -11.8900   46.5880   11.8680 O.2    18  PHE18      -0.2864
     46  CB       -15.0900   47.1650   11.7660 C.3    18  PHE18       0.0560
     47  CG       -16.1440   47.5690   10.7430 C.ar   18  PHE18      -0.0200
     48  CD1      -16.5050   46.7720    9.6760 C.ar   18  PHE18      -0.0042
     49  CD2      -16.8190   48.7750   10.8930 C.ar   18  PHE18      -0.0042
     50  CE1      -17.4880   47.1700    8.7700 C.ar   18  PHE18      -0.0003
     51  CE2      -17.7920   49.1870    9.9750 C.ar   18  PHE18      -0.0003
     52  CZ       -18.1340   48.3760    8.9190 C.ar   18  PHE18      -0.0000
     53  N        -18.8310   50.4920   17.3060 N.3    48  ILE48      -0.1231
     54  CA       -19.4800   49.7500   16.2220 C.3    48  ILE48       0.1692
     55  C        -18.9720   48.3320   16.0040 C.2    48  ILE48       0.2591
     56  O        -19.6440   47.5360   15.3690 O.2    48  ILE48      -0.2718
     57  CB       -19.4710   50.5490   14.9120 C.3    48  ILE48       0.0266
     58  CG1      -18.1010   50.6350   14.2820 C.3    48  ILE48       0.0019
     59  CG2      -19.9570   51.9760   15.1670 C.3    48  ILE48       0.0020
     60  CD1      -18.1840   51.3290   12.9270 C.3    48  ILE48       0.0001
     61  N        -17.8220   47.9850   16.5510 N.am   49  ALA49      -0.1980
     62  CA       -17.3800   46.6050   16.4900 C.3    49  ALA49       0.1597
     63  C        -16.4150   46.3280   17.6240 C.2    49  ALA49       0.2287
     64  O        -15.6420   47.2060   17.9720 O.2    49  ALA49      -0.2864
     65  CB       -16.7480   46.3160   15.1370 C.3    49  ALA49       0.0319
     66  N        -13.3640   39.8020   20.3170 N.3    52  TYR52      -0.1241
     67  CA       -13.7920   38.7840   21.2800 C.3    52  TYR52       0.1605
     68  C        -13.0910   38.9240   22.6360 C.2    52  TYR52       0.2264
     69  O        -13.7050   38.7330   23.6790 O.2    52  TYR52      -0.2867
     70  CB       -13.7040   37.3470   20.6830 C.3    52  TYR52       0.0534
     71  CG       -14.8440   37.1040   19.6940 C.ar   52  TYR52      -0.0201
     72  CD1      -14.7930   37.6200   18.3920 C.ar   52  TYR52      -0.0009
     73  CD2      -16.0010   36.4410   20.0770 C.ar   52  TYR52      -0.0009
     74  CE1      -15.8250   37.4050   17.4840 C.ar   52  TYR52       0.0417
     75  CE2      -17.0470   36.2420   19.1800 C.ar   52  TYR52       0.0417
     76  CZ       -16.9690   36.7310   17.8840 C.ar   52  TYR52       0.1957
     77  OH       -18.0350   36.5630   17.0020 O.3    52  TYR52      -0.2866
     78  N        -15.2390   41.4620   24.3100 N.3    55  ARG55      -0.1245
     79  CA       -16.5820   40.9350   24.6320 C.3    55  ARG55       0.1563
     80  C        -16.5730   40.2070   25.9660 C.2    55  ARG55       0.2260
     81  O        -17.5330   40.2830   26.7270 O.2    55  ARG55      -0.2867
     82  CB       -17.0840   40.0110   23.5410 C.3    55  ARG55       0.0307
     83  CG       -17.4070   40.7540   22.2640 C.3    55  ARG55       0.0489
     84  CD       -17.8140   39.8270   21.1280 C.3    55  ARG55       0.2205
     85  NE       -17.6130   40.4320   19.8180 N.pl3  55  ARG55      -0.0865
     86  CZ       -18.2250   40.0820   18.6870 C.cat  55  ARG55       0.5346
     87  NH1      -19.0830   39.0810   18.6200 N.pl3  55  ARG55       0.1354
     88  NH2      -17.9340   40.7520   17.5860 N.pl3  55  ARG55       0.1354
     89  N        -21.3960   46.6560   21.0060 N.3    61  ARG61      -0.1245
     90  CA       -21.8890   47.6840   20.1040 C.3    61  ARG61       0.1563
     91  C        -22.8930   48.5260   20.8650 C.2    61  ARG61       0.2260
     92  O        -23.4750   48.0410   21.8260 O.2    61  ARG61      -0.2867
     93  CB       -22.5590   47.0060   18.9120 C.3    61  ARG61       0.0307
     94  CG       -22.8590   47.9310   17.7530 C.3    61  ARG61       0.0489
     95  CD       -23.0240   47.1760   16.4320 C.3    61  ARG61       0.2205
     96  NE       -23.5750   45.8180   16.5980 N.pl3  61  ARG61      -0.0865
     97  CZ       -22.9440   44.6630   16.3230 C.cat  61  ARG61       0.5346
     98  NH1      -21.6950   44.6060   15.8320 N.pl3  61  ARG61       0.1354
     99  NH2      -23.5920   43.5210   16.5310 N.pl3  61  ARG61       0.1354
    100  N        -24.4490   41.3710    3.4640 N.3   113  SER113     -0.1202
    101  CA       -24.0900   42.5380    4.2730 C.3   113  SER113      0.2020
    102  C        -22.6930   42.9070    3.8240 C.2   113  SER113      0.2619
    103  O        -22.1440   42.2780    2.9030 O.2   113  SER113     -0.2717
    104  CB       -24.1090   42.2110    5.7750 C.3   113  SER113      0.2103
    105  OG       -22.8480   41.6680    6.2790 O.3   113  SER113     -0.2182
    106  N        -22.0860   43.8860    4.4750 N.am  114  ILE114     -0.1965
    107  CA       -20.6950   44.1710    4.1940 C.3   114  ILE114      0.1727
    108  C        -19.7610   43.0460    4.5920 C.2   114  ILE114      0.2616
    109  O        -18.7060   42.9250    3.9850 O.2   114  ILE114     -0.2715
    110  CB       -20.2290   45.4590    4.8370 C.3   114  ILE114      0.0290
    111  CG1      -18.8990   45.8860    4.2340 C.3   114  ILE114      0.0022
    112  CG2      -20.1370   45.3270    6.3410 C.3   114  ILE114      0.0023
    113  CD1      -18.4880   47.2430    4.7090 C.3   114  ILE114      0.0001
    114  N        -20.1480   42.2090    5.5660 N.am  115  ASP115     -0.1957
    115  CA       -19.2720   41.1180    6.0560 C.3   115  ASP115      0.1840
    116  C        -19.8100   39.6970    5.9070 C.2   115  ASP115      0.2621
    117  O        -19.1960   38.7670    6.4340 O.2   115  ASP115     -0.2715
    118  CB       -18.8320   41.3750    7.5160 C.3   115  ASP115      0.1450
    119  CG       -19.7030   40.6690    8.5650 C.2   115  ASP115      0.3671
    120  OD1      -20.9570   40.7180    8.4470 O.co2 115  ASP115     -0.2456
    121  OD2      -19.1370   40.1150    9.5370 O.co2 115  ASP115     -0.2456
    122  N        -20.9340   39.5110    5.2130 N.am  116  GLU116     -0.1977
    123  CA       -21.4290   38.1790    4.9890 C.3   116  GLU116      0.1602
    124  C        -22.0700   37.9590    3.6280 C.2   116  GLU116      0.2287
    125  O        -22.5740   38.8870    3.0100 O.2   116  GLU116     -0.2864
    126  CB       -22.3800   37.7790    6.0960 C.3   116  GLU116      0.0415
    127  CG       -23.6680   38.5610    6.1390 C.3   116  GLU116      0.1163
    128  CD       -24.1910   38.7120    7.5470 C.2   116  GLU116      0.3649
    129  OE1      -25.1060   37.9560    7.8880 O.co2 116  GLU116     -0.2457
    130  OE2      -23.6710   39.5560    8.3170 O.co2 116  GLU116     -0.2457
    131  N        -19.3590   30.7160   16.7030 N.3   226  LYS226     -0.1245
    132  CA       -18.4220   31.8060   16.5130 C.3   226  LYS226      0.1561
    133  C        -17.4830   31.8470   17.7070 C.2   226  LYS226      0.2260
    134  O        -17.9510   31.6130   18.8030 O.2   226  LYS226     -0.2867
    135  CB       -19.1710   33.1340   16.4090 C.3   226  LYS226      0.0271
    136  CG       -19.6830   33.4100   15.0270 C.3   226  LYS226      0.0035
    137  CD       -20.0740   34.8600   14.8330 C.3   226  LYS226      0.0206
    138  CE       -20.1350   35.2340   13.3570 C.3   226  LYS226      0.1093
    139  NZ       -18.7940   35.6290   12.8370 N.3   226  LYS226     -0.1314
@<TRIPOS>BOND
     1   103   102    2
     2   125   124    2
     3   100   101    1
     4   124   123    1
     5   102   101    1
     6   102   106   am
     7   109   108    2
     8   107   106    1
     9   107   108    1
    10   107   110    1
    11   111   113    1
    12   111   110    1
    13   101   104    1
    14   108   114   am
    15   110   112    1
    16   123   122    1
    17   123   126    1
    18   122   116   am
    19   114   115    1
    20   104   105    1
    21   116   115    1
    22   116   117    2
    23    41    40   ar
    24    41    39   ar
    25   115   118    1
    26   126   127    1
    27   127   128    1
    28    15    16    1
    29    15    14    1
    30    40    38   ar
    31    39    37   ar
    32    14    13    1
    33   118   119    1
    34   128   129   ar
    35   128   130   ar
    36     1     2    1
    37    38    36   ar
    38    37    36   ar
    39     2     3    1
    40     2     5    1
    41   120   119   ar
    42    36    35    1
    43   119   121   ar
    44    13    10    1
    45     9     3   am
    46     9    10    1
    47    50    52   ar
    48    50    48   ar
    49     3     4    2
    50    52    51   ar
    51    10    11    1
    52     5     6    1
    53    48    47   ar
    54     7     6   ar
    55    35    32    1
    56    51    49   ar
    57     6     8   ar
    58    34    33    2
    59    47    49   ar
    60    47    46    1
    61    11    12    2
    62    11    17   am
    63    33    32    1
    64    33    42   am
    65    32    31    1
    66    42    43    1
    67    43    46    1
    68    43    44    1
    69    17    18    1
    70    45    44    2
    71    31    27   am
    72    20    19    2
    73   139   138    1
    74    18    19    1
    75    18    21    1
    76    60    58    1
    77    23    22   ar
    78    19    25   am
    79    24    22   ar
    80    22    21    1
    81    27    28    2
    82    27    26    1
    83   138   137    1
    84    25    26    1
    85    58    57    1
    86    26    29    1
    87   137   136    1
    88    57    59    1
    89    57    54    1
    90   136   135    1
    91    65    62    1
    92    56    55    2
    93    30    29    1
    94    98    97    1
    95    55    54    1
    96    55    61   am
    97    54    53    1
    98    97    99    1
    99    97    96    2
   100   135   132    1
   101    95    96    1
   102    95    94    1
   103    62    61    1
   104    62    63    1
   105   132   131    1
   106   132   133    1
   107    77    76    1
   108    74    76   ar
   109    74    72   ar
   110    88    86    1
   111    63    64    2
   112   133   134    2
   113    94    93    1
   114    76    75   ar
   115    72    71   ar
   116    87    86    1
   117    86    85    2
   118    93    90    1
   119    75    73   ar
   120    71    73   ar
   121    71    70    1
   122    85    84    1
   123    90    91    1
   124    90    89    1
   125    66    67    1
   126    70    67    1
   127    91    92    2
   128    84    83    1
   129    67    68    1
   130    83    82    1
   131    68    69    2
   132    82    79    1
   133    78    79    1
   134    79    80    1
   135    80    81    2
