@<TRIPOS>MOLECULE
tmp/4rubE00.pdb
 159 148 0 0 0
SMALL
GASTEIGER

@<TRIPOS>ATOM
      1  N         53.1530  -26.3990   20.5570 N.3   165  THR165     -0.1218
      2  CA        54.2800  -25.7010   19.9630 C.3   165  THR165      0.1862
      3  C         53.6520  -24.9950   18.7560 C.2   165  THR165      0.2287
      4  O         53.1420  -25.7230   17.8350 O.2   165  THR165     -0.2866
      5  CB        55.3190  -26.6830   19.3180 C.3   165  THR165      0.1770
      6  OG1       55.3810  -27.8150   20.3440 O.3   165  THR165     -0.2211
      7  CG2       56.7040  -26.2980   18.9210 C.3   165  THR165      0.0375
      8  N         53.1950  -23.6300   15.1250 N.3   167  LYS167     -0.1245
      9  CA        53.8760  -24.0290   13.8310 C.3   167  LYS167      0.1561
     10  C         53.3190  -23.0110   12.8020 C.2   167  LYS167      0.2260
     11  O         52.2720  -22.3690   13.0230 O.2   167  LYS167     -0.2867
     12  CB        53.7460  -25.4610   13.4830 C.3   167  LYS167      0.0271
     13  CG        53.9840  -26.4520   14.6580 C.3   167  LYS167      0.0035
     14  CD        55.3960  -26.9310   14.6830 C.3   167  LYS167      0.0206
     15  CE        55.8670  -27.7050   15.9360 C.3   167  LYS167      0.1093
     16  NZ        56.9030  -28.8230   15.4150 N.3   167  LYS167     -0.1314
     17  N         57.3900  -23.9530   12.1520 N.3   169  LYS169     -0.1301
     18  CA        58.6090  -23.8170   12.9860 C.3   169  LYS169      0.1247
     19  C         59.1540  -22.3620   12.8980 C.3   169  LYS169      0.2009
     20  O         59.0210  -21.7130   14.0550 O.3   169  LYS169     -0.2188
     21  CB        59.6280  -24.8500   12.6310 C.3   169  LYS169      0.0218
     22  CG        59.5880  -26.2570   13.3110 C.3   169  LYS169      0.0031
     23  CD        60.7870  -27.0230   12.5570 C.3   169  LYS169      0.0205
     24  CE        61.5590  -27.8600   13.5160 C.3   169  LYS169      0.1093
     25  NZ        61.7230  -27.1900   14.8770 N.3   169  LYS169     -0.1314
     26  N         54.1400  -22.6410   23.2640 N.3   193  LYS193     -0.1245
     27  CA        55.4740  -22.4130   23.3200 C.3   193  LYS193      0.1561
     28  C         56.2190  -22.1470   22.0710 C.2   193  LYS193      0.2260
     29  O         55.7470  -22.2330   20.9680 O.2   193  LYS193     -0.2867
     30  CB        55.9550  -24.0330   23.5530 C.3   193  LYS193      0.0271
     31  CG        56.4980  -25.0570   22.5560 C.3   193  LYS193      0.0035
     32  CD        57.1170  -26.2430   23.4130 C.3   193  LYS193      0.0206
     33  CE        58.4920  -25.7480   23.3300 C.3   193  LYS193      0.1093
     34  NZ        59.2360  -26.5450   22.5270 N.3   193  LYS193     -0.1314
     35  N         59.1820  -22.7680   19.3330 N.3   195  ASP195     -0.1225
     36  CA        59.7610  -23.9720   18.7580 C.3   195  ASP195      0.1805
     37  C         61.2240  -23.6530   19.2230 C.2   195  ASP195      0.2597
     38  O         61.6180  -22.4730   19.2330 O.2   195  ASP195     -0.2718
     39  CB        59.6830  -24.1220   17.2820 C.3   195  ASP195      0.1424
     40  CG        59.2830  -25.5390   16.8680 C.2   195  ASP195      0.3668
     41  OD1       59.9110  -26.5470   17.2640 O.co2 195  ASP195     -0.2456
     42  OD2       58.2710  -25.6520   16.0740 O.co2 195  ASP195     -0.2456
     43  N         61.8670  -24.7250   19.5920 N.am  196  GLU196     -0.1979
     44  CA        63.2140  -24.6740   20.0780 C.3   196  GLU196      0.1602
     45  C         64.1200  -23.9160   19.1370 C.2   196  GLU196      0.2287
     46  O         65.2460  -23.5080   19.5990 O.2   196  GLU196     -0.2864
     47  CB        63.6700  -26.1140   20.3180 C.3   196  GLU196      0.0415
     48  CG        64.0440  -26.7800   19.0190 C.3   196  GLU196      0.1163
     49  CD        62.9510  -27.2830   18.1440 C.2   196  GLU196      0.3649
     50  OE1       61.9170  -27.7520   18.5180 O.co2 196  GLU196     -0.2457
     51  OE2       63.2580  -27.2330   16.8970 O.co2 196  GLU196     -0.2457
     52  N         64.2890  -28.0810   26.4970 N.3   286  HIS286     -0.1226
     53  CA        64.0250  -28.6380   25.1630 C.3   286  HIS286      0.1752
     54  C         65.3950  -29.2620   24.8210 C.2   286  HIS286      0.2595
     55  O         66.4590  -28.5410   24.9970 O.2   286  HIS286     -0.2718
     56  CB        63.5930  -27.6420   24.1470 C.3   286  HIS286      0.0759
     57  CG        63.3710  -28.2680   22.8320 C.ar  286  HIS286      0.0818
     58  ND1       64.3720  -28.7290   22.0420 N.ar  286  HIS286     -0.2268
     59  CD2       62.1750  -28.4810   22.2220 C.ar  286  HIS286      0.1154
     60  CE1       63.7920  -29.2180   20.9100 C.ar  286  HIS286      0.1986
     61  NE2       62.4630  -29.0570   21.0350 N.ar  286  HIS286     -0.2212
     62  N         65.3410  -30.5790   24.4990 N.am  287  ARG287     -0.1980
     63  CA        66.5880  -31.3510   24.3420 C.3   287  ARG287      0.1597
     64  C         67.1960  -31.4200   22.9650 C.2   287  ARG287      0.2287
     65  O         67.9510  -32.4180   22.7190 O.2   287  ARG287     -0.2864
     66  CB        66.5240  -32.7270   25.0370 C.3   287  ARG287      0.0334
     67  CG        65.8580  -33.9060   24.4150 C.3   287  ARG287      0.0492
     68  CD        64.4770  -34.3570   24.9230 C.3   287  ARG287      0.2205
     69  NE        64.6700  -35.8390   25.1740 N.pl3 287  ARG287     -0.0865
     70  CZ        64.0200  -36.6170   24.2510 C.cat 287  ARG287      0.5346
     71  NH1       63.2440  -36.1690   23.2420 N.pl3 287  ARG287      0.1354
     72  NH2       64.1510  -37.9240   24.4350 N.pl3 287  ARG287      0.1354
     73  N         70.2040  -33.7730   21.2750 N.3   290  HIS290     -0.1241
     74  CA        70.3650  -34.9970   22.0850 C.3   290  HIS290      0.1621
     75  C         70.4560  -36.2620   21.2980 C.2   290  HIS290      0.2264
     76  O         71.3300  -37.0500   21.5680 O.2   290  HIS290     -0.2867
     77  CB        69.2700  -35.1400   23.0960 C.3   290  HIS290      0.0745
     78  CG        68.0390  -35.7970   22.6290 C.ar  290  HIS290      0.0817
     79  ND1       67.6770  -37.0670   23.0690 N.ar  290  HIS290     -0.2268
     80  CD2       67.0010  -35.4020   21.8850 C.ar  290  HIS290      0.1154
     81  CE1       66.4550  -37.3940   22.6290 C.ar  290  HIS290      0.1986
     82  NE2       65.9820  -36.4690   21.9080 N.ar  290  HIS290     -0.2212
     83  N         62.0430  -32.6070   28.1310 N.3   319  HIS319     -0.1241
     84  CA        61.2260  -33.4580   27.1760 C.3   319  HIS319      0.1621
     85  C         61.7340  -34.8720   27.5120 C.2   319  HIS319      0.2264
     86  O         62.9750  -35.0190   27.6430 O.2   319  HIS319     -0.2867
     87  CB        61.4710  -32.9850   25.7670 C.3   319  HIS319      0.0745
     88  CG        60.7410  -31.7620   25.3340 C.ar  319  HIS319      0.0817
     89  ND1       60.3600  -31.6310   24.0090 N.ar  319  HIS319     -0.2268
     90  CD2       60.3200  -30.6840   25.9980 C.ar  319  HIS319      0.1154
     91  CE1       59.6920  -30.4630   23.8390 C.ar  319  HIS319      0.1986
     92  NE2       59.6670  -29.8690   25.0210 N.ar  319  HIS319     -0.2212
     93  N         60.2020  -37.7980   25.7890 N.3   321  GLY321     -0.1225
     94  CA        59.8490  -38.6620   24.6500 C.3   321  GLY321      0.1811
     95  C         58.2880  -38.9510   24.7470 C.2   321  GLY321      0.2280
     96  O         57.6530  -38.4420   25.7130 O.2   321  GLY321     -0.2866
     97  N         56.1260  -39.4940   16.5940 N.3   326  LYS326     -0.1182
     98  CA        57.0970  -39.3220   15.5130 C.3   326  LYS326      0.1909
     99  C         58.5390  -39.6550   15.7800 C.2   326  LYS326      0.2634
    100  O         59.2150  -40.0220   14.7470 O.2   326  LYS326     -0.2714
    101  CB        56.9480  -37.9760   14.7600 C.2   326  LYS326     -0.0028
    102  CG        57.5980  -36.6880   15.1170 C.2   326  LYS326     -0.0272
    103  CD        57.2360  -35.4560   14.2580 C.3   326  LYS326      0.0462
    104  CE        57.8070  -34.2040   14.9480 C.3   326  LYS326      0.1140
    105  NZ        57.2890  -32.8930   14.4680 N.3   326  LYS326     -0.1310
    106  N         58.9860  -39.5790   17.0290 N.am  327  LEU327     -0.1977
    107  CA        60.4570  -39.8750   17.1710 C.3   327  LEU327      0.1596
    108  C         60.6880  -41.0520   18.0720 C.2   327  LEU327      0.2287
    109  O         59.8700  -41.2900   18.9310 O.2   327  LEU327     -0.2864
    110  CB        61.1110  -38.5740   17.6760 C.3   327  LEU327      0.0297
    111  CG        60.8700  -37.2150   17.0720 C.3   327  LEU327      0.0022
    112  CD1       60.9490  -36.2100   18.1870 C.3   327  LEU327      0.0001
    113  CD2       61.9890  -36.9490   16.1210 C.3   327  LEU327      0.0001
    114  N         57.9680  -34.0930   29.6230 N.3   369  VAL369     -0.1245
    115  CA        57.1040  -33.5790   28.5500 C.3   369  VAL369      0.1561
    116  C         57.1390  -34.5580   27.3460 C.2   369  VAL369      0.2260
    117  O         58.1870  -35.0070   26.7670 O.2   369  VAL369     -0.2867
    118  CB        57.4750  -32.1310   28.1450 C.3   369  VAL369      0.0252
    119  CG1       56.4240  -31.5110   27.2340 C.3   369  VAL369      0.0019
    120  CG2       57.7720  -31.3150   29.3780 C.3   369  VAL369      0.0019
    121  N         56.0570  -34.9570   23.6360 N.3   371  SER371     -0.1202
    122  CA        55.7980  -34.2000   22.4480 C.3   371  SER371      0.2020
    123  C         56.3140  -34.8220   21.1720 C.2   371  SER371      0.2619
    124  O         57.1610  -35.6980   21.1470 O.2   371  SER371     -0.2717
    125  CB        56.5700  -32.8630   22.5560 C.3   371  SER371      0.2103
    126  OG        55.7200  -31.6980   22.1930 O.3   371  SER371     -0.2182
    127  N         55.6960  -34.2540   20.0600 N.am  372  GLY372     -0.1942
    128  CA        56.0600  -34.6260   18.6870 C.3   372  GLY372      0.2014
    129  C         55.3350  -35.7970   18.0560 C.2   372  GLY372      0.2639
    130  O         55.5130  -37.0200   18.4610 O.2   372  GLY372     -0.2714
    131  N         54.5630  -35.4380   17.0840 N.am  373  GLY373     -0.1939
    132  CA        53.6890  -36.3590   16.3010 C.3   373  GLY373      0.2014
    133  C         52.6630  -37.0530   17.2590 C.2   373  GLY373      0.2638
    134  O         52.5570  -38.2970   17.1790 O.2   373  GLY373     -0.2714
    135  N         51.9480  -36.3980   18.1440 N.am  374  ILE374     -0.1977
    136  CA        50.9570  -37.0840   18.9850 C.3   374  ILE374      0.1596
    137  C         49.5970  -36.3660   18.7060 C.2   374  ILE374      0.2287
    138  O         49.5000  -35.2060   18.3150 O.2   374  ILE374     -0.2864
    139  CB        51.2680  -37.3540   20.4810 C.3   374  ILE374      0.0276
    140  CG1       51.4280  -36.0080   21.2720 C.3   374  ILE374      0.0022
    141  CG2       52.4570  -38.3380   20.7570 C.3   374  ILE374      0.0022
    142  CD1       51.6670  -36.2010   22.7900 C.3   374  ILE374      0.0001
    143  N         52.1560  -32.3470   24.8210 N.3   393  GLN393     -0.1245
    144  CA        52.1090  -31.3330   23.8070 C.3   393  GLN393      0.1566
    145  C         51.6330  -31.5250   22.4200 C.2   393  GLN393      0.2260
    146  O         52.1490  -32.3620   21.6290 O.2   393  GLN393     -0.2867
    147  CB        53.6800  -30.8820   23.7400 C.3   393  GLN393      0.0367
    148  CG        54.0160  -30.3070   25.1320 C.3   393  GLN393      0.0905
    149  CD        55.0730  -29.2420   25.2060 C.2   393  GLN393      0.2608
    150  OE1       56.1580  -29.3340   24.5770 O.2   393  GLN393     -0.2717
    151  NE2       54.8150  -28.1710   25.9450 N.am  393  GLN393     -0.0878
    152  N         51.4960  -29.7410   18.9530 N.3   395  GLY395     -0.1210
    153  CA        51.9310  -28.8260   17.9420 C.3   395  GLY395      0.1956
    154  C         50.9490  -28.9780   16.7560 C.2   395  GLY395      0.2612
    155  O         49.9020  -28.2550   16.5670 O.2   395  GLY395     -0.2717
    156  N         51.3300  -29.9530   15.9670 N.am  396  GLY396     -0.1956
    157  CA        50.5120  -30.2390   14.7030 C.3   396  GLY396      0.1869
    158  C         49.0900  -30.5840   15.1230 C.2   396  GLY396      0.2309
    159  O         48.1040  -30.0810   14.5800 O.2   396  GLY396     -0.2863
@<TRIPOS>BOND
     1    17    18    1
     2    23    22    1
     3    23    24    1
     4    21    18    1
     5    21    22    1
     6    10    11    2
     7    10     9    1
     8    19    18    1
     9    19    20    1
    10    12     9    1
    11    12    13    1
    12    24    25    1
    13     9     8    1
    14   103   104    1
    15   103   102    1
    16   105   104    1
    17   159   158    2
    18    13    14    1
    19    14    15    1
    20   157   158    1
    21   157   156    1
    22   100    99    2
    23   101   102    2
    24   101    98    1
    25    16    15    1
    26    98    99    1
    27    98    97    1
    28    99   106   am
    29   156   154   am
    30    42    40   ar
    31   113   111    1
    32   132   131    1
    33   132   133    1
    34   155   154    2
    35   154   153    1
    36    40    41   ar
    37    40    39    1
    38    51    49   ar
    39   106   107    1
    40   111   110    1
    41   111   112    1
    42   131   129   am
    43   107   110    1
    44   107   108    1
    45   134   133    2
    46   133   135   am
    47    39    36    1
    48     4     3    2
    49   153   152    1
    50   129   130    2
    51   129   128    1
    52   108   109    2
    53    49    50   ar
    54    49    48    1
    55   135   136    1
    56   138   137    2
    57   128   127    1
    58   137   136    1
    59     3     2    1
    60    36    37    1
    61    36    35    1
    62     7     5    1
    63   136   139    1
    64    48    47    1
    65    45    46    2
    66    45    44    1
    67    37    38    2
    68    37    43   am
    69     5     2    1
    70     5     6    1
    71    43    44    1
    72     2     1    1
    73   127   123   am
    74    44    47    1
    75   139   141    1
    76   139   140    1
    77    60    61   ar
    78    60    58   ar
    79    29    28    2
    80    61    59   ar
    81   124   123    2
    82   123   122    1
    83   140   142    1
    84    73    74    1
    85    75    76    2
    86    75    74    1
    87   146   145    2
    88    80    82   ar
    89    80    78   ar
    90    82    81   ar
    91    58    57   ar
    92    28    27    1
    93    74    77    1
    94   126   125    1
    95    59    57   ar
    96   145   144    1
    97   122   125    1
    98   122   121    1
    99    34    33    1
   100    31    32    1
   101    31    30    1
   102    81    79   ar
   103    78    79   ar
   104    78    77    1
   105    65    64    2
   106    57    56    1
   107    64    63    1
   108    71    70    1
   109    26    27    1
   110    27    30    1
   111    33    32    1
   112   147   144    1
   113   147   148    1
   114   144   143    1
   115    91    89   ar
   116    91    92   ar
   117    89    88   ar
   118    56    53    1
   119    70    72    1
   120    70    69    2
   121    63    62    1
   122    63    66    1
   123    67    68    1
   124    67    66    1
   125    62    54   am
   126   150   149    2
   127    94    95    1
   128    94    93    1
   129    95    96    2
   130    54    55    2
   131    54    53    1
   132    68    69    1
   133    92    90   ar
   134   148   149    1
   135    53    52    1
   136   149   151   am
   137    88    87    1
   138    88    90   ar
   139    87    84    1
   140   117   116    2
   141    84    85    1
   142    84    83    1
   143   119   118    1
   144   116   115    1
   145    85    86    2
   146   118   115    1
   147   118   120    1
   148   115   114    1
