@<TRIPOS>MOLECULE
tmp/4ruiF01.pdb
 111 105 0 0 0
SMALL
GASTEIGER

@<TRIPOS>ATOM
      1  N        -90.3360  124.4990 -149.5050 N.3    77  PHE77      -0.1241
      2  CA       -90.4280  125.4420 -148.3820 C.3    77  PHE77       0.1605
      3  C        -91.7380  126.2170 -148.3550 C.2    77  PHE77       0.2264
      4  O        -92.4570  126.2240 -147.3440 O.2    77  PHE77      -0.2867
      5  CB       -89.2770  126.4410 -148.4090 C.3    77  PHE77       0.0534
      6  CG       -87.9470  125.8280 -148.1620 C.ar   77  PHE77      -0.0203
      7  CD1      -87.0870  125.5620 -149.2230 C.ar   77  PHE77      -0.0042
      8  CD2      -87.5580  125.4980 -146.8670 C.ar   77  PHE77      -0.0042
      9  CE1      -85.8600  124.9800 -149.0100 C.ar   77  PHE77      -0.0003
     10  CE2      -86.3200  124.9080 -146.6290 C.ar   77  PHE77      -0.0003
     11  CZ       -85.4630  124.6490 -147.7040 C.ar   77  PHE77      -0.0000
     12  N        -94.6920  128.1550 -145.7980 N.3    81  PHE81      -0.1241
     13  CA       -94.6240  129.5890 -145.5460 C.3    81  PHE81       0.1605
     14  C        -95.7340  130.3350 -146.2890 C.2    81  PHE81       0.2264
     15  O        -96.0770  131.4960 -145.9460 O.2    81  PHE81      -0.2867
     16  CB       -93.2750  130.1470 -145.9870 C.3    81  PHE81       0.0534
     17  CG       -92.1140  129.5470 -145.2860 C.ar   81  PHE81      -0.0203
     18  CD1      -91.4290  128.4840 -145.8480 C.ar   81  PHE81      -0.0042
     19  CD2      -91.6740  130.0620 -144.0760 C.ar   81  PHE81      -0.0042
     20  CE1      -90.3130  127.9250 -145.1980 C.ar   81  PHE81      -0.0003
     21  CE2      -90.5700  129.5140 -143.4150 C.ar   81  PHE81      -0.0003
     22  CZ       -89.8810  128.4480 -143.9730 C.ar   81  PHE81      -0.0000
     23  N        -88.4090  135.5670 -145.9330 N.3    87  VAL87      -0.1231
     24  CA       -87.7920  134.9730 -147.0900 C.3    87  VAL87       0.1692
     25  C        -88.7640  134.8930 -148.2370 C.2    87  VAL87       0.2592
     26  O        -88.5750  135.5630 -149.2370 O.2    87  VAL87      -0.2718
     27  CB       -87.1960  133.6030 -146.7880 C.3    87  VAL87       0.0266
     28  CG1      -86.5760  133.0120 -148.0330 C.3    87  VAL87       0.0020
     29  CG2      -86.1560  133.7400 -145.7280 C.3    87  VAL87       0.0020
     30  N        -89.8060  134.0850 -148.1020 N.am   88  PHE88      -0.1976
     31  CA       -90.6620  133.7890 -149.2520 C.3    88  PHE88       0.1639
     32  C        -91.7420  134.8460 -149.5070 C.2    88  PHE88       0.2290
     33  O        -92.6900  134.6110 -150.2530 O.2    88  PHE88      -0.2864
     34  CB       -91.1770  132.3400 -149.1950 C.3    88  PHE88       0.0560
     35  CG       -90.0610  131.3270 -149.3320 C.ar   88  PHE88      -0.0200
     36  CD1      -89.2800  130.9640 -148.2270 C.ar   88  PHE88      -0.0042
     37  CD2      -89.7290  130.7970 -150.5800 C.ar   88  PHE88      -0.0042
     38  CE1      -88.2050  130.0650 -148.3560 C.ar   88  PHE88      -0.0003
     39  CE2      -88.6600  129.8950 -150.7210 C.ar   88  PHE88      -0.0003
     40  CZ       -87.9000  129.5330 -149.6030 C.ar   88  PHE88      -0.0000
     41  N        -83.6160  119.9240 -146.1920 N.3   179  PHE179     -0.1241
     42  CA       -82.5390  120.2470 -147.1170 C.3   179  PHE179      0.1605
     43  C        -82.1620  119.0150 -147.9350 C.2   179  PHE179      0.2264
     44  O        -81.9970  119.0970 -149.1520 O.2   179  PHE179     -0.2867
     45  CB       -81.3190  120.7710 -146.3590 C.3   179  PHE179      0.0534
     46  CG       -81.3540  122.2500 -146.1020 C.ar  179  PHE179     -0.0203
     47  CD1      -82.5230  122.9700 -146.2800 C.ar  179  PHE179     -0.0042
     48  CD2      -80.2180  122.9210 -145.6820 C.ar  179  PHE179     -0.0042
     49  CE1      -82.5590  124.3320 -146.0440 C.ar  179  PHE179     -0.0003
     50  CE2      -80.2470  124.2820 -145.4440 C.ar  179  PHE179     -0.0003
     51  CZ       -81.4190  124.9880 -145.6250 C.ar  179  PHE179     -0.0000
     52  N        -87.6440  130.9330 -140.6920 N.3   267  ASN267     -0.1240
     53  CA       -86.6700  131.3480 -141.6870 C.3   267  ASN267      0.1653
     54  C        -85.3110  131.5880 -141.0860 C.2   267  ASN267      0.2266
     55  O        -84.3040  131.0500 -141.5410 O.2   267  ASN267     -0.2867
     56  CB       -87.1440  132.6270 -142.3520 C.3   267  ASN267      0.1155
     57  CG       -88.1760  132.3610 -143.4060 C.2   267  ASN267      0.2627
     58  OD1      -88.2900  131.2580 -143.9360 O.2   267  ASN267     -0.2716
     59  ND2      -88.9430  133.3850 -143.7260 N.am  267  ASN267     -0.0877
     60  N        -83.9930  127.9340 -139.6620 N.3   270  ILE270     -0.1231
     61  CA       -83.5010  127.0420 -140.7080 C.3   270  ILE270      0.1692
     62  C        -82.3380  127.6930 -141.4510 C.2   270  ILE270      0.2592
     63  O        -81.2380  127.1470 -141.4790 O.2   270  ILE270     -0.2718
     64  CB       -84.5890  126.6490 -141.7150 C.3   270  ILE270      0.0266
     65  CG1      -85.8880  126.3040 -140.9880 C.3   270  ILE270      0.0019
     66  CG2      -84.1120  125.4720 -142.5510 C.3   270  ILE270      0.0020
     67  CD1      -87.0400  125.9140 -141.9110 C.3   270  ILE270      0.0001
     68  N        -82.5830  128.8640 -142.0290 N.am  271  GLY271     -0.1957
     69  CA       -81.5770  129.5560 -142.8010 C.3   271  GLY271      0.1869
     70  C        -80.2880  129.8010 -142.0360 C.2   271  GLY271      0.2309
     71  O        -79.2080  129.9020 -142.6240 O.2   271  GLY271     -0.2863
     72  N        -77.4120  125.8010 -143.4880 N.3   275  THR275     -0.1218
     73  CA       -76.4650  126.3030 -144.4650 C.3   275  THR275      0.1862
     74  C        -75.0330  126.3400 -143.9240 C.2   275  THR275      0.2287
     75  O        -74.1130  125.9250 -144.6060 O.2   275  THR275     -0.2866
     76  CB       -76.8500  127.7000 -144.9100 C.3   275  THR275      0.1770
     77  OG1      -76.8630  128.5550 -143.7670 O.3   275  THR275     -0.2211
     78  CG2      -78.2260  127.6920 -145.5610 C.3   275  THR275      0.0375
     79  N        -75.7950  126.3910 -151.9660 N.3   336  ILE336     -0.1245
     80  CA       -77.0310  126.7000 -152.6860 C.3   336  ILE336      0.1561
     81  C        -76.7090  127.0010 -154.1480 C.2   336  ILE336      0.2260
     82  O        -76.5780  128.1560 -154.5490 O.2   336  ILE336     -0.2867
     83  CB       -77.7880  127.8890 -152.0450 C.3   336  ILE336      0.0252
     84  CG1      -77.6940  127.8470 -150.5070 C.3   336  ILE336      0.0019
     85  CG2      -79.2580  127.8980 -152.5160 C.3   336  ILE336      0.0019
     86  CD1      -78.4780  126.6910 -149.8360 C.3   336  ILE336      0.0001
     87  N        -81.7080  131.0030 -154.2170 N.3   340  LEU340     -0.1245
     88  CA       -83.1390  130.9680 -154.0840 C.3   340  LEU340      0.1561
     89  C        -83.7440  131.7980 -155.2070 C.2   340  LEU340      0.2260
     90  O        -83.2730  132.9110 -155.5200 O.2   340  LEU340     -0.2867
     91  CB       -83.5440  131.5160 -152.7340 C.3   340  LEU340      0.0270
     92  CG       -84.8130  130.9630 -152.0840 C.3   340  LEU340      0.0019
     93  CD1      -84.7160  129.4660 -151.9370 C.3   340  LEU340      0.0001
     94  CD2      -84.9990  131.5790 -150.7290 C.3   340  LEU340      0.0001
     95  N        -78.2650  137.2740 -149.1220 N.3   409  CYS409     -0.1235
     96  CA       -78.2630  136.7680 -147.7540 C.3   409  CYS409      0.1677
     97  C        -77.8320  137.8020 -146.7570 C.2   409  CYS409      0.2270
     98  O        -76.6390  138.0700 -146.6180 O.2   409  CYS409     -0.2867
     99  CB       -77.3370  135.5610 -147.6050 C.3   409  CYS409      0.0956
    100  SG       -77.3860  134.8170 -145.9470 S.3   409  CYS409     -0.0801
    101  N        -81.4930  121.7060 -154.5960 N.3   450  PHE450     -0.1241
    102  CA       -81.6690  123.0670 -154.1180 C.3   450  PHE450      0.1605
    103  C        -80.4340  123.4660 -153.3440 C.2   450  PHE450      0.2264
    104  O        -80.0470  124.6280 -153.2780 O.2   450  PHE450     -0.2867
    105  CB       -82.9040  123.1460 -153.2110 C.3   450  PHE450      0.0534
    106  CG       -82.8870  124.3310 -152.2870 C.ar  450  PHE450     -0.0203
    107  CD1      -83.1990  125.6120 -152.7630 C.ar  450  PHE450     -0.0042
    108  CD2      -82.5110  124.1830 -150.9480 C.ar  450  PHE450     -0.0042
    109  CE1      -83.1350  126.7260 -151.9170 C.ar  450  PHE450     -0.0003
    110  CE2      -82.4450  125.2920 -150.0970 C.ar  450  PHE450     -0.0003
    111  CZ       -82.7570  126.5640 -150.5820 C.ar  450  PHE450     -0.0000
@<TRIPOS>BOND
     1    90    89    2
     2    89    88    1
     3   101   102    1
     4    82    81    2
     5    87    88    1
     6    81    80    1
     7   102   103    1
     8   102   105    1
     9    88    91    1
    10   103   104    2
    11   105   106    1
    12   107   106   ar
    13   107   109   ar
    14    91    92    1
    15    80    83    1
    16    80    79    1
    17    85    83    1
    18   106   108   ar
    19    92    93    1
    20    92    94    1
    21    83    84    1
    22   109   111   ar
    23   108   110   ar
    24    39    37   ar
    25    39    40   ar
    26   111   110   ar
    27    37    35   ar
    28    84    86    1
    29    33    32    2
    30    40    38   ar
    31    32    31    1
    32     1     2    1
    33    35    34    1
    34    35    36   ar
    35    31    34    1
    36    31    30    1
    37    26    25    2
    38     7     9   ar
    39     7     6   ar
    40    44    43    2
    41    95    96    1
    42     9    11   ar
    43     5     2    1
    44     5     6    1
    45     2     3    1
    46    38    36   ar
    47     3     4    2
    48    25    30   am
    49    25    24    1
    50     6     8   ar
    51    28    27    1
    52    43    42    1
    53    96    99    1
    54    96    97    1
    55    11    10   ar
    56    99   100    1
    57    42    45    1
    58    42    41    1
    59    24    27    1
    60    24    23    1
    61     8    10   ar
    62    27    29    1
    63    97    98    2
    64    45    46    1
    65    14    15    2
    66    14    13    1
    67    47    46   ar
    68    47    49   ar
    69    46    48   ar
    70    49    51   ar
    71    16    13    1
    72    16    17    1
    73    18    17   ar
    74    18    20   ar
    75    12    13    1
    76    48    50   ar
    77    51    50   ar
    78    78    76    1
    79    17    19   ar
    80    20    22   ar
    81    76    73    1
    82    76    77    1
    83    75    74    2
    84    73    74    1
    85    73    72    1
    86    19    21   ar
    87    22    21   ar
    88    58    57    2
    89    59    57   am
    90    57    56    1
    91    69    70    1
    92    69    68    1
    93    71    70    2
    94    66    64    1
    95    56    53    1
    96    68    62   am
    97    67    65    1
    98    64    65    1
    99    64    61    1
   100    53    54    1
   101    53    52    1
   102    55    54    2
   103    63    62    2
   104    62    61    1
   105    61    60    1
