@<TRIPOS>MOLECULE
tmp/4rukB00.pdb
 234 222 0 0 0
SMALL
GASTEIGER

@<TRIPOS>ATOM
      1  N         96.7480   43.7330   25.9260 N.3     7  PRO7       -0.2102
      2  CA        97.8610   43.5640   26.8850 C.3     7  PRO7        0.1504
      3  C         99.1040   42.9510   26.2640 C.2     7  PRO7        0.2576
      4  O         98.9840   42.0950   25.4000 O.2     7  PRO7       -0.2718
      5  CB        97.2840   42.6080   27.9290 C.3     7  PRO7        0.0282
      6  CG        96.3360   41.7190   27.1080 C.3     7  PRO7        0.0208
      7  CD        95.8060   42.5920   25.9620 C.3     7  PRO7        0.0893
      8  N        100.2810   43.3580   26.7170 N.am    8  GLY8       -0.1943
      9  CA       101.4970   42.7720   26.2070 C.3     8  GLY8        0.2014
     10  C        102.7190   43.3580   26.8660 C.2     8  GLY8        0.2640
     11  O        102.6630   44.3830   27.5400 O.2     8  GLY8       -0.2714
     12  N        103.8460   42.7200   26.6380 N.am    9  THR9       -0.1936
     13  CA       105.0880   43.2260   27.1840 C.3     9  THR9        0.2028
     14  C        105.6400   44.3680   26.3440 C.2     9  THR9        0.2642
     15  O        106.1970   45.3300   26.8900 O.2     9  THR9       -0.2714
     16  CB       106.0850   42.0900   27.3230 C.3     9  THR9        0.1808
     17  OG1      105.5340   41.1510   28.2530 O.3     9  THR9       -0.2208
     18  CG2      107.4140   42.6100   27.8570 C.3     9  THR9        0.0379
     19  N        105.4550   44.2650   25.0260 N.am   10  PHE10      -0.1959
     20  CA       105.8810   45.2780   24.0680 C.3    10  PHE10       0.1771
     21  C        107.3200   45.7000   24.3660 C.2    10  PHE10       0.2619
     22  O        107.6040   46.8530   24.6960 O.2    10  PHE10      -0.2715
     23  CB       104.9220   46.4860   24.0800 C.3    10  PHE10       0.0574
     24  CG       103.4680   46.1070   23.8520 C.ar   10  PHE10      -0.0200
     25  CD1      103.0200   45.6650   22.6000 C.ar   10  PHE10      -0.0042
     26  CD2      102.5500   46.1670   24.8950 C.ar   10  PHE10      -0.0042
     27  CE1      101.6580   45.3070   22.4010 C.ar   10  PHE10      -0.0003
     28  CE2      101.2210   45.8080   24.7090 C.ar   10  PHE10      -0.0003
     29  CZ       100.7680   45.3840   23.4520 C.ar   10  PHE10      -0.0000
     30  N        108.2240   44.7420   24.2320 N.am   11  ASP11      -0.1971
     31  CA       109.6280   44.9550   24.5570 C.3    11  ASP11       0.1709
     32  C        110.5600   44.6650   23.3790 C.2    11  ASP11       0.2293
     33  O        111.1730   43.6040   23.2920 O.2    11  ASP11      -0.2864
     34  CB       110.0140   44.0890   25.7850 C.3    11  ASP11       0.1436
     35  CG       111.4680   44.2770   26.1920 C.2    11  ASP11       0.3671
     36  OD1      111.9470   45.4420   26.1620 O.co2  11  ASP11      -0.2456
     37  OD2      112.1310   43.2570   26.4930 O.co2  11  ASP11      -0.2456
     38  N        106.6220   46.4120   18.1620 N.3    14  THR14      -0.1218
     39  CA       107.0780   46.1800   16.7830 C.3    14  THR14       0.1862
     40  C        106.0230   46.5550   15.7210 C.2    14  THR14       0.2287
     41  O        104.8840   46.8760   16.0570 O.2    14  THR14      -0.2866
     42  CB       107.4650   44.7010   16.5440 C.3    14  THR14       0.1770
     43  OG1      106.2690   43.9040   16.4590 O.3    14  THR14      -0.2211
     44  CG2      108.3610   44.1470   17.6720 C.3    14  THR14       0.0375
     45  N        102.9710   44.4110   16.2350 N.3    17  HIS17      -0.1241
     46  CA       102.0280   45.0250   17.1730 C.3    17  HIS17       0.1621
     47  C        101.3550   46.2370   16.5260 C.2    17  HIS17       0.2264
     48  O        100.1440   46.4200   16.6500 O.2    17  HIS17      -0.2867
     49  CB       102.7180   45.4660   18.4830 C.3    17  HIS17       0.0745
     50  CG       103.4240   44.3680   19.2000 C.ar   17  HIS17       0.0817
     51  ND1      104.7880   44.3620   19.3860 N.ar   17  HIS17      -0.2268
     52  CD2      102.9550   43.2360   19.7860 C.ar   17  HIS17       0.1154
     53  CE1      105.1320   43.2710   20.0490 C.ar   17  HIS17       0.1986
     54  NE2      104.0390   42.5710   20.3010 N.ar   17  HIS17      -0.2212
     55  N        102.4690   45.4920   30.1340 N.3    36  ALA36      -0.1245
     56  CA       102.6820   44.7130   31.3550 C.3    36  ALA36       0.1562
     57  C        104.1150   44.8580   31.8130 C.2    36  ALA36       0.2260
     58  O        105.0250   44.7410   30.9860 O.2    36  ALA36      -0.2867
     59  CB       102.3580   43.2310   31.1130 C.3    36  ALA36       0.0290
     60  N        105.8720   42.7520   33.4010 N.3    38  SER38      -0.1217
     61  CA       106.4800   41.4420   33.1340 C.3    38  SER38       0.1889
     62  C        107.9010   41.2670   33.6940 C.2    38  SER38       0.2288
     63  O        108.8310   40.9880   32.9550 O.2    38  SER38      -0.2866
     64  CB       106.4990   41.2210   31.6190 C.3    38  SER38       0.2089
     65  OG       105.1860   41.3470   31.1080 O.3    38  SER38      -0.2183
     66  N        109.3620   38.8820   34.9390 N.3    40  LYS40      -0.1231
     67  CA       109.9770   37.5790   34.7410 C.3    40  LYS40       0.1693
     68  C        110.5500   37.4230   33.3380 C.2    40  LYS40       0.2591
     69  O        111.3930   36.5590   33.1180 O.2    40  LYS40      -0.2718
     70  CB       108.9780   36.4460   35.0380 C.3    40  LYS40       0.0285
     71  CG       109.4330   35.6220   36.2320 C.3    40  LYS40       0.0035
     72  CD       108.4800   34.5060   36.6890 C.3    40  LYS40       0.0206
     73  CE       108.1620   33.4950   35.6050 C.3    40  LYS40       0.1093
     74  NZ       106.8590   32.8260   35.8850 N.3    40  LYS40      -0.1314
     75  N        110.1250   38.2510   32.3890 N.am   41  LYS41      -0.1980
     76  CA       110.8050   38.2490   31.0970 C.3    41  LYS41       0.1596
     77  C        112.1710   38.9360   31.0710 C.2    41  LYS41       0.2287
     78  O        112.9610   38.6450   30.1710 O.2    41  LYS41      -0.2864
     79  CB       109.8080   38.5050   29.9630 C.3    41  LYS41       0.0298
     80  CG       108.4790   37.7740   30.0560 C.3    41  LYS41       0.0038
     81  CD       107.5630   38.1300   28.8630 C.3    41  LYS41       0.0206
     82  CE       106.2900   37.2700   28.8310 C.3    41  LYS41       0.1093
     83  NZ       105.3710   37.5170   29.9920 N.3    41  LYS41      -0.1314
     84  N        100.9780   48.7260   33.4880 N.3    69  PHE69      -0.1241
     85  CA       100.3980   48.1040   34.6670 C.3    69  PHE69       0.1605
     86  C        101.2650   46.9440   35.1410 C.2    69  PHE69       0.2264
     87  O        101.9650   46.2930   34.3520 O.2    69  PHE69      -0.2867
     88  CB        98.9550   47.6220   34.4150 C.3    69  PHE69       0.0534
     89  CG        98.8460   46.3250   33.6190 C.ar   69  PHE69      -0.0203
     90  CD1       99.0510   46.3030   32.2400 C.ar   69  PHE69      -0.0042
     91  CD2       98.5450   45.1280   34.2640 C.ar   69  PHE69      -0.0042
     92  CE1       98.9410   45.1220   31.5190 C.ar   69  PHE69      -0.0003
     93  CE2       98.4340   43.9300   33.5490 C.ar   69  PHE69      -0.0003
     94  CZ        98.6300   43.9290   32.1720 C.ar   69  PHE69      -0.0000
     95  N         99.8510   44.9520   37.7650 N.3    71  THR71      -0.1203
     96  CA        98.8790   44.1800   38.5150 C.3    71  THR71       0.1994
     97  C         98.3460   43.0090   37.6920 C.2    71  THR71       0.2618
     98  O         98.7390   42.8250   36.5380 O.2    71  THR71      -0.2717
     99  CB        97.7200   45.0660   38.9650 C.3    71  THR71       0.1784
    100  OG1       97.2460   45.8060   37.8380 O.3    71  THR71      -0.2211
    101  CG2       98.1790   46.0660   40.0530 C.3    71  THR71       0.0376
    102  N         97.4890   42.1980   38.3070 N.am   72  LEU72      -0.1965
    103  CA        96.8370   41.0910   37.6130 C.3    72  LEU72       0.1728
    104  C         95.9890   41.5990   36.4390 C.2    72  LEU72       0.2616
    105  O         95.1560   42.4890   36.6070 O.2    72  LEU72      -0.2715
    106  CB        95.9570   40.2910   38.5780 C.3    72  LEU72       0.0311
    107  CG        95.3320   39.0230   37.9860 C.3    72  LEU72       0.0022
    108  CD1       96.4410   37.9980   37.8160 C.3    72  LEU72       0.0001
    109  CD2       94.2150   38.4530   38.8540 C.3    72  LEU72       0.0001
    110  N         96.1940   41.0340   35.2520 N.am   73  LEU73      -0.1963
    111  CA        95.4050   41.4480   34.0890 C.3    73  LEU73       0.1728
    112  C         93.8860   41.3870   34.3590 C.2    73  LEU73       0.2616
    113  O         93.1510   42.3320   34.0560 O.2    73  LEU73      -0.2715
    114  CB        95.7820   40.6020   32.8660 C.3    73  LEU73       0.0311
    115  CG        94.9550   40.8900   31.6080 C.3    73  LEU73       0.0022
    116  CD1       95.0420   42.3700   31.2570 C.3    73  LEU73       0.0001
    117  CD2       95.4490   40.0440   30.4320 C.3    73  LEU73       0.0001
    118  N         93.4290   40.3180   35.0010 N.am   74  ALA74      -0.1977
    119  CA        92.0030   40.1600   35.2670 C.3    74  ALA74       0.1597
    120  C         91.4500   41.2640   36.1670 C.2    74  ALA74       0.2287
    121  O         90.2750   41.5870   36.1010 O.2    74  ALA74      -0.2864
    122  CB        91.7340   38.8120   35.8870 C.3    74  ALA74       0.0319
    123  N         94.2220   40.0210   21.5060 N.3    87  ARG87      -0.1245
    124  CA        95.5410   39.3830   21.4030 C.3    87  ARG87       0.1563
    125  C         95.8610   39.0650   19.9360 C.2    87  ARG87       0.2260
    126  O         94.9720   38.7270   19.1550 O.2    87  ARG87      -0.2867
    127  CB        95.5940   38.1050   22.2620 C.3    87  ARG87       0.0307
    128  CG        95.4240   38.3690   23.7620 C.3    87  ARG87       0.0489
    129  CD        96.6980   38.9440   24.4400 C.3    87  ARG87       0.2205
    130  NE        97.7360   37.9260   24.5460 N.pl3  87  ARG87      -0.0865
    131  CZ        98.9900   38.1290   24.9410 C.cat  87  ARG87       0.5346
    132  NH1       99.4090   39.3300   25.3090 N.pl3  87  ARG87       0.1354
    133  NH2       99.8310   37.1020   24.9780 N.pl3  87  ARG87       0.1354
    134  N        100.0810   34.8880   15.3780 N.3    90  ARG90      -0.1245
    135  CA       100.9740   34.8250   14.2170 C.3    90  ARG90       0.1563
    136  C        101.5120   33.4050   13.9660 C.2    90  ARG90       0.2260
    137  O        101.7820   33.0270   12.8250 O.2    90  ARG90      -0.2867
    138  CB       102.1080   35.8570   14.3880 C.3    90  ARG90       0.0307
    139  CG       102.8790   35.7350   15.7030 C.3    90  ARG90       0.0489
    140  CD       103.9610   36.8120   15.9050 C.3    90  ARG90       0.2205
    141  NE       103.3970   38.1760   15.8760 N.pl3  90  ARG90      -0.0865
    142  CZ       102.4430   38.6560   16.6890 C.cat  90  ARG90       0.5346
    143  NH1      102.0190   39.9030   16.5490 N.pl3  90  ARG90       0.1354
    144  NH2      101.9220   37.9130   17.6560 N.pl3  90  ARG90       0.1354
    145  N        101.6540   30.2630   19.3400 N.3    94  ASP94      -0.1239
    146  CA       101.0330   31.4270   19.9670 C.3    94  ASP94       0.1674
    147  C         99.5910   31.1370   20.3080 C.2    94  ASP94       0.2266
    148  O         99.1040   31.5240   21.3760 O.2    94  ASP94      -0.2867
    149  CB       101.0980   32.6510   19.0650 C.3    94  ASP94       0.1410
    150  CG       102.4680   33.2160   18.9750 C.2    94  ASP94       0.3668
    151  OD1      103.3150   32.8660   19.8290 O.co2  94  ASP94      -0.2456
    152  OD2      102.6900   34.0140   18.0540 O.co2  94  ASP94      -0.2456
    153  N         99.1700   29.0110   23.5350 N.3    97  TYR97      -0.1241
    154  CA        99.3010   29.7950   24.7430 C.3    97  TYR97       0.1605
    155  C         98.0880   30.7160   24.9140 C.2    97  TYR97       0.2264
    156  O         97.4600   30.7220   25.9770 O.2    97  TYR97      -0.2867
    157  CB       100.6010   30.5920   24.6960 C.3    97  TYR97       0.0534
    158  CG       100.7980   31.5520   25.8410 C.ar   97  TYR97      -0.0201
    159  CD1      101.2450   31.1010   27.0790 C.ar   97  TYR97      -0.0009
    160  CD2      100.5680   32.9100   25.6810 C.ar   97  TYR97      -0.0009
    161  CE1      101.4460   31.9780   28.1350 C.ar   97  TYR97       0.0417
    162  CE2      100.7640   33.7980   26.7300 C.ar   97  TYR97       0.0417
    163  CZ       101.2040   33.3250   27.9530 C.ar   97  TYR97       0.1957
    164  OH       101.3960   34.2000   29.0010 O.3    97  TYR97      -0.2866
    165  N         95.4910   30.9530   27.9940 N.3   101  LEU101     -0.1245
    166  CA        95.4040   32.2030   28.7290 C.3   101  LEU101      0.1561
    167  C         93.9740   32.7440   28.7240 C.2   101  LEU101      0.2260
    168  O         93.4820   33.2490   29.7410 O.2   101  LEU101     -0.2867
    169  CB        96.3510   33.2310   28.1290 C.3   101  LEU101      0.0270
    170  CG        96.2980   34.6210   28.7640 C.3   101  LEU101      0.0019
    171  CD1       96.5200   34.5500   30.2780 C.3   101  LEU101      0.0001
    172  CD2       97.3260   35.5190   28.0940 C.3   101  LEU101      0.0001
    173  N         91.6450   30.9240   31.1660 N.3   104  MET104     -0.1230
    174  CA        91.8390   31.2390   32.5760 C.3   104  MET104      0.1702
    175  C         91.3380   32.6300   32.9110 C.2   104  MET104      0.2592
    176  O         90.8230   32.8610   34.0040 O.2   104  MET104     -0.2718
    177  CB        93.3020   31.1410   32.9970 C.3   104  MET104      0.0401
    178  CG        93.8030   29.7410   33.2310 C.3   104  MET104      0.0596
    179  SD        95.4880   29.7710   33.8700 S.3   104  MET104     -0.1393
    180  CE        95.7240   28.0660   34.3170 C.3   104  MET104      0.0692
    181  N         91.4790   33.5530   31.9730 N.am  105  ASN105     -0.1974
    182  CA        90.8930   34.8720   32.1560 C.3   105  ASN105      0.1688
    183  C         89.3700   34.7850   32.1430 C.2   105  ASN105      0.2292
    184  O         88.6870   35.5920   32.7700 O.2   105  ASN105     -0.2864
    185  CB        91.3760   35.8340   31.0810 C.3   105  ASN105      0.1181
    186  CG        92.7300   36.4090   31.3890 C.2   105  ASN105      0.2629
    187  OD1       93.1370   36.5070   32.5530 O.2   105  ASN105     -0.2716
    188  ND2       93.4470   36.7980   30.3450 N.am  105  ASN105     -0.0877
    189  N         88.6220   34.1710   35.5920 N.3   108  LEU108     -0.1245
    190  CA        88.9420   35.2970   36.4670 C.3   108  LEU108      0.1561
    191  C         88.1380   36.5500   36.1020 C.2   108  LEU108      0.2260
    192  O         87.8560   37.3980   36.9540 O.2   108  LEU108     -0.2867
    193  CB        90.4310   35.6170   36.4030 C.3   108  LEU108      0.0270
    194  CG        91.4630   34.5370   36.7150 C.3   108  LEU108      0.0019
    195  CD1       92.8470   35.0890   36.4040 C.3   108  LEU108      0.0001
    196  CD2       91.3640   34.0410   38.1550 C.3   108  LEU108      0.0001
    197  N        107.6830   38.7580   12.5230 N.3   126  ILE126     -0.1231
    198  CA       108.4710   39.6060   13.4280 C.3   126  ILE126      0.1692
    199  C        108.2740   39.2580   14.8970 C.2   126  ILE126      0.2593
    200  O        107.1860   39.3670   15.4450 O.2   126  ILE126     -0.2718
    201  CB       108.1600   41.1120   13.2260 C.3   126  ILE126      0.0266
    202  CG1      108.6440   41.5630   11.8420 C.3   126  ILE126      0.0019
    203  CG2      108.8560   41.9590   14.3160 C.3   126  ILE126      0.0020
    204  CD1      108.2080   42.9460   11.4280 C.3   126  ILE126      0.0001
    205  N        109.3700   38.8480   15.5140 N.am  127  SER127     -0.1938
    206  CA       109.4320   38.5580   16.9390 C.3   127  SER127      0.2055
    207  C        110.0820   39.7020   17.6910 C.2   127  SER127      0.2644
    208  O        111.1330   40.2030   17.2970 O.2   127  SER127     -0.2714
    209  CB       110.2300   37.2740   17.1840 C.3   127  SER127      0.2130
    210  OG       110.7600   37.2260   18.4940 O.3   127  SER127     -0.2179
    211  N        109.4450   40.1250   18.7640 N.am  128  SER128     -0.1935
    212  CA       110.0380   41.1250   19.6290 C.3   128  SER128      0.2055
    213  C        111.4080   40.5890   20.1250 C.2   128  SER128      0.2643
    214  O        112.3990   41.3170   20.2030 O.2   128  SER128     -0.2714
    215  CB       109.0930   41.4160   20.7920 C.3   128  SER128      0.2130
    216  OG       109.4470   42.6110   21.4280 O.3   128  SER128     -0.2179
    217  N        111.4590   39.2900   20.4010 N.am  129  THR129     -0.1950
    218  CA       112.6710   38.6530   20.9030 C.3   129  THR129      0.1897
    219  C        113.8050   38.7100   19.9100 C.2   129  THR129      0.2313
    220  O        114.9370   39.0540   20.2590 O.2   129  THR129     -0.2863
    221  CB       112.4080   37.1830   21.2680 C.3   129  THR129      0.1794
    222  OG1      111.4870   37.1370   22.3610 O.3   129  THR129     -0.2208
    223  CG2      113.6840   36.5040   21.6890 C.3   129  THR129      0.0378
    224  N        115.2680   42.2120   19.5680 N.3   132  ARG132     -0.1245
    225  CA       116.2400   42.4640   20.6530 C.3   132  ARG132      0.1563
    226  C        117.6130   41.8460   20.3940 C.2   132  ARG132      0.2260
    227  O        118.6500   42.5130   20.4910 O.2   132  ARG132     -0.2867
    228  CB       115.6990   41.9160   22.0000 C.3   132  ARG132      0.0307
    229  CG       114.5250   42.7070   22.5460 C.3   132  ARG132      0.0489
    230  CD       114.2130   42.3950   24.0080 C.3   132  ARG132      0.2205
    231  NE       113.9590   40.9720   24.2310 N.pl3 132  ARG132     -0.0865
    232  CZ       112.7680   40.3980   24.0750 C.cat 132  ARG132      0.5346
    233  NH1      111.7200   41.1160   23.6740 N.pl3 132  ARG132      0.1354
    234  NH2      112.6190   39.1070   24.3030 N.pl3 132  ARG132      0.1354
@<TRIPOS>BOND
     1   204   202    1
     2   202   201    1
     3   197   198    1
     4   137   136    2
     5   201   198    1
     6   201   203    1
     7   198   199    1
     8   136   135    1
     9   135   138    1
    10   135   134    1
    11   138   139    1
    12   199   200    2
    13   199   205   am
    14   205   206    1
    15   139   140    1
    16    40    41    2
    17    40    39    1
    18   141   140    1
    19   141   142    2
    20    45    46    1
    21    43    42    1
    22    47    48    2
    23    47    46    1
    24    42    39    1
    25    42    44    1
    26   143   142    1
    27   142   144    1
    28    39    38    1
    29   206   209    1
    30   206   207    1
    31    46    49    1
    32   209   210    1
    33   208   207    2
    34   207   211   am
    35   152   150   ar
    36    49    50    1
    37   211   212    1
    38   150   149    1
    39   150   151   ar
    40   149   146    1
    41   126   125    2
    42    50    51   ar
    43    50    52   ar
    44   145   146    1
    45    51    53   ar
    46   224   225    1
    47   212   213    1
    48   212   215    1
    49    52    54   ar
    50   219   220    2
    51   219   218    1
    52   125   124    1
    53   146   147    1
    54    53    54   ar
    55   213   214    2
    56   213   217   am
    57   147   148    2
    58   226   227    2
    59   226   225    1
    60   217   218    1
    61   225   228    1
    62   215   216    1
    63   218   221    1
    64   221   223    1
    65   221   222    1
    66   124   123    1
    67   124   127    1
    68   228   229    1
    69   127   128    1
    70    27    25   ar
    71    27    29   ar
    72   229   230    1
    73    25    24   ar
    74    33    32    2
    75    32    31    1
    76    29    28   ar
    77   153   154    1
    78   233   232    1
    79   128   129    1
    80    24    23    1
    81    24    26   ar
    82   230   231    1
    83    20    23    1
    84    20    21    1
    85    20    19    1
    86   232   231    2
    87   232   234    1
    88    30    21   am
    89    30    31    1
    90    21    22    2
    91   129   130    1
    92   130   131    2
    93    31    34    1
    94   157   154    1
    95   157   158    1
    96    28    26   ar
    97   154   155    1
    98   155   156    2
    99   131   133    1
   100   131   132    1
   101    19    14   am
   102     4     3    2
   103   160   158   ar
   104   160   162   ar
   105    34    35    1
   106   158   159   ar
   107     1     7    1
   108     1     2    1
   109     7     6    1
   110    36    35   ar
   111    35    37   ar
   112     9     8    1
   113     9    10    1
   114     3     8   am
   115     3     2    1
   116    14    15    2
   117    14    13    1
   118    12    10   am
   119    12    13    1
   120   162   163   ar
   121    10    11    2
   122     2     5    1
   123   159   161   ar
   124     6     5    1
   125    13    16    1
   126    16    18    1
   127    16    17    1
   128   163   161   ar
   129   163   164    1
   130   165   166    1
   131   172   170    1
   132   169   166    1
   133   169   170    1
   134   167   166    1
   135   167   168    2
   136   170   171    1
   137    82    81    1
   138    82    83    1
   139    81    80    1
   140    79    80    1
   141    79    76    1
   142    55    56    1
   143    78    77    2
   144   188   186   am
   145   117   115    1
   146    58    57    2
   147    77    76    1
   148   185   186    1
   149   185   182    1
   150    76    75    1
   151    65    64    1
   152    59    56    1
   153   173   174    1
   154   116   115    1
   155    56    57    1
   156   186   187    2
   157    92    94   ar
   158    92    90   ar
   159   115   114    1
   160    64    61    1
   161   181   182    1
   162   181   175   am
   163   183   182    1
   164   183   184    2
   165    94    93   ar
   166    90    89   ar
   167    75    68   am
   168   174   175    1
   169   174   177    1
   170   114   111    1
   171   175   176    2
   172    63    62    2
   173   177   178    1
   174    69    68    2
   175    61    60    1
   176    61    62    1
   177   178   179    1
   178    68    67    1
   179    84    85    1
   180    93    91   ar
   181    89    91   ar
   182    89    88    1
   183   179   180    1
   184   113   112    2
   185   111   112    1
   186   111   110    1
   187    87    86    2
   188   112   118   am
   189    88    85    1
   190    85    86    1
   191    67    66    1
   192    67    70    1
   193   118   119    1
   194    70    71    1
   195   110   104   am
   196   119   122    1
   197   119   120    1
   198   189   190    1
   199    73    74    1
   200    73    72    1
   201   121   120    2
   202   191   190    1
   203   191   192    2
   204    71    72    1
   205   193   190    1
   206   193   194    1
   207   195   194    1
   208   104   105    2
   209   104   103    1
   210    98    97    2
   211   194   196    1
   212   103   102    1
   213   103   106    1
   214    97   102   am
   215    97    96    1
   216    95    96    1
   217   108   107    1
   218   100    99    1
   219   107   106    1
   220   107   109    1
   221    96    99    1
   222    99   101    1
