@<TRIPOS>MOLECULE
tmp/4rukF01.pdb
 99 95 0 0 0
SMALL
GASTEIGER

@<TRIPOS>ATOM
      1  N         76.1280   23.8990   15.1800 N.3    14  THR14      -0.1203
      2  CA        76.3180   23.2170   16.4520 C.3    14  THR14       0.1994
      3  C         76.2740   24.2000   17.5940 C.2    14  THR14       0.2617
      4  O         76.1930   25.4050   17.3740 O.2    14  THR14      -0.2717
      5  CB        77.6700   22.4610   16.5020 C.3    14  THR14       0.1784
      6  OG1       78.7360   23.3820   16.7790 O.3    14  THR14      -0.2211
      7  CG2       77.9270   21.7230   15.1850 C.3    14  THR14       0.0376
      8  N         76.3660   23.6810   18.8120 N.am   15  LYS15      -0.1979
      9  CA        76.4710   24.5270   19.9820 C.3    15  LYS15       0.1596
     10  C         77.7940   25.2860   19.9430 C.2    15  LYS15       0.2287
     11  O         77.9210   26.3720   20.5240 O.2    15  LYS15      -0.2864
     12  CB        76.3600   23.6880   21.2620 C.3    15  LYS15       0.0298
     13  CG        74.9560   23.1860   21.5500 C.3    15  LYS15       0.0038
     14  CD        74.9120   22.3940   22.8450 C.3    15  LYS15       0.0206
     15  CE        73.4810   21.9880   23.1800 C.3    15  LYS15       0.1093
     16  NZ        73.4260   21.2490   24.4620 N.3    15  LYS15      -0.1314
     17  N         76.9300   28.1960   17.8840 N.3    18  GLY18      -0.1210
     18  CA        75.9830   28.9810   18.6330 C.3    18  GLY18       0.1956
     19  C         76.6340   29.8330   19.7030 C.2    18  GLY18       0.2611
     20  O         76.2220   30.9700   19.9520 O.2    18  GLY18      -0.2717
     21  N         77.6290   29.2670   20.3670 N.am   19  ASP19      -0.1973
     22  CA        78.3380   29.9990   21.3940 C.3    19  ASP19       0.1709
     23  C         78.9830   31.2570   20.7860 C.2    19  ASP19       0.2293
     24  O         78.8620   32.3530   21.3350 O.2    19  ASP19      -0.2864
     25  CB        79.3770   29.0970   22.0610 C.3    19  ASP19       0.1436
     26  CG        80.1150   29.7900   23.1730 C.2    19  ASP19       0.3671
     27  OD1       79.4790   30.1420   24.1830 O.co2  19  ASP19      -0.2456
     28  OD2       81.3330   29.9750   23.0510 O.co2  19  ASP19      -0.2456
     29  N         78.1170   32.8470   18.1340 N.3    21  ILE21      -0.1231
     30  CA        77.0650   33.7310   17.6620 C.3    21  ILE21       0.1692
     31  C         76.4620   34.5210   18.8160 C.2    21  ILE21       0.2591
     32  O         76.2730   35.7190   18.6980 O.2    21  ILE21      -0.2718
     33  CB        75.9990   32.9380   16.9100 C.3    21  ILE21       0.0266
     34  CG1       76.6170   32.4310   15.6030 C.3    21  ILE21       0.0019
     35  CG2       74.7660   33.7970   16.6560 C.3    21  ILE21       0.0020
     36  CD1       75.8760   31.2900   14.9510 C.3    21  ILE21       0.0001
     37  N         76.2190   33.8520   19.9390 N.am   22  GLU22      -0.1979
     38  CA        75.7850   34.5170   21.1670 C.3    22  GLU22       0.1602
     39  C         76.7550   35.6380   21.5120 C.2    22  GLU22       0.2287
     40  O         76.3680   36.7680   21.7770 O.2    22  GLU22      -0.2864
     41  CB        75.7450   33.5310   22.3520 C.3    22  GLU22       0.0415
     42  CG        74.7190   32.4090   22.2660 C.3    22  GLU22       0.1163
     43  CD        73.3200   32.8460   22.6580 C.2    22  GLU22       0.3649
     44  OE1       73.1830   33.9540   23.2250 O.co2  22  GLU22      -0.2457
     45  OE2       72.3570   32.0910   22.3810 O.co2  22  GLU22      -0.2457
     46  N         68.0140   28.3230   15.5240 N.3    57  VAL57      -0.1231
     47  CA        68.9630   28.4190   16.6250 C.3    57  VAL57       0.1692
     48  C         69.2290   29.8720   17.0540 C.2    57  VAL57       0.2592
     49  O         69.6390   30.1420   18.1980 O.2    57  VAL57      -0.2718
     50  CB        70.2920   27.7020   16.2130 C.3    57  VAL57       0.0266
     51  CG1       71.5420   28.3500   16.8060 C.3    57  VAL57       0.0020
     52  CG2       70.2030   26.2020   16.5090 C.3    57  VAL57       0.0020
     53  N         68.9810   30.8180   16.1570 N.am   58  THR58      -0.1953
     54  CA        69.3560   32.1950   16.4580 C.3    58  THR58       0.1897
     55  C         68.1800   33.1690   16.5300 C.2    58  THR58       0.2313
     56  O         68.3770   34.3830   16.5890 O.2    58  THR58      -0.2863
     57  CB        70.3430   32.7080   15.4070 C.3    58  THR58       0.1794
     58  OG1       69.7350   32.6530   14.1100 O.3    58  THR58      -0.2208
     59  CG2       71.6260   31.8540   15.4210 C.3    58  THR58       0.0378
     60  N         66.1340   34.0060   18.7850 N.3    60  HIS60      -0.1226
     61  CA        66.0440   34.7970   20.0020 C.3    60  HIS60       0.1752
     62  C         67.0070   35.9850   20.0090 C.2    60  HIS60       0.2595
     63  O         66.9880   36.7840   20.9360 O.2    60  HIS60      -0.2718
     64  CB        66.3080   33.9040   21.2230 C.3    60  HIS60       0.0759
     65  CG        67.6970   33.3290   21.2700 C.ar   60  HIS60       0.0818
     66  ND1       68.1210   32.3410   20.4060 N.ar   60  HIS60      -0.2268
     67  CD2       68.7460   33.5890   22.0880 C.ar   60  HIS60       0.1154
     68  CE1       69.3740   32.0210   20.6840 C.ar   60  HIS60       0.1986
     69  NE2       69.7770   32.7630   21.7010 N.ar   60  HIS60      -0.2212
     70  N         67.8430   36.1110   18.9790 N.am   61  LEU61      -0.1980
     71  CA        68.8140   37.2030   18.9280 C.3    61  LEU61       0.1596
     72  C         68.3800   38.2420   17.9070 C.2    61  LEU61       0.2287
     73  O         68.4430   38.0090   16.6930 O.2    61  LEU61      -0.2864
     74  CB        70.2080   36.6800   18.6040 C.3    61  LEU61       0.0297
     75  CG        70.7630   35.6180   19.5520 C.3    61  LEU61       0.0022
     76  CD1       71.9840   34.9170   18.9570 C.3    61  LEU61       0.0001
     77  CD2       71.1000   36.2450   20.8880 C.3    61  LEU61       0.0001
     78  N         82.2120   23.8100   24.7670 N.3   123  TYR123     -0.1241
     79  CA        81.7760   23.5830   23.3900 C.3   123  TYR123      0.1605
     80  C         82.9570   23.5260   22.4090 C.2   123  TYR123      0.2264
     81  O         82.7500   23.4000   21.1990 O.2   123  TYR123     -0.2867
     82  CB        80.8190   24.6910   22.9500 C.3   123  TYR123      0.0534
     83  CG        79.6940   24.9570   23.9290 C.ar  123  TYR123     -0.0201
     84  CD1       78.7780   23.9700   24.2490 C.ar  123  TYR123     -0.0009
     85  CD2       79.5530   26.2080   24.5330 C.ar  123  TYR123     -0.0009
     86  CE1       77.7580   24.2080   25.1500 C.ar  123  TYR123      0.0417
     87  CE2       78.5330   26.4580   25.4300 C.ar  123  TYR123      0.0417
     88  CZ        77.6380   25.4530   25.7320 C.ar  123  TYR123      0.1957
     89  OH        76.6230   25.6910   26.6250 O.3   123  TYR123     -0.2866
     90  N         71.5770   22.0390   19.3710 N.3   146  HIS146     -0.1241
     91  CA        70.2530   22.4690   19.7710 C.3   146  HIS146      0.1621
     92  C         69.2510   21.3540   19.4200 C.2   146  HIS146      0.2264
     93  O         69.4440   20.6280   18.4380 O.2   146  HIS146     -0.2867
     94  CB        69.9310   23.7860   19.0540 C.3   146  HIS146      0.0745
     95  CG        68.5810   24.3630   19.3590 C.ar  146  HIS146      0.0817
     96  ND1       67.4100   23.8220   18.8690 N.ar  146  HIS146     -0.2268
     97  CD2       68.2260   25.4940   20.0210 C.ar  146  HIS146      0.1154
     98  CE1       66.3870   24.5630   19.2610 C.ar  146  HIS146      0.1986
     99  NE2       66.8560   25.5860   19.9550 N.ar  146  HIS146     -0.2212
@<TRIPOS>BOND
     1    58    57    1
     2    36    34    1
     3     1     2    1
     4     7     5    1
     5    57    59    1
     6    57    54    1
     7    46    47    1
     8    34    33    1
     9    53    54    1
    10    53    48   am
    11    50    52    1
    12    50    47    1
    13    50    51    1
    14     2     5    1
    15     2     3    1
    16    54    55    1
    17     5     6    1
    18    55    56    2
    19    47    48    1
    20    35    33    1
    21    73    72    2
    22    33    30    1
    23    48    49    2
    24     4     3    2
    25     3     8   am
    26    30    29    1
    27    30    31    1
    28    17    18    1
    29    72    71    1
    30    93    92    2
    31    74    71    1
    32    74    75    1
    33    18    19    1
    34    32    31    2
    35    60    61    1
    36     8     9    1
    37    31    37   am
    38    96    98   ar
    39    96    95   ar
    40    71    70    1
    41    76    75    1
    42    70    62   am
    43    94    95    1
    44    94    91    1
    45    98    99   ar
    46    95    97   ar
    47    90    91    1
    48    92    91    1
    49    75    77    1
    50    19    20    2
    51    19    21   am
    52    37    38    1
    53    10     9    1
    54    10    11    2
    55    99    97   ar
    56     9    12    1
    57    61    62    1
    58    61    64    1
    59    62    63    2
    60    21    22    1
    61    66    68   ar
    62    66    65   ar
    63    68    69   ar
    64    23    24    2
    65    23    22    1
    66    38    39    1
    67    38    41    1
    68    81    80    2
    69    64    65    1
    70    12    13    1
    71    65    67   ar
    72    22    25    1
    73    39    40    2
    74    13    14    1
    75    69    67   ar
    76    25    26    1
    77    42    41    1
    78    42    43    1
    79    45    43   ar
    80    80    79    1
    81    43    44   ar
    82    14    15    1
    83    82    79    1
    84    82    83    1
    85    28    26   ar
    86    26    27   ar
    87    15    16    1
    88    79    78    1
    89    83    84   ar
    90    83    85   ar
    91    84    86   ar
    92    85    87   ar
    93    86    88   ar
    94    87    88   ar
    95    88    89    1
