@<TRIPOS>MOLECULE
tmp/4rukD01.pdb
 129 124 0 0 0
SMALL
GASTEIGER

@<TRIPOS>ATOM
      1  N        126.2980   25.8720    8.7000 N.3     6  TYR6       -0.1228
      2  CA       125.4330   25.2000    9.6550 C.3     6  TYR6        0.1721
      3  C        125.6790   25.7720   11.0490 C.2     6  TYR6        0.2437
      4  O        126.5530   25.2950   11.7610 O.2     6  TYR6       -0.2733
      5  CB       125.7270   23.6930    9.6440 C.3     6  TYR6        0.0547
      6  CG       124.8170   22.8500   10.5020 C.ar    6  TYR6       -0.0200
      7  CD1      123.5890   23.3190   10.9240 C.ar    6  TYR6       -0.0009
      8  CD2      125.2060   21.5830   10.9090 C.ar    6  TYR6       -0.0009
      9  CE1      122.7670   22.5380   11.7130 C.ar    6  TYR6        0.0417
     10  CE2      124.3830   20.7890   11.6930 C.ar    6  TYR6        0.0417
     11  CZ       123.1720   21.2720   12.0940 C.ar    6  TYR6        0.1957
     12  OH       122.3650   20.5010   12.8870 O.3     6  TYR6       -0.2866
     13  N        124.9110   26.8010   11.4410 N.am    7  PRO7       -0.2718
     14  CA       125.1480   27.4420   12.7390 C.3     7  PRO7        0.1535
     15  C        124.3790   26.7630   13.8660 C.2     7  PRO7        0.2599
     16  O        123.2900   26.2530   13.6360 O.2     7  PRO7       -0.2715
     17  CB       124.6580   28.8750   12.5150 C.3     7  PRO7        0.0310
     18  CG       123.4940   28.7030   11.5160 C.3     7  PRO7        0.0237
     19  CD       123.8420   27.4670   10.6670 C.3     7  PRO7        0.0939
     20  N        124.9410   26.7690   15.0690 N.am    8  GLY8       -0.1955
     21  CA       124.2870   26.1880   16.2240 C.3     8  GLY8        0.1869
     22  C        125.1220   26.4100   17.4690 C.2     8  GLY8        0.2309
     23  O        126.2490   26.8460   17.3910 O.2     8  GLY8       -0.2863
     24  N        125.6370   23.8720   19.6120 N.3    10  PHE10      -0.1241
     25  CA       126.3410   22.5820   19.6640 C.3    10  PHE10       0.1605
     26  C        126.9800   22.3690   21.0340 C.2    10  PHE10       0.2264
     27  O        128.2090   22.2970   21.1550 O.2    10  PHE10      -0.2867
     28  CB       127.4020   22.4750   18.5610 C.3    10  PHE10       0.0534
     29  CG       126.8580   22.6670   17.1730 C.ar   10  PHE10      -0.0203
     30  CD1      126.0480   21.6930   16.5910 C.ar   10  PHE10      -0.0042
     31  CD2      127.1620   23.8110   16.4360 C.ar   10  PHE10      -0.0042
     32  CE1      125.5310   21.8680   15.2950 C.ar   10  PHE10      -0.0003
     33  CE2      126.6580   23.9850   15.1340 C.ar   10  PHE10      -0.0003
     34  CZ       125.8350   23.0280   14.5690 C.ar   10  PHE10      -0.0000
     35  N        125.6740   16.5620   18.7200 N.3    14  THR14      -0.1218
     36  CA       125.0600   15.2580   18.9250 C.3    14  THR14       0.1862
     37  C        125.0450   14.4400   17.6350 C.2    14  THR14       0.2287
     38  O        125.3940   14.9390   16.5680 O.2    14  THR14      -0.2866
     39  CB       123.6130   15.3890   19.4400 C.3    14  THR14       0.1770
     40  OG1      122.7350   15.7060   18.3480 O.3    14  THR14      -0.2211
     41  CG2      123.5130   16.4590   20.5400 C.3    14  THR14       0.0375
     42  N        122.4610   13.7440   16.2450 N.3    16  GLY16      -0.1210
     43  CA       121.4440   14.4360   15.4780 C.3    16  GLY16       0.1956
     44  C        122.1200   15.4270   14.5460 C.2    16  GLY16       0.2611
     45  O        121.9230   15.3900   13.3450 O.2    16  GLY16      -0.2717
     46  N        122.9640   16.2810   15.1030 N.am   17  HIS17      -0.1975
     47  CA       123.7490   17.1950   14.2930 C.3    17  HIS17       0.1656
     48  C        124.6260   16.4140   13.3300 C.2    17  HIS17       0.2291
     49  O        124.7330   16.7580   12.1660 O.2    17  HIS17      -0.2864
     50  CB       124.6490   18.0790   15.1570 C.3    17  HIS17       0.0771
     51  CG       123.9220   18.8420   16.2100 C.ar   17  HIS17       0.0820
     52  ND1      124.1860   18.6810   17.5530 N.ar   17  HIS17      -0.2267
     53  CD2      122.9360   19.7630   16.1270 C.ar   17  HIS17       0.1154
     54  CE1      123.3910   19.4700   18.2510 C.ar   17  HIS17       0.1986
     55  NE2      122.6210   20.1370   17.4100 N.ar   17  HIS17      -0.2212
     56  N        122.9790   15.2520   10.1190 N.3    20  LEU20      -0.1245
     57  CA       122.7690   16.3370    9.1660 C.3    20  LEU20       0.1561
     58  C        124.0700   16.7210    8.4950 C.2    20  LEU20       0.2260
     59  O        124.0830   17.0260    7.3080 O.2    20  LEU20      -0.2867
     60  CB       122.1420   17.5510    9.8380 C.3    20  LEU20       0.0270
     61  CG       120.7460   17.2900   10.3990 C.3    20  LEU20       0.0019
     62  CD1      120.2270   18.5480   11.0540 C.3    20  LEU20       0.0001
     63  CD2      119.7970   16.8150    9.3220 C.3    20  LEU20       0.0001
     64  N        119.7560   24.5480    8.4050 N.3    87  ARG87      -0.1231
     65  CA       119.1470   24.3450    9.7120 C.3    87  ARG87       0.1694
     66  C        118.3920   23.0110    9.7370 C.2    87  ARG87       0.2593
     67  O        117.7610   22.6090    8.7560 O.2    87  ARG87      -0.2718
     68  CB       118.2200   25.5210   10.0590 C.3    87  ARG87       0.0321
     69  CG       118.9760   26.8730   10.2320 C.3    87  ARG87       0.0489
     70  CD       119.7630   26.8940   11.5790 C.3    87  ARG87       0.2205
     71  NE       118.8650   26.9730   12.7330 N.pl3  87  ARG87      -0.0865
     72  CZ       119.2340   26.8190   14.0010 C.cat  87  ARG87       0.5346
     73  NH1      120.4940   26.5570   14.3130 N.pl3  87  ARG87       0.1354
     74  NH2      118.3280   26.9110   14.9600 N.pl3  87  ARG87       0.1354
     75  N        118.4510   22.3200   10.8640 N.am   88  GLY88      -0.1942
     76  CA       117.7560   21.0580   10.9950 C.3    88  GLY88       0.2014
     77  C        116.3380   21.2490   11.4900 C.2    88  GLY88       0.2639
     78  O        116.0700   22.1710   12.2650 O.2    88  GLY88      -0.2714
     79  N        115.4350   20.3820   11.0400 N.am   89  LEU89      -0.1963
     80  CA       114.0660   20.3410   11.5320 C.3    89  LEU89       0.1728
     81  C        113.7820   18.9300   12.0420 C.2    89  LEU89       0.2616
     82  O        113.8500   17.9840   11.2610 O.2    89  LEU89      -0.2715
     83  CB       113.0820   20.6920   10.4130 C.3    89  LEU89       0.0311
     84  CG       113.1820   22.0680    9.7540 C.3    89  LEU89       0.0022
     85  CD1      112.1860   22.1710    8.6200 C.3    89  LEU89       0.0001
     86  CD2      112.9610   23.1750   10.7610 C.3    89  LEU89       0.0001
     87  N        113.4160   18.7820   13.3160 N.am   90  ARG90      -0.1977
     88  CA       113.1240   17.4470   13.8580 C.3    90  ARG90       0.1597
     89  C        111.7290   17.4390   14.4880 C.2    90  ARG90       0.2287
     90  O        111.0950   16.3920   14.5900 O.2    90  ARG90      -0.2864
     91  CB       114.1760   16.9910   14.8880 C.3    90  ARG90       0.0334
     92  CG       114.3600   17.8910   16.0990 C.3    90  ARG90       0.0492
     93  CD       115.4460   17.3430   17.0260 C.3    90  ARG90       0.2205
     94  NE       115.6230   18.1280   18.2470 N.pl3  90  ARG90      -0.0865
     95  CZ       116.1190   19.3600   18.3020 C.cat  90  ARG90       0.5346
     96  NH1      116.2270   19.9770   19.4690 N.pl3  90  ARG90       0.1354
     97  NH2      116.5090   19.9810   17.1990 N.pl3  90  ARG90       0.1354
     98  N        110.2200   23.3500   15.9110 N.3    94  ASP94      -0.1239
     99  CA       111.4500   23.8460   15.3020 C.3    94  ASP94       0.1674
    100  C        111.1160   24.6570   14.0660 C.2    94  ASP94       0.2266
    101  O        111.6470   25.7490   13.8720 O.2    94  ASP94      -0.2867
    102  CB       112.3870   22.7060   14.8930 C.3    94  ASP94       0.1410
    103  CG       113.0430   22.0270   16.0670 C.2    94  ASP94       0.3668
    104  OD1      113.0380   22.5970   17.1810 O.co2  94  ASP94      -0.2456
    105  OD2      113.5940   20.9280   15.8570 O.co2  94  ASP94      -0.2456
    106  N        112.3050   28.2340   13.0130 N.3    98  GLU98      -0.1245
    107  CA       113.1470   28.3120   11.8290 C.3    98  GLU98       0.1567
    108  C        112.5040   29.1630   10.7370 C.2    98  GLU98       0.2260
    109  O        113.1950   29.9180   10.0580 O.2    98  GLU98      -0.2867
    110  CB       113.4780   26.9080   11.2770 C.3    98  GLU98       0.0388
    111  CG       114.2610   26.0290   12.2580 C.3    98  GLU98       0.1160
    112  CD       115.5600   26.6410   12.7060 C.2    98  GLU98       0.3649
    113  OE1      116.1320   27.4840   11.9730 O.co2  98  GLU98      -0.2457
    114  OE2      116.0130   26.2740   13.8090 O.co2  98  GLU98      -0.2457
    115  N        116.6480   15.0980   10.3150 N.3   119  PRO119     -0.2116
    116  CA       117.5260   13.9550   10.5910 C.3   119  PRO119      0.1372
    117  C        116.8050   12.6210   10.3990 C.2   119  PRO119      0.2244
    118  O        115.5780   12.5880   10.4080 O.2   119  PRO119     -0.2868
    119  CB       117.9330   14.1680   12.0470 C.3   119  PRO119      0.0268
    120  CG       116.7840   14.9130   12.6370 C.3   119  PRO119      0.0207
    121  CD       116.2300   15.7950   11.5410 C.3   119  PRO119      0.0892
    122  N        116.8440   13.3500   19.3750 N.3   126  ILE126     -0.1245
    123  CA       117.9510   13.7070   20.2720 C.3   126  ILE126      0.1561
    124  C        118.0440   15.2080   20.5730 C.2   126  ILE126      0.2260
    125  O        118.3100   16.0170   19.6870 O.2   126  ILE126     -0.2867
    126  CB       119.3010   13.2380   19.7010 C.3   126  ILE126      0.0252
    127  CG1      119.3200   11.7220   19.5740 C.3   126  ILE126      0.0019
    128  CG2      120.4690   13.7400   20.5530 C.3   126  ILE126      0.0019
    129  CD1      120.5350   11.2040   18.8180 C.3   126  ILE126      0.0001
@<TRIPOS>BOND
     1    59    58    2
     2    64    65    1
     3    58    57    1
     4    85    84    1
     5     1     2    1
     6    67    66    2
     7    57    60    1
     8    57    56    1
     9    63    61    1
    10     5     2    1
    11     5     6    1
    12     2     3    1
    13    65    66    1
    14    65    68    1
    15    66    75   am
    16    84    83    1
    17    84    86    1
    18    60    61    1
    19   109   108    2
    20    68    69    1
    21    69    70    1
    22   115   116    1
    23   115   121    1
    24   117   118    2
    25   117   116    1
    26    61    62    1
    27    83    80    1
    28     6     8   ar
    29     6     7   ar
    30   116   119    1
    31    19    13    1
    32    19    18    1
    33   108   107    1
    34    75    76    1
    35     8    10   ar
    36     7     9   ar
    37    76    77    1
    38    79    77   am
    39    79    80    1
    40     3    13   am
    41     3     4    2
    42    82    81    2
    43   110   107    1
    44   110   111    1
    45    13    14    1
    46    77    78    2
    47    18    17    1
    48    80    81    1
    49   121   120    1
    50    70    71    1
    51    10    11   ar
    52     9    11   ar
    53   107   106    1
    54   113   112   ar
    55    81    87   am
    56   119   120    1
    57    11    12    1
    58    49    48    2
    59   111   112    1
    60    17    14    1
    61   112   114   ar
    62    71    72    2
    63    14    15    1
    64    87    88    1
    65    48    47    1
    66    45    44    2
    67    16    15    2
    68    88    89    1
    69    88    91    1
    70    15    20   am
    71   101   100    2
    72    72    73    1
    73    72    74    1
    74   100    99    1
    75    47    46    1
    76    47    50    1
    77    89    90    2
    78    44    46   am
    79    44    43    1
    80    34    33   ar
    81    34    32   ar
    82    91    92    1
    83   102    99    1
    84   102   103    1
    85    20    21    1
    86    33    31   ar
    87    50    51    1
    88    32    30   ar
    89    99    98    1
    90    43    42    1
    91   105   103   ar
    92   103   104   ar
    93    92    93    1
    94    53    51   ar
    95    53    55   ar
    96    51    52   ar
    97    21    22    1
    98    31    29   ar
    99    38    37    2
   100    30    29   ar
   101    93    94    1
   102    29    28    1
   103    97    95    1
   104    23    22    2
   105    55    54   ar
   106    52    54   ar
   107    37    36    1
   108    94    95    2
   109    95    96    1
   110    40    39    1
   111    28    25    1
   112    35    36    1
   113   129   127    1
   114    36    39    1
   115   122   123    1
   116    39    41    1
   117   127   126    1
   118    24    25    1
   119    25    26    1
   120   125   124    2
   121   126   123    1
   122   126   128    1
   123   123   124    1
   124    26    27    2
