@<TRIPOS>MOLECULE
tmp/4runA00.pdb
 142 133 0 0 0
SMALL
GASTEIGER

@<TRIPOS>ATOM
      1  N        -28.9980   31.4840  -24.2540 N.3    18  PHE18      -0.1241
      2  CA       -28.2510   30.3210  -24.7370 C.3    18  PHE18       0.1605
      3  C        -29.0460   29.5180  -25.7590 C.2    18  PHE18       0.2264
      4  O        -30.0930   28.9660  -25.4230 O.2    18  PHE18      -0.2867
      5  CB       -27.9380   29.4040  -23.5620 C.3    18  PHE18       0.0534
      6  CG       -26.8560   28.4170  -23.8450 C.ar   18  PHE18      -0.0203
      7  CD1      -25.5150   28.7380  -23.6450 C.ar   18  PHE18      -0.0042
      8  CD2      -27.1820   27.1600  -24.3250 C.ar   18  PHE18      -0.0042
      9  CE1      -24.5250   27.8130  -23.9170 C.ar   18  PHE18      -0.0003
     10  CE2      -26.2010   26.2390  -24.6060 C.ar   18  PHE18      -0.0003
     11  CZ       -24.8680   26.5650  -24.4040 C.ar   18  PHE18      -0.0000
     12  N        -27.0000   24.7780  -29.1270 N.3    22  ARG22      -0.1245
     13  CA       -25.6510   24.9100  -28.5870 C.3    22  ARG22       0.1563
     14  C        -25.3510   24.0100  -27.3790 C.2    22  ARG22       0.2260
     15  O        -24.2070   23.9250  -26.9470 O.2    22  ARG22      -0.2867
     16  CB       -25.4060   26.3600  -28.1780 C.3    22  ARG22       0.0307
     17  CG       -23.9930   26.8050  -28.4390 C.3    22  ARG22       0.0489
     18  CD       -23.7680   28.2790  -28.1770 C.3    22  ARG22       0.2205
     19  NE       -22.3430   28.4500  -27.9100 N.pl3  22  ARG22      -0.0865
     20  CZ       -21.4070   28.5600  -28.8440 C.cat  22  ARG22       0.5346
     21  NH1      -21.7290   28.5740  -30.1340 N.pl3  22  ARG22       0.1354
     22  NH2      -20.1370   28.6820  -28.4770 N.pl3  22  ARG22       0.1354
     23  N        -11.2570   18.8520  -21.5660 N.3    44  PHE44      -0.1241
     24  CA       -12.4360   17.9990  -21.7060 C.3    44  PHE44       0.1605
     25  C        -12.9650   18.0560  -23.1340 C.2    44  PHE44       0.2264
     26  O        -12.5310   18.8750  -23.9440 O.2    44  PHE44      -0.2867
     27  CB       -13.5490   18.4240  -20.7490 C.3    44  PHE44       0.0534
     28  CG       -14.0030   19.8330  -20.9470 C.ar   44  PHE44      -0.0203
     29  CD1      -13.3560   20.8750  -20.3040 C.ar   44  PHE44      -0.0042
     30  CD2      -15.0790   20.1250  -21.7750 C.ar   44  PHE44      -0.0042
     31  CE1      -13.7670   22.1820  -20.4840 C.ar   44  PHE44      -0.0003
     32  CE2      -15.5000   21.4340  -21.9620 C.ar   44  PHE44      -0.0003
     33  CZ       -14.8390   22.4640  -21.3170 C.ar   44  PHE44      -0.0000
     34  N        -16.8340   17.4360  -25.4970 N.3    46  PHE46      -0.1241
     35  CA       -18.2780   17.2730  -25.4450 C.3    46  PHE46       0.1605
     36  C        -18.8560   17.2570  -26.8420 C.2    46  PHE46       0.2264
     37  O        -18.2170   17.7110  -27.7820 O.2    46  PHE46      -0.2867
     38  CB       -18.9280   18.3790  -24.6270 C.3    46  PHE46       0.0534
     39  CG       -18.7550   19.7530  -25.1990 C.ar   46  PHE46      -0.0203
     40  CD1      -17.6700   20.5330  -24.8350 C.ar   46  PHE46      -0.0042
     41  CD2      -19.6910   20.2770  -26.0730 C.ar   46  PHE46      -0.0042
     42  CE1      -17.5120   21.8030  -25.3430 C.ar   46  PHE46      -0.0003
     43  CE2      -19.5290   21.5430  -26.5950 C.ar   46  PHE46      -0.0003
     44  CZ       -18.4380   22.3070  -26.2260 C.ar   46  PHE46      -0.0000
     45  N        -21.7380   18.4630  -29.4170 N.3    48  ARG48      -0.1245
     46  CA       -22.7280   19.4640  -29.6930 C.3    48  ARG48       0.1563
     47  C        -23.3180   19.0440  -31.0370 C.2    48  ARG48       0.2260
     48  O        -22.7020   19.2500  -32.0860 O.2    48  ARG48      -0.2867
     49  CB       -22.0410   20.8250  -29.7390 C.3    48  ARG48       0.0307
     50  CG       -22.9640   22.0220  -29.7600 C.3    48  ARG48       0.0489
     51  CD       -22.1650   23.3170  -29.8880 C.3    48  ARG48       0.2205
     52  NE       -21.7900   23.8950  -28.6040 N.pl3  48  ARG48      -0.0865
     53  CZ       -20.7050   24.6380  -28.3770 C.cat  48  ARG48       0.5346
     54  NH1      -19.8250   24.8840  -29.3380 N.pl3  48  ARG48       0.1354
     55  NH2      -20.4790   25.1240  -27.1520 N.pl3  48  ARG48       0.1354
     56  N        -11.7940   21.0690  -25.7500 N.3    55  LYS55      -0.1245
     57  CA       -11.5210   22.2890  -25.0070 C.3    55  LYS55       0.1561
     58  C        -10.3050   22.0790  -24.1280 C.2    55  LYS55       0.2260
     59  O        -10.0350   20.9750  -23.6660 O.2    55  LYS55      -0.2867
     60  CB       -12.7170   22.6740  -24.1410 C.3    55  LYS55       0.0271
     61  CG       -13.9170   23.1940  -24.9140 C.3    55  LYS55       0.0035
     62  CD       -13.7060   24.6210  -25.4000 C.3    55  LYS55       0.0206
     63  CE       -14.6800   24.9770  -26.5130 C.3    55  LYS55       0.1093
     64  NZ       -14.4320   26.3310  -27.0840 N.3    55  LYS55      -0.1314
     65  N         -8.5780   24.7990  -21.3640 N.3    57  ILE57      -0.1245
     66  CA        -8.7910   26.1440  -20.8750 C.3    57  ILE57       0.1561
     67  C         -7.7920   26.5090  -19.8070 C.2    57  ILE57       0.2260
     68  O         -7.7470   25.8900  -18.7570 O.2    57  ILE57      -0.2867
     69  CB       -10.1960   26.2990  -20.2880 C.3    57  ILE57       0.0252
     70  CG1      -11.2300   25.9700  -21.3580 C.3    57  ILE57       0.0019
     71  CG2      -10.3930   27.7170  -19.7500 C.3    57  ILE57       0.0019
     72  CD1      -12.6570   26.0240  -20.8640 C.3    57  ILE57       0.0001
     73  N         -9.3980   33.1330  -20.8960 N.3    71  TYR71      -0.1241
     74  CA        -9.4190   33.8870  -22.1380 C.3    71  TYR71       0.1605
     75  C         -9.1740   35.3750  -21.8700 C.2    71  TYR71       0.2264
     76  O         -9.9760   36.2240  -22.2570 O.2    71  TYR71      -0.2867
     77  CB       -10.7510   33.6830  -22.8700 C.3    71  TYR71       0.0534
     78  CG       -11.2200   32.2370  -22.9860 C.ar   71  TYR71      -0.0201
     79  CD1      -10.6170   31.3500  -23.8670 C.ar   71  TYR71      -0.0009
     80  CD2      -12.2990   31.7750  -22.2420 C.ar   71  TYR71      -0.0009
     81  CE1      -11.0640   30.0370  -23.9860 C.ar   71  TYR71       0.0417
     82  CE2      -12.7550   30.4690  -22.3570 C.ar   71  TYR71       0.0417
     83  CZ       -12.1340   29.6030  -23.2270 C.ar   71  TYR71       0.1957
     84  OH       -12.5920   28.3040  -23.3350 O.3    71  TYR71      -0.2866
     85  N        -11.9220   37.5290  -20.2310 N.3    74  ARG74      -0.1231
     86  CA       -13.2150   37.5370  -20.9130 C.3    74  ARG74       0.1694
     87  C        -14.2500   36.7560  -20.0810 C.2    74  ARG74       0.2591
     88  O        -15.4020   37.1800  -19.9370 O.2    74  ARG74      -0.2718
     89  CB       -13.0540   36.8980  -22.2950 C.3    74  ARG74       0.0321
     90  CG       -14.2130   37.0940  -23.2580 C.3    74  ARG74       0.0489
     91  CD       -14.0670   36.1850  -24.4630 C.3    74  ARG74       0.2205
     92  NE       -14.6340   34.8760  -24.1460 N.pl3  74  ARG74      -0.0865
     93  CZ       -14.2420   33.7100  -24.6500 C.cat  74  ARG74       0.5346
     94  NH1      -13.2580   33.6340  -25.5330 N.pl3  74  ARG74       0.1354
     95  NH2      -14.8620   32.5920  -24.2610 N.pl3  74  ARG74       0.1354
     96  N        -13.8020   35.6340  -19.5190 N.am   75  LYS75      -0.1980
     97  CA       -14.6350   34.7260  -18.7450 C.3    75  LYS75       0.1596
     98  C        -14.1550   34.6510  -17.2880 C.2    75  LYS75       0.2287
     99  O        -12.9480   34.5260  -17.0330 O.2    75  LYS75      -0.2864
    100  CB       -14.5630   33.3520  -19.3970 C.3    75  LYS75       0.0298
    101  CG       -15.4900   32.2970  -18.8140 C.3    75  LYS75       0.0038
    102  CD       -15.5700   31.0920  -19.7450 C.3    75  LYS75       0.0206
    103  CE       -16.5170   30.0260  -19.2290 C.3    75  LYS75       0.1093
    104  NZ       -16.6830   28.9010  -20.1980 N.3    75  LYS75      -0.1314
    105  N        -19.3740   35.0460  -18.7610 N.3    94  ASP94      -0.1239
    106  CA       -18.5710   35.2290  -19.9810 C.3    94  ASP94       0.1674
    107  C        -18.9550   36.5130  -20.7320 C.2    94  ASP94       0.2266
    108  O        -20.0630   36.6420  -21.2590 O.2    94  ASP94      -0.2867
    109  CB       -18.7690   33.9860  -20.8640 C.3    94  ASP94       0.1410
    110  CG       -17.6390   33.7400  -21.8750 C.2    94  ASP94       0.3668
    111  OD1      -16.6550   34.5020  -21.9470 O.co2  94  ASP94      -0.2456
    112  OD2      -17.7640   32.7490  -22.6300 O.co2  94  ASP94      -0.2456
    113  N        -19.1000   37.9490  -23.6550 N.3    96  ARG96      -0.1245
    114  CA       -18.9970   37.4530  -25.0320 C.3    96  ARG96       0.1563
    115  C        -19.3760   38.5650  -25.9800 C.2    96  ARG96       0.2260
    116  O        -20.2120   39.3880  -25.6460 O.2    96  ARG96      -0.2867
    117  CB       -19.8940   36.2240  -25.2070 C.3    96  ARG96       0.0307
    118  CG       -19.2340   34.9620  -24.6970 C.3    96  ARG96       0.0489
    119  CD       -20.2410   33.8100  -24.5930 C.3    96  ARG96       0.2205
    120  NE       -20.2890   33.0560  -25.8350 N.pl3  96  ARG96      -0.0865
    121  CZ       -19.3050   32.2700  -26.2750 C.cat  96  ARG96       0.5346
    122  NH1      -18.1750   32.1480  -25.5840 N.pl3  96  ARG96       0.1354
    123  NH2      -19.4480   31.6260  -27.4220 N.pl3  96  ARG96       0.1354
    124  N        -22.8930   36.0610  -20.7930 N.3   101  ARG101     -0.1245
    125  CA       -23.4590   34.7190  -20.7020 C.3   101  ARG101      0.1563
    126  C        -23.1870   34.1030  -19.3400 C.2   101  ARG101      0.2260
    127  O        -22.0230   33.9960  -18.9440 O.2   101  ARG101     -0.2867
    128  CB       -22.8700   33.8190  -21.7980 C.3   101  ARG101      0.0307
    129  CG       -23.4420   32.4060  -21.8250 C.3   101  ARG101      0.0489
    130  CD       -23.0390   31.6810  -23.1030 C.3   101  ARG101      0.2205
    131  NE       -23.9330   31.9910  -24.2250 N.pl3 101  ARG101     -0.0865
    132  CZ       -23.6530   31.7610  -25.5070 C.cat 101  ARG101      0.5346
    133  NH1      -22.4890   31.2210  -25.8680 N.pl3 101  ARG101      0.1354
    134  NH2      -24.5390   32.0900  -26.4470 N.pl3 101  ARG101      0.1354
    135  N        -23.6530   30.6060  -16.9190 N.3   103  MET103     -0.1245
    136  CA       -23.6960   29.1710  -17.1270 C.3   103  MET103      0.1570
    137  C        -23.2390   28.4800  -15.8480 C.2   103  MET103      0.2261
    138  O        -22.2530   28.8790  -15.2280 O.2   103  MET103     -0.2867
    139  CB       -22.7970   28.8050  -18.3070 C.3   103  MET103      0.0387
    140  CG       -22.8850   27.3530  -18.7370 C.3   103  MET103      0.0595
    141  SD       -21.6840   26.9200  -20.0190 S.3   103  MET103     -0.1393
    142  CE       -21.4210   28.4880  -20.8550 C.3   103  MET103      0.0692
@<TRIPOS>BOND
     1    48    47    2
     2    47    46    1
     3    21    20    1
     4    51    50    1
     5    51    52    1
     6    50    49    1
     7    49    46    1
     8    46    45    1
     9    54    53    1
    10    12    13    1
    11    20    22    1
    12    20    19    2
    13    52    53    2
    14    13    16    1
    15    13    14    1
    16    17    16    1
    17    17    18    1
    18    53    55    1
    19    18    19    1
    20    37    36    2
    21   123   121    1
    22    14    15    2
    23    64    63    1
    24    36    35    1
    25    43    44   ar
    26    43    41   ar
    27    63    62    1
    28   134   132    1
    29   121   120    2
    30   121   122    1
    31    44    42   ar
    32    41    39   ar
    33   115   116    2
    34   115   114    1
    35   133   132    1
    36   120   119    1
    37     3     4    2
    38     3     2    1
    39    56    57    1
    40    94    93    1
    41   132   131    2
    42    34    35    1
    43    35    38    1
    44    62    61    1
    45    42    40   ar
    46   117   114    1
    47   117   118    1
    48    39    40   ar
    49    39    38    1
    50   114   113    1
    51    57    60    1
    52    57    58    1
    53    61    60    1
    54     2     1    1
    55     2     5    1
    56   118   119    1
    57    93    95    1
    58    93    92    2
    59    10    11   ar
    60    10     8   ar
    61    91    92    1
    62    91    90    1
    63    11     9   ar
    64     8     6   ar
    65   131   130    1
    66    58    59    2
    67    81    79   ar
    68    81    83   ar
    69    26    25    2
    70     9     7   ar
    71    79    78   ar
    72     6     7   ar
    73     6     5    1
    74    84    83    1
    75    90    89    1
    76    83    82   ar
    77    25    24    1
    78   130   129    1
    79    78    77    1
    80    78    80   ar
    81    77    74    1
    82   112   110   ar
    83    82    80   ar
    84    89    86    1
    85    76    75    2
    86    74    75    1
    87    74    73    1
    88    32    30   ar
    89    32    33   ar
    90   111   110   ar
    91   110   109    1
    92   129   128    1
    93   128   125    1
    94    30    28   ar
    95    24    23    1
    96    24    27    1
    97    65    66    1
    98    70    72    1
    99    70    69    1
   100    33    31   ar
   101   108   107    2
   102    28    27    1
   103    28    29   ar
   104    86    85    1
   105    86    87    1
   106    66    69    1
   107    66    67    1
   108   109   106    1
   109   142   141    1
   110   124   125    1
   111   107   106    1
   112   125   126    1
   113    31    29   ar
   114    69    71    1
   115   104   103    1
   116    87    88    2
   117    87    96   am
   118   141   140    1
   119   106   105    1
   120    67    68    2
   121   102   103    1
   122   102   101    1
   123    96    97    1
   124   100   101    1
   125   100    97    1
   126   126   127    2
   127    97    98    1
   128   140   139    1
   129   139   136    1
   130    98    99    2
   131   136   135    1
   132   136   137    1
   133   137   138    2
