@<TRIPOS>MOLECULE
tmp/4rurY00.pdb
 80 75 0 0 0
SMALL
GASTEIGER

@<TRIPOS>ATOM
      1  N         62.7090 -153.7080   12.0870 N.3    20  ALA20      -0.1231
      2  CA        61.7660 -154.1110   13.1290 C.3    20  ALA20       0.1694
      3  C         61.7930 -153.0870   14.2530 C.2    20  ALA20       0.2593
      4  O         62.8650 -152.6720   14.6960 O.2    20  ALA20      -0.2718
      5  CB        62.1080 -155.4860   13.6680 C.3    20  ALA20       0.0304
      6  N         60.6090 -152.6950   14.7130 N.am   21  THR21      -0.1939
      7  CA        60.4740 -151.6580   15.7270 C.3    21  THR21       0.2028
      8  C         59.6250 -152.1280   16.9060 C.2    21  THR21       0.2642
      9  O         58.7260 -152.9580   16.7490 O.2    21  THR21      -0.2714
     10  CB        59.8320 -150.3900   15.1310 C.3    21  THR21       0.1808
     11  OG1       58.5890 -150.7310   14.5060 O.3    21  THR21      -0.2208
     12  CG2       60.7520 -149.7570   14.0980 C.3    21  THR21       0.0379
     13  N         59.9350 -151.5990   18.0850 N.am   22  ALA22      -0.1977
     14  CA        59.0950 -151.7530   19.2680 C.3    22  ALA22       0.1597
     15  C         58.7290 -150.3500   19.7390 C.2    22  ALA22       0.2287
     16  O         59.5010 -149.6990   20.4450 O.2    22  ALA22      -0.2864
     17  CB        59.8320 -152.5180   20.3530 C.3    22  ALA22       0.0319
     18  N         61.2850 -147.2560   19.1110 N.3    25  TRP25      -0.1241
     19  CA        62.6180 -147.8580   19.1940 C.3    25  TRP25       0.1605
     20  C         62.8660 -148.8440   18.0480 C.2    25  TRP25       0.2264
     21  O         62.1040 -149.7920   17.8590 O.2    25  TRP25      -0.2867
     22  CB        62.7860 -148.5450   20.5590 C.3    25  TRP25       0.0550
     23  CG        63.8330 -149.6150   20.6160 C.ar   25  TRP25       0.0003
     24  CD1       63.6220 -150.9580   20.7370 C.ar   25  TRP25       0.0946
     25  CD2       65.2490 -149.4350   20.5680 C.ar   25  TRP25       0.0152
     26  NE1       64.8190 -151.6260   20.7620 N.ar   25  TRP25      -0.2442
     27  CE2       65.8360 -150.7150   20.6590 C.ar   25  TRP25       0.0810
     28  CE3       66.0810 -148.3160   20.4530 C.ar   25  TRP25       0.0012
     29  CZ2       67.2160 -150.9070   20.6400 C.ar   25  TRP25       0.0191
     30  CZ3       67.4520 -148.5080   20.4320 C.ar   25  TRP25       0.0001
     31  CH2       68.0050 -149.7950   20.5240 C.ar   25  TRP25       0.0015
     32  N         64.4520 -151.8230   16.8740 N.3    27  ALA27      -0.1231
     33  CA        65.0430 -153.0170   17.4730 C.3    27  ALA27       0.1694
     34  C         66.1140 -153.6350   16.5800 C.2    27  ALA27       0.2592
     35  O         67.1740 -154.0310   17.0610 O.2    27  ALA27      -0.2718
     36  CB        63.9610 -154.0400   17.7810 C.3    27  ALA27       0.0304
     37  N         65.8340 -153.7120   15.2820 N.am   28  SER28      -0.1952
     38  CA        66.7670 -154.3100   14.3290 C.3    28  SER28       0.1924
     39  C         66.6250 -153.7130   12.9350 C.2    28  SER28       0.2314
     40  O         65.5220 -153.3730   12.5070 O.2    28  SER28      -0.2863
     41  CB        66.5460 -155.8210   14.2550 C.3    28  SER28       0.2116
     42  OG        67.4060 -156.4170   13.2950 O.3    28  SER28      -0.2180
     43  N         66.6220 -157.6040    9.8930 N.3    31  VAL31      -0.1231
     44  CA        65.6140 -158.6610    9.9770 C.3    31  VAL31       0.1692
     45  C         65.4050 -159.3260    8.6180 C.2    31  VAL31       0.2591
     46  O         65.2980 -158.6470    7.6000 O.2    31  VAL31      -0.2718
     47  CB        64.2700 -158.1290   10.5160 C.3    31  VAL31       0.0266
     48  CG1       63.2020 -159.2150   10.4970 C.3    31  VAL31       0.0020
     49  CG2       64.4510 -157.6080   11.9320 C.3    31  VAL31       0.0020
     50  N         65.3510 -160.6560    8.6190 N.am   32  LYS32      -0.1980
     51  CA        65.0730 -161.4380    7.4150 C.3    32  LYS32       0.1596
     52  C         63.5650 -161.6350    7.2700 C.2    32  LYS32       0.2287
     53  O         62.9720 -162.4850    7.9420 O.2    32  LYS32      -0.2864
     54  CB        65.7770 -162.7990    7.4700 C.3    32  LYS32       0.0298
     55  CG        67.1660 -162.8200    6.8450 C.3    32  LYS32       0.0038
     56  CD        67.6110 -164.2390    6.5110 C.3    32  LYS32       0.0206
     57  CE        66.8900 -164.7870    5.2850 C.3    32  LYS32       0.1093
     58  NZ        67.2800 -166.1890    4.9700 N.3    32  LYS32      -0.1314
     59  N         57.1650 -161.8940    5.6910 N.3    45  MET45      -0.1245
     60  CA        56.8820 -161.6390    7.1060 C.3    45  MET45       0.1570
     61  C         56.2280 -160.2740    7.3120 C.2    45  MET45       0.2261
     62  O         56.8120 -159.2410    6.9870 O.2    45  MET45      -0.2867
     63  CB        58.1810 -161.7110    7.9210 C.3    45  MET45       0.0387
     64  CG        58.0450 -161.3230    9.3900 C.3    45  MET45       0.0595
     65  SD        59.6370 -161.1930   10.2310 S.3    45  MET45      -0.1393
     66  CE        60.1150 -162.9160   10.3230 C.3    45  MET45       0.0692
     67  N         56.2290 -161.3890   14.0520 N.3    49  ALA49      -0.1245
     68  CA        57.4850 -161.9680   13.5680 C.3    49  ALA49       0.1562
     69  C         57.5830 -163.4600   13.8820 C.2    49  ALA49       0.2260
     70  O         57.9730 -164.2520   13.0230 O.2    49  ALA49      -0.2867
     71  CB        58.6710 -161.2290   14.1680 C.3    49  ALA49       0.0290
     72  N         57.4820 -166.5940   11.2870 N.3    53  GLN53      -0.1245
     73  CA        58.6390 -167.4990   11.3180 C.3    53  GLN53       0.1566
     74  C         58.2230 -168.9250   11.6470 C.2    53  GLN53       0.2260
     75  O         58.5040 -169.8450   10.8870 O.2    53  GLN53      -0.2867
     76  CB        59.6890 -167.0530   12.3430 C.3    53  GLN53       0.0367
     77  CG        60.8340 -166.2410   11.7610 C.3    53  GLN53       0.0905
     78  CD        62.0270 -166.1330   12.6970 C.2    53  GLN53       0.2608
     79  OE1       62.0880 -166.7980   13.7320 O.2    53  GLN53      -0.2717
     80  NE2       62.9870 -165.2930   12.3310 N.am   53  GLN53      -0.0878
@<TRIPOS>BOND
     1    58    57    1
     2    57    56    1
     3    59    60    1
     4    56    55    1
     5    55    54    1
     6    62    61    2
     7    60    61    1
     8    60    63    1
     9    52    51    1
    10    52    53    2
    11    51    54    1
    12    51    50    1
    13    46    45    2
    14    63    64    1
    15    45    50   am
    16    45    44    1
    17    64    65    1
    18    43    44    1
    19    44    47    1
    20    65    66    1
    21    48    47    1
    22    47    49    1
    23    75    74    2
    24    72    73    1
    25    73    74    1
    26    73    76    1
    27    77    76    1
    28    77    78    1
    29     1     2    1
    30    80    78   am
    31    40    39    2
    32    78    79    2
    33    39    38    1
    34    70    69    2
    35     2     5    1
    36     2     3    1
    37    42    41    1
    38    68    69    1
    39    68    67    1
    40    68    71    1
    41    12    10    1
    42     3     4    2
    43     3     6   am
    44    41    38    1
    45    38    37    1
    46    11    10    1
    47     6     7    1
    48    10     7    1
    49    37    34   am
    50     7     8    1
    51    34    35    2
    52    34    33    1
    53     9     8    2
    54    32    33    1
    55     8    13   am
    56    33    36    1
    57    21    20    2
    58    20    19    1
    59    13    14    1
    60    18    19    1
    61    19    22    1
    62    14    15    1
    63    14    17    1
    64    15    16    2
    65    30    28   ar
    66    30    31   ar
    67    28    25   ar
    68    31    29   ar
    69    22    23    1
    70    25    23   ar
    71    25    27   ar
    72    23    24   ar
    73    29    27   ar
    74    27    26   ar
    75    24    26   ar
