@<TRIPOS>MOLECULE
tmp/4rurL00.pdb
 89 88 0 0 0
SMALL
GASTEIGER

@<TRIPOS>ATOM
      1  N          5.3150 -135.3790   29.8680 N.3   108  HIS108     -0.1241
      2  CA         4.5370 -135.3230   28.6390 C.3   108  HIS108      0.1621
      3  C          3.3130 -134.4590   28.9250 C.2   108  HIS108      0.2264
      4  O          2.4350 -134.8450   29.6980 O.2   108  HIS108     -0.2867
      5  CB         4.1400 -136.7330   28.1920 C.3   108  HIS108      0.0745
      6  CG         3.1700 -136.7670   27.0500 C.ar  108  HIS108      0.0817
      7  ND1        2.9990 -135.7140   26.1750 N.ar  108  HIS108     -0.2268
      8  CD2        2.3360 -137.7450   26.6240 C.ar  108  HIS108      0.1154
      9  CE1        2.0900 -136.0360   25.2730 C.ar  108  HIS108      0.1986
     10  NE2        1.6740 -137.2650   25.5210 N.ar  108  HIS108     -0.2212
     11  N         -0.5990 -131.4310   22.2700 N.3   124  SER124     -0.1202
     12  CA         0.2720 -132.4460   22.8640 C.3   124  SER124      0.2020
     13  C          1.7410 -132.0540   22.7040 C.2   124  SER124      0.2619
     14  O          2.1580 -131.6580   21.6170 O.2   124  SER124     -0.2717
     15  CB         0.0140 -133.7910   22.1840 C.3   124  SER124      0.2103
     16  OG         0.9470 -134.7760   22.5900 O.3   124  SER124     -0.2182
     17  N          2.5170 -132.1830   23.7830 N.am  125  PHE125     -0.1961
     18  CA         3.9210 -131.7500   23.8070 C.3   125  PHE125      0.1771
     19  C          4.8620 -132.8870   24.1910 C.2   125  PHE125      0.2620
     20  O          4.5050 -133.7450   24.9990 O.2   125  PHE125     -0.2715
     21  CB         4.1200 -130.6250   24.8270 C.3   125  PHE125      0.0574
     22  CG         3.2200 -129.4400   24.6250 C.ar  125  PHE125     -0.0200
     23  CD1        1.8880 -129.4850   25.0150 C.ar  125  PHE125     -0.0042
     24  CD2        3.7120 -128.2670   24.0760 C.ar  125  PHE125     -0.0042
     25  CE1        1.0610 -128.3920   24.8370 C.ar  125  PHE125     -0.0003
     26  CE2        2.8910 -127.1710   23.8960 C.ar  125  PHE125     -0.0003
     27  CZ         1.5630 -127.2330   24.2780 C.ar  125  PHE125     -0.0000
     28  N          6.0690 -132.8790   23.6250 N.am  126  ASP126     -0.1958
     29  CA         7.1440 -133.7560   24.0920 C.3   126  ASP126      0.1825
     30  C          7.9210 -133.0130   25.1900 C.2   126  ASP126      0.2464
     31  O          7.6710 -131.8280   25.4190 O.2   126  ASP126     -0.2730
     32  CB         8.0350 -134.2290   22.9230 C.3   126  ASP126      0.1450
     33  CG         9.0440 -133.1800   22.4530 C.2   126  ASP126      0.3671
     34  OD1        9.0090 -132.0180   22.9080 O.co2 126  ASP126     -0.2456
     35  OD2        9.8830 -133.5320   21.5960 O.co2 126  ASP126     -0.2456
     36  N          8.8430 -133.7030   25.8870 N.am  127  PRO127     -0.2727
     37  CA         9.5450 -133.0630   27.0090 C.3   127  PRO127      0.1402
     38  C         10.2660 -131.7500   26.6970 C.2   127  PRO127      0.2269
     39  O         10.3580 -130.8960   27.5770 O.2   127  PRO127     -0.2865
     40  CB        10.5550 -134.1310   27.4360 C.3   127  PRO127      0.0296
     41  CG         9.8890 -135.4150   27.0850 C.3   127  PRO127      0.0237
     42  CD         9.1590 -135.1400   25.8010 C.3   127  PRO127      0.0939
     43  N          8.3570 -129.6650   21.4380 N.3   130  SER130     -0.1202
     44  CA         7.7190 -129.8800   20.1380 C.3   130  SER130      0.2020
     45  C          6.2470 -130.1710   20.3900 C.2   130  SER130      0.2619
     46  O          5.9210 -130.9330   21.2970 O.2   130  SER130     -0.2717
     47  CB         8.3670 -131.0370   19.3720 C.3   130  SER130      0.2103
     48  OG         7.8920 -132.2950   19.8120 O.3   130  SER130     -0.2182
     49  N          5.3620 -129.5550   19.6110 N.am  131  TYR131     -0.1961
     50  CA         3.9260 -129.6980   19.8490 C.3   131  TYR131      0.1771
     51  C          3.0780 -129.7520   18.5840 C.2   131  TYR131      0.2619
     52  O          3.5360 -129.4210   17.4900 O.2   131  TYR131     -0.2715
     53  CB         3.4230 -128.5770   20.7660 C.3   131  TYR131      0.0574
     54  CG         3.2600 -127.2240   20.1040 C.ar  131  TYR131     -0.0198
     55  CD1        4.3590 -126.4090   19.8610 C.ar  131  TYR131     -0.0009
     56  CD2        2.0010 -126.7510   19.7420 C.ar  131  TYR131     -0.0009
     57  CE1        4.2100 -125.1660   19.2660 C.ar  131  TYR131      0.0417
     58  CE2        1.8430 -125.5110   19.1460 C.ar  131  TYR131      0.0417
     59  CZ         2.9500 -124.7230   18.9100 C.ar  131  TYR131      0.1957
     60  OH         2.7990 -123.4900   18.3180 O.3   131  TYR131     -0.2866
     61  N          1.8310 -130.1770   18.7680 N.am  132  GLU132     -0.1977
     62  CA         0.8690 -130.3040   17.6790 C.3   132  GLU132      0.1602
     63  C         -0.5650 -130.3210   18.1860 C.2   132  GLU132      0.2287
     64  O         -0.8450 -130.8640   19.2560 O.2   132  GLU132     -0.2864
     65  CB         1.1070 -131.6030   16.9170 C.3   132  GLU132      0.0415
     66  CG         2.0080 -131.4700   15.7090 C.3   132  GLU132      0.1163
     67  CD         1.8030 -132.6120   14.7430 C.2   132  GLU132      0.3649
     68  OE1        1.7030 -133.7700   15.2100 O.co2 132  GLU132     -0.2457
     69  OE2        1.7300 -132.3470   13.5240 O.co2 132  GLU132     -0.2457
     70  N         -4.0960 -131.9310   18.1250 N.3   134  GLU134     -0.1245
     71  CA        -4.5480 -133.2940   17.8810 C.3   134  GLU134      0.1567
     72  C         -5.9970 -133.4750   18.2930 C.2   134  GLU134      0.2260
     73  O         -6.5160 -132.7350   19.1260 O.2   134  GLU134     -0.2867
     74  CB        -3.6690 -134.2870   18.6410 C.3   134  GLU134      0.0388
     75  CG        -2.2770 -134.4400   18.0500 C.3   134  GLU134      0.1160
     76  CD        -1.4130 -135.4210   18.8150 C.2   134  GLU134      0.3649
     77  OE1       -0.5530 -136.0700   18.1820 O.co2 134  GLU134     -0.2457
     78  OE2       -1.5850 -135.5480   20.0450 O.co2 134  GLU134     -0.2457
     79  N         -5.3760 -137.8910   22.1690 N.3   137  ARG137     -0.1245
     80  CA        -4.0380 -138.1800   22.6950 C.3   137  ARG137      0.1563
     81  C         -4.0330 -138.7020   24.1310 C.2   137  ARG137      0.2260
     82  O         -4.4950 -138.0250   25.0510 O.2   137  ARG137     -0.2867
     83  CB        -3.1500 -136.9350   22.6100 C.3   137  ARG137      0.0307
     84  CG        -1.7620 -137.0870   23.2310 C.3   137  ARG137      0.0489
     85  CD        -0.9690 -138.2460   22.6390 C.3   137  ARG137      0.2205
     86  NE        -0.7300 -138.0800   21.2080 N.pl3 137  ARG137     -0.0865
     87  CZ        -0.0880 -138.9560   20.4380 C.cat 137  ARG137      0.5346
     88  NH1        0.3930 -140.0860   20.9480 N.pl3 137  ARG137      0.1354
     89  NH2        0.0750 -138.7040   19.1440 N.pl3 137  ARG137      0.1354
@<TRIPOS>BOND
     1    69    67   ar
     2    67    68   ar
     3    67    66    1
     4    66    65    1
     5    65    62    1
     6    52    51    2
     7    62    63    1
     8    62    61    1
     9    71    70    1
    10    71    72    1
    11    71    74    1
    12    75    74    1
    13    75    76    1
    14    77    76   ar
    15    63    64    2
    16    72    73    2
    17    60    59    1
    18    51    61   am
    19    51    50    1
    20    76    78   ar
    21    59    58   ar
    22    59    57   ar
    23    89    87    1
    24    58    56   ar
    25    57    55   ar
    26    47    48    1
    27    47    44    1
    28    49    50    1
    29    49    45   am
    30    56    54   ar
    31    50    53    1
    32    55    54   ar
    33    54    53    1
    34    44    45    1
    35    44    43    1
    36    45    46    2
    37    87    88    1
    38    87    86    2
    39    86    85    1
    40    35    33   ar
    41    14    13    2
    42    79    80    1
    43    15    16    1
    44    15    12    1
    45    11    12    1
    46    33    34   ar
    47    33    32    1
    48    83    80    1
    49    83    84    1
    50    85    84    1
    51    80    81    1
    52    13    12    1
    53    13    17   am
    54    32    29    1
    55    28    29    1
    56    28    19   am
    57    17    18    1
    58    18    19    1
    59    18    21    1
    60    26    24   ar
    61    26    27   ar
    62    24    22   ar
    63    29    30    1
    64    81    82    2
    65    19    20    2
    66    27    25   ar
    67    22    21    1
    68    22    23   ar
    69    25    23   ar
    70    30    31    2
    71    30    36   am
    72     9    10   ar
    73     9     7   ar
    74    10     8   ar
    75    42    36    1
    76    42    41    1
    77    36    37    1
    78     7     6   ar
    79     8     6   ar
    80    38    37    1
    81    38    39    2
    82    37    40    1
    83     6     5    1
    84    41    40    1
    85     5     2    1
    86     2     3    1
    87     2     1    1
    88     3     4    2
