@<TRIPOS>MOLECULE
tmp/4rusE02.pdb
 89 85 0 0 0
SMALL
GASTEIGER

@<TRIPOS>ATOM
      1  N         -8.4010  -24.7900   28.9780 N.3    63  ILE63      -0.1245
      2  CA        -9.5900  -24.1580   28.4020 C.3    63  ILE63       0.1561
      3  C         -9.9360  -24.8060   27.0710 C.2    63  ILE63       0.2260
      4  O         -9.0550  -25.0180   26.2290 O.2    63  ILE63      -0.2867
      5  CB        -9.3800  -22.6370   28.1610 C.3    63  ILE63       0.0252
      6  CG1       -8.7490  -21.9610   29.3790 C.3    63  ILE63       0.0019
      7  CG2      -10.6790  -21.9450   27.7500 C.3    63  ILE63       0.0019
      8  CD1       -8.0580  -20.6490   29.0430 C.3    63  ILE63       0.0001
      9  N         -4.0490  -21.0340   27.6130 N.3    76  GLY76      -0.1210
     10  CA        -4.3850  -20.4050   28.8820 C.3    76  GLY76       0.1956
     11  C         -4.8380  -21.3770   29.9540 C.2    76  GLY76       0.2612
     12  O         -5.0200  -22.5620   29.6920 O.2    76  GLY76      -0.2717
     13  N         -5.0020  -20.8800   31.1720 N.am   77  LEU77      -0.1965
     14  CA        -5.5010  -21.6900   32.2680 C.3    77  LEU77       0.1728
     15  C         -6.5780  -20.9210   33.0140 C.2    77  LEU77       0.2616
     16  O         -6.3860  -19.7560   33.3540 O.2    77  LEU77      -0.2715
     17  CB        -4.3670  -22.0710   33.2330 C.3    77  LEU77       0.0311
     18  CG        -3.2560  -22.9960   32.7290 C.3    77  LEU77       0.0022
     19  CD1       -2.1650  -23.0770   33.7910 C.3    77  LEU77       0.0001
     20  CD2       -3.7590  -24.3890   32.3630 C.3    77  LEU77       0.0001
     21  N         -7.7170  -21.5770   33.2460 N.am   78  LEU78      -0.1977
     22  CA        -8.8090  -20.9950   34.0260 C.3    78  LEU78       0.1596
     23  C         -9.5110  -22.1080   34.7970 C.2    78  LEU78       0.2287
     24  O         -9.6030  -23.2270   34.2970 O.2    78  LEU78      -0.2864
     25  CB        -9.8220  -20.2980   33.1100 C.3    78  LEU78       0.0297
     26  CG        -9.4230  -19.0750   32.2850 C.3    78  LEU78       0.0022
     27  CD1      -10.4860  -18.7510   31.2400 C.3    78  LEU78       0.0001
     28  CD2       -9.1920  -17.8750   33.1890 C.3    78  LEU78       0.0001
     29  N         -8.5670  -17.7530   37.0910 N.3    93  ASN93      -0.1240
     30  CA        -7.6530  -18.8900   37.1870 C.3    93  ASN93       0.1653
     31  C         -7.5380  -19.4140   38.6130 C.2    93  ASN93       0.2266
     32  O         -8.2820  -18.9800   39.5020 O.2    93  ASN93      -0.2867
     33  CB        -6.2870  -18.5960   36.5450 C.3    93  ASN93       0.1155
     34  CG        -5.4270  -17.6410   37.3610 C.2    93  ASN93       0.2627
     35  OD1       -5.7130  -17.3380   38.5220 O.2    93  ASN93      -0.2716
     36  ND2       -4.3520  -17.1720   36.7490 N.am   93  ASN93      -0.0877
     37  N         -5.5250  -19.0140   40.9820 N.3    95  TYR95      -0.1241
     38  CA        -5.0670  -18.0520   41.9960 C.3    95  TYR95       0.1605
     39  C         -6.0200  -16.8520   42.0970 C.2    95  TYR95       0.2264
     40  O         -5.6730  -15.8050   42.6560 O.2    95  TYR95      -0.2867
     41  CB        -3.6310  -17.5930   41.6900 C.3    95  TYR95       0.0534
     42  CG        -2.7290  -18.7480   41.3040 C.ar   95  TYR95      -0.0201
     43  CD1       -2.2930  -19.6730   42.2600 C.ar   95  TYR95      -0.0009
     44  CD2       -2.3350  -18.9270   39.9770 C.ar   95  TYR95      -0.0009
     45  CE1       -1.4900  -20.7460   41.9030 C.ar   95  TYR95       0.0417
     46  CE2       -1.5290  -19.9910   39.6100 C.ar   95  TYR95       0.0417
     47  CZ        -1.1150  -20.8950   40.5710 C.ar   95  TYR95       0.1957
     48  OH        -0.3190  -21.9470   40.1980 O.3    95  TYR95      -0.2866
     49  N         -6.9560  -14.8900   39.7750 N.3    97  ASP97      -0.1239
     50  CA        -6.6500  -13.8240   38.8340 C.3    97  ASP97       0.1674
     51  C         -7.7090  -13.8250   37.7320 C.2    97  ASP97       0.2266
     52  O         -8.2330  -14.8870   37.3590 O.2    97  ASP97      -0.2867
     53  CB        -5.2450  -13.9880   38.2580 C.3    97  ASP97       0.1410
     54  CG        -4.1560  -13.7750   39.3040 C.2    97  ASP97       0.3668
     55  OD1       -4.3060  -12.8620   40.1430 O.co2  97  ASP97      -0.2456
     56  OD2       -3.1520  -14.5160   39.2850 O.co2  97  ASP97      -0.2456
     57  N         -9.4030  -12.7270   33.9990 N.3    99  TYR99      -0.1241
     58  CA        -9.0090  -12.6250   32.6020 C.3    99  TYR99       0.1605
     59  C        -10.1780  -12.3620   31.6670 C.2    99  TYR99       0.2264
     60  O        -11.2980  -12.8240   31.9050 O.2    99  TYR99      -0.2867
     61  CB        -8.2900  -13.9020   32.1650 C.3    99  TYR99       0.0534
     62  CG        -6.9320  -13.9970   32.7760 C.ar   99  TYR99      -0.0201
     63  CD1       -6.7440  -14.6180   34.0140 C.ar   99  TYR99      -0.0009
     64  CD2       -5.8350  -13.4220   32.1440 C.ar   99  TYR99      -0.0009
     65  CE1       -5.4840  -14.6830   34.5960 C.ar   99  TYR99       0.0417
     66  CE2       -4.5770  -13.4750   32.7150 C.ar   99  TYR99       0.0417
     67  CZ        -4.4090  -14.1120   33.9360 C.ar   99  TYR99       0.1957
     68  OH        -3.1630  -14.1540   34.4940 O.3    99  TYR99      -0.2866
     69  N         -2.2140  -15.7400   22.0200 N.3   114  THR114     -0.1218
     70  CA        -3.5430  -15.4120   22.5380 C.3   114  THR114      0.1862
     71  C         -3.4630  -14.2310   23.5060 C.2   114  THR114      0.2287
     72  O         -2.9280  -14.3680   24.6090 O.2   114  THR114     -0.2866
     73  CB        -4.2280  -16.6440   23.1590 C.3   114  THR114      0.1770
     74  OG1       -4.2540  -17.6960   22.1890 O.3   114  THR114     -0.2211
     75  CG2       -5.6580  -16.3240   23.5650 C.3   114  THR114      0.0375
     76  N         -4.6620  -12.6150   26.0050 N.3   116  TRP116     -0.1241
     77  CA        -5.4350  -12.5150   27.2400 C.3   116  TRP116      0.1605
     78  C         -5.1550  -11.1950   27.9490 C.2   116  TRP116      0.2264
     79  O         -4.0100  -10.7450   28.0030 O.2   116  TRP116     -0.2867
     80  CB        -5.1120  -13.6680   28.1770 C.3   116  TRP116      0.0550
     81  CG        -5.6710  -14.9810   27.7530 C.ar  116  TRP116      0.0003
     82  CD1       -4.9850  -16.0250   27.2040 C.ar  116  TRP116      0.0946
     83  CD2       -7.0310  -15.4020   27.8520 C.ar  116  TRP116      0.0152
     84  NE1       -5.8320  -17.0790   26.9660 N.ar  116  TRP116     -0.2442
     85  CE2       -7.0970  -16.7200   27.3470 C.ar  116  TRP116      0.0810
     86  CE3       -8.2080  -14.7930   28.3170 C.ar  116  TRP116      0.0012
     87  CZ2       -8.2900  -17.4410   27.2940 C.ar  116  TRP116      0.0191
     88  CZ3       -9.3940  -15.5150   28.2690 C.ar  116  TRP116      0.0001
     89  CH2       -9.4270  -16.8220   27.7580 C.ar  116  TRP116      0.0015
@<TRIPOS>BOND
     1    69    70    1
     2    74    73    1
     3    70    73    1
     4    70    71    1
     5    73    75    1
     6    71    72    2
     7    76    77    1
     8     4     3    2
     9    84    82   ar
    10    84    85   ar
    11     3     2    1
    12    82    81   ar
    13    77    78    1
    14    77    80    1
    15    87    85   ar
    16    87    89   ar
    17    85    83   ar
    18     9    10    1
    19     7     5    1
    20    81    83   ar
    21    81    80    1
    22    89    88   ar
    23    83    86   ar
    24    78    79    2
    25     5     2    1
    26     5     6    1
    27    88    86   ar
    28     2     1    1
    29    10    11    1
    30     8     6    1
    31    12    11    2
    32    11    13   am
    33    13    14    1
    34    27    26    1
    35    59    60    2
    36    59    58    1
    37    64    66   ar
    38    64    62   ar
    39    61    58    1
    40    61    62    1
    41    14    15    1
    42    14    17    1
    43    26    25    1
    44    26    28    1
    45    20    18    1
    46    58    57    1
    47    66    67   ar
    48    18    17    1
    49    18    19    1
    50    62    63   ar
    51    15    21   am
    52    15    16    2
    53    25    22    1
    54    21    22    1
    55    67    68    1
    56    67    65   ar
    57    63    65   ar
    58    22    23    1
    59    24    23    2
    60    33    30    1
    61    33    34    1
    62    36    34   am
    63    29    30    1
    64    30    31    1
    65    52    51    2
    66    34    35    2
    67    51    50    1
    68    53    50    1
    69    53    54    1
    70    31    32    2
    71    50    49    1
    72    56    54   ar
    73    54    55   ar
    74    46    44   ar
    75    46    47   ar
    76    44    42   ar
    77    48    47    1
    78    47    45   ar
    79    37    38    1
    80    42    41    1
    81    42    43   ar
    82    41    38    1
    83    45    43   ar
    84    38    39    1
    85    39    40    2
