@<TRIPOS>MOLECULE
tmp/4ruuB00.pdb
 109 101 0 0 0
SMALL
GASTEIGER

@<TRIPOS>ATOM
      1  N         -3.7910    6.4650   18.6250 N.3    38  GLN38      -0.1245
      2  CA        -4.3780    6.5790   19.9550 C.3    38  GLN38       0.1566
      3  C         -3.6620    7.7350   20.6060 C.2    38  GLN38       0.2260
      4  O         -2.4630    7.9090   20.4060 O.2    38  GLN38      -0.2867
      5  CB        -4.1380    5.2890   20.7400 C.3    38  GLN38       0.0367
      6  CG        -4.7360    5.2070   22.1460 C.3    38  GLN38       0.0905
      7  CD        -4.3370    3.9190   22.8580 C.2    38  GLN38       0.2608
      8  OE1       -4.6710    2.8200   22.4160 O.2    38  GLN38      -0.2717
      9  NE2       -3.5980    4.0520   23.9530 N.am   38  GLN38      -0.0878
     10  N         -3.0160    9.7080   24.3390 N.3    40  LEU40      -0.1245
     11  CA        -3.1220    9.6570   25.7860 C.3    40  LEU40       0.1561
     12  C         -2.7890   11.0490   26.3080 C.2    40  LEU40       0.2260
     13  O         -1.7060   11.5680   26.0470 O.2    40  LEU40      -0.2867
     14  CB        -2.1680    8.5970   26.3400 C.3    40  LEU40       0.0270
     15  CG        -1.8660    8.5520   27.8410 C.3    40  LEU40       0.0019
     16  CD1       -3.1280    8.4330   28.6870 C.3    40  LEU40       0.0001
     17  CD2       -0.9090    7.3960   28.1420 C.3    40  LEU40       0.0001
     18  N         -6.3740   11.5140   33.4390 N.3    51  THR51      -0.1218
     19  CA        -5.9550   10.9340   32.1630 C.3    51  THR51       0.1862
     20  C         -7.1480   10.6330   31.2800 C.2    51  THR51       0.2287
     21  O         -8.2090   10.2390   31.7640 O.2    51  THR51      -0.2866
     22  CB        -5.1230    9.6340   32.3260 C.3    51  THR51       0.1770
     23  OG1       -5.9780    8.5260   32.6480 O.3    51  THR51      -0.2211
     24  CG2       -4.0280    9.7920   33.3870 C.3    51  THR51       0.0375
     25  N         -7.7430    8.6090   27.4710 N.3    53  THR53      -0.1218
     26  CA        -7.2230    7.8800   26.3180 C.3    53  THR53       0.1862
     27  C         -8.2870    7.8720   25.2420 C.2    53  THR53       0.2287
     28  O         -9.4210    7.4610   25.4910 O.2    53  THR53      -0.2866
     29  CB        -6.8760    6.4420   26.6910 C.3    53  THR53       0.1770
     30  OG1       -5.8760    6.4500   27.7180 O.3    53  THR53      -0.2211
     31  CG2       -6.3190    5.6960   25.4830 C.3    53  THR53       0.0375
     32  N        -11.0920    5.7810   27.2070 N.3    60  TYR60      -0.1241
     33  CA       -10.9390    5.2530   28.5510 C.3    60  TYR60       0.1605
     34  C        -10.4950    6.3940   29.4620 C.2    60  TYR60       0.2264
     35  O         -9.3700    6.8630   29.3740 O.2    60  TYR60      -0.2867
     36  CB        -9.9570    4.0740   28.5880 C.3    60  TYR60       0.0534
     37  CG        -9.9590    3.3390   29.9080 C.ar   60  TYR60      -0.0201
     38  CD1      -10.8950    2.3370   30.1720 C.ar   60  TYR60      -0.0009
     39  CD2       -9.0420    3.6580   30.9000 C.ar   60  TYR60      -0.0009
     40  CE1      -10.9070    1.6650   31.3850 C.ar   60  TYR60       0.0417
     41  CE2       -9.0470    2.9890   32.1190 C.ar   60  TYR60       0.0417
     42  CZ        -9.9790    1.9970   32.3560 C.ar   60  TYR60       0.1957
     43  OH        -9.9870    1.3330   33.5640 O.3    60  TYR60      -0.2866
     44  N         -9.8950    7.9740   33.2280 N.3    62  VAL62      -0.1245
     45  CA        -9.7180    7.6530   34.6420 C.3    62  VAL62       0.1561
     46  C         -8.8270    8.6810   35.3360 C.2    62  VAL62       0.2260
     47  O         -7.8110    9.1040   34.7910 O.2    62  VAL62      -0.2867
     48  CB        -9.1740    6.2050   34.8420 C.3    62  VAL62       0.0252
     49  CG1       -7.8170    6.0450   34.1990 C.3    62  VAL62       0.0019
     50  CG2       -9.1170    5.8350   36.3240 C.3    62  VAL62       0.0019
     51  N         -6.9480    9.5580   39.1840 N.3    64  PHE64      -0.1241
     52  CA        -6.5420    8.8950   40.4100 C.3    64  PHE64       0.1605
     53  C         -5.5360    9.7370   41.1610 C.2    64  PHE64       0.2264
     54  O         -4.9300   10.6540   40.6000 O.2    64  PHE64      -0.2867
     55  CB        -5.9460    7.5090   40.1270 C.3    64  PHE64       0.0534
     56  CG        -4.8290    7.5220   39.1300 C.ar   64  PHE64      -0.0203
     57  CD1       -3.5150    7.7790   39.5310 C.ar   64  PHE64      -0.0042
     58  CD2       -5.0870    7.2820   37.7920 C.ar   64  PHE64      -0.0042
     59  CE1       -2.4920    7.8030   38.6150 C.ar   64  PHE64      -0.0003
     60  CE2       -4.0580    7.2960   36.8550 C.ar   64  PHE64      -0.0003
     61  CZ        -2.7540    7.5630   37.2770 C.ar   64  PHE64      -0.0000
     62  N         -0.9610   -2.1000   35.1570 N.3   106  TRP106     -0.1241
     63  CA        -0.0980   -1.4870   34.1580 C.3   106  TRP106      0.1605
     64  C          1.1150   -0.8350   34.7830 C.2   106  TRP106      0.2264
     65  O          1.1800   -0.6430   35.9900 O.2   106  TRP106     -0.2867
     66  CB        -0.8470   -0.4870   33.2600 C.3   106  TRP106      0.0550
     67  CG        -1.6930    0.5550   33.9380 C.ar  106  TRP106      0.0003
     68  CD1       -3.0510    0.5690   34.0080 C.ar  106  TRP106      0.0946
     69  CD2       -1.2480    1.7830   34.5620 C.ar  106  TRP106      0.0152
     70  NE1       -3.4930    1.7010   34.6550 N.ar  106  TRP106     -0.2442
     71  CE2       -2.4020    2.4590   35.0050 C.ar  106  TRP106      0.0810
     72  CE3        0.0120    2.3630   34.7970 C.ar  106  TRP106      0.0012
     73  CZ2       -2.3300    3.6920   35.6850 C.ar  106  TRP106      0.0191
     74  CZ3        0.0760    3.5710   35.4750 C.ar  106  TRP106      0.0001
     75  CH2       -1.0830    4.2210   35.9030 C.ar  106  TRP106      0.0015
     76  N          3.9050    2.4410   33.6920 N.3   108  LYS108     -0.1245
     77  CA         4.1100    3.5360   32.7530 C.3   108  LYS108      0.1561
     78  C          5.3940    4.2610   33.1220 C.2   108  LYS108      0.2260
     79  O          5.6080    4.5810   34.2990 O.2   108  LYS108     -0.2867
     80  CB         2.9140    4.4800   32.8540 C.3   108  LYS108      0.0271
     81  CG         2.8170    5.5400   31.7960 C.3   108  LYS108      0.0035
     82  CD         1.6080    6.4330   32.0300 C.3   108  LYS108      0.0206
     83  CE         0.2930    5.6890   31.9560 C.3   108  LYS108      0.1093
     84  NZ        -0.8040    6.5090   32.5550 N.3   108  LYS108     -0.1314
     85  N          4.0560    2.3020   27.9870 N.3   117  LEU117     -0.1245
     86  CA         2.9750    1.7330   28.7750 C.3   117  LEU117      0.1561
     87  C          2.9610    0.2170   28.5940 C.2   117  LEU117      0.2260
     88  O          2.9470   -0.2800   27.4590 O.2   117  LEU117     -0.2867
     89  CB         1.6460    2.3240   28.3130 C.3   117  LEU117      0.0270
     90  CG         0.3770    1.7420   28.9370 C.3   117  LEU117      0.0019
     91  CD1        0.3910    1.9470   30.4490 C.3   117  LEU117      0.0001
     92  CD2       -0.8490    2.3880   28.3260 C.3   117  LEU117      0.0001
     93  N          0.5590   -2.8350   29.6050 N.3   119  LEU119     -0.1245
     94  CA        -0.7080   -3.3000   30.1700 C.3   119  LEU119      0.1561
     95  C         -0.6200   -4.7980   30.3950 C.2   119  LEU119      0.2260
     96  O         -0.1960   -5.5270   29.4930 O.2   119  LEU119     -0.2867
     97  CB        -1.8450   -3.0080   29.2030 C.3   119  LEU119      0.0270
     98  CG        -2.1020   -1.5410   28.8640 C.3   119  LEU119      0.0019
     99  CD1       -2.7600   -1.4440   27.4900 C.3   119  LEU119      0.0001
    100  CD2       -3.0150   -0.9630   29.9300 C.3   119  LEU119      0.0001
    101  N          2.8980   -0.5470   24.6380 N.3   128  GLN128     -0.1245
    102  CA         2.5550    0.5890   23.8040 C.3   128  GLN128      0.1566
    103  C          3.6120    1.6650   23.9840 C.2   128  GLN128      0.2260
    104  O          4.1420    1.8510   25.0860 O.2   128  GLN128     -0.2867
    105  CB         1.1500    1.1220   24.1290 C.3   128  GLN128      0.0367
    106  CG         0.0220    0.0600   24.0120 C.3   128  GLN128      0.0905
    107  CD        -1.3700    0.6360   24.2440 C.2   128  GLN128      0.2608
    108  OE1       -1.5270    1.7250   24.8110 O.2   128  GLN128     -0.2717
    109  NE2       -2.3930   -0.0830   23.7830 N.am  128  GLN128     -0.0878
@<TRIPOS>BOND
     1     1     2    1
     2     2     3    1
     3     2     5    1
     4     4     3    2
     5     5     6    1
     6     6     7    1
     7     8     7    2
     8     7     9   am
     9   109   107   am
    10   102   103    1
    11   102   105    1
    12   102   101    1
    13   103   104    2
    14   106   105    1
    15   106   107    1
    16   107   108    2
    17    10    11    1
    18    27    28    2
    19    27    26    1
    20    31    29    1
    21    11    12    1
    22    11    14    1
    23    13    12    2
    24    26    29    1
    25    26    25    1
    26    14    15    1
    27    29    30    1
    28    32    33    1
    29    88    87    2
    30    99    98    1
    31    15    17    1
    32    15    16    1
    33    85    86    1
    34    89    86    1
    35    89    90    1
    36    92    90    1
    37    33    36    1
    38    33    34    1
    39    36    37    1
    40    87    86    1
    41    98    97    1
    42    98   100    1
    43    90    91    1
    44    97    94    1
    45    35    34    2
    46    96    95    2
    47    93    94    1
    48    37    38   ar
    49    37    39   ar
    50    94    95    1
    51    38    40   ar
    52    39    41   ar
    53    20    21    2
    54    20    19    1
    55    40    42   ar
    56    81    82    1
    57    81    80    1
    58    83    82    1
    59    83    84    1
    60    41    42   ar
    61    19    22    1
    62    19    18    1
    63    22    23    1
    64    22    24    1
    65    42    43    1
    66    77    80    1
    67    77    78    1
    68    77    76    1
    69    78    79    2
    70    44    45    1
    71    66    67    1
    72    66    63    1
    73    67    68   ar
    74    67    69   ar
    75    68    70   ar
    76    63    64    1
    77    63    62    1
    78    49    48    1
    79    69    72   ar
    80    69    71   ar
    81    45    48    1
    82    45    46    1
    83    70    71   ar
    84    64    65    2
    85    47    46    2
    86    72    74   ar
    87    48    50    1
    88    71    73   ar
    89    74    75   ar
    90    73    75   ar
    91    60    61   ar
    92    60    58   ar
    93    61    59   ar
    94    58    56   ar
    95    59    57   ar
    96    56    57   ar
    97    56    55    1
    98    51    52    1
    99    55    52    1
   100    52    53    1
   101    54    53    2
