@<TRIPOS>MOLECULE
tmp/4ruyA00.pdb
 137 133 0 0 0
SMALL
GASTEIGER

@<TRIPOS>ATOM
      1  N        -12.6920    6.2810   11.1060 N.3    89  GLN89      -0.1245
      2  CA       -12.4130    5.1230   10.2600 C.3    89  GLN89       0.1566
      3  C        -12.6460    3.8580   11.0470 C.2    89  GLN89       0.2260
      4  O        -12.6430    3.8890   12.2770 O.2    89  GLN89      -0.2867
      5  CB       -10.9610    5.1550    9.7620 C.3    89  GLN89       0.0367
      6  CG        -9.9230    5.3060   10.8690 C.3    89  GLN89       0.0905
      7  CD        -9.1370    4.0260   11.1480 C.2    89  GLN89       0.2608
      8  OE1       -9.6650    2.9090   11.0860 O.2    89  GLN89      -0.2717
      9  NE2       -7.8630    4.1910   11.4860 N.am   89  GLN89      -0.0878
     10  N        -11.2310   -0.4230   10.7990 N.3    91  HIS91      -0.1241
     11  CA       -10.3520   -1.3910   10.1840 C.3    91  HIS91       0.1621
     12  C        -10.4070   -2.6600   11.0230 C.2    91  HIS91       0.2264
     13  O        -11.0400   -2.6990   12.0850 O.2    91  HIS91      -0.2867
     14  CB        -8.9270   -0.8540   10.1460 C.3    91  HIS91       0.0745
     15  CG        -8.3680   -0.5910   11.5060 C.ar   91  HIS91       0.0817
     16  ND1       -8.5050    0.6220   12.1460 N.ar   91  HIS91      -0.2268
     17  CD2       -7.7160   -1.4010   12.3720 C.ar   91  HIS91       0.1154
     18  CE1       -7.9460    0.5500   13.3430 C.ar   91  HIS91       0.1986
     19  NE2       -7.4730   -0.6730   13.5120 N.ar   91  HIS91      -0.2212
     20  N         -8.0530   -6.3470   12.3500 N.3    93  HIS93      -0.1241
     21  CA        -6.8290   -7.1390   12.4730 C.3    93  HIS93       0.1621
     22  C         -7.2540   -8.5920   12.3690 C.2    93  HIS93       0.2264
     23  O         -8.3070   -8.9690   12.8930 O.2    93  HIS93      -0.2867
     24  CB        -6.1390   -6.8900   13.8110 C.3    93  HIS93       0.0745
     25  CG        -5.8710   -5.4420   14.0690 C.ar   93  HIS93       0.0817
     26  ND1       -4.6370   -4.8630   13.8670 N.ar   93  HIS93      -0.2268
     27  CD2       -6.6970   -4.4360   14.4530 C.ar   93  HIS93       0.1154
     28  CE1       -4.7100   -3.5680   14.1410 C.ar   93  HIS93       0.1986
     29  NE2       -5.9500   -3.2850   14.4940 N.ar   93  HIS93      -0.2212
     30  N        -12.0020   -2.5960   14.7160 N.3   116  HIS116     -0.1241
     31  CA       -11.7560   -1.3740   15.4680 C.3   116  HIS116      0.1621
     32  C        -12.4460   -0.2010   14.7900 C.2   116  HIS116      0.2264
     33  O        -12.0820    0.1760   13.6720 O.2   116  HIS116     -0.2867
     34  CB       -10.2510   -1.1060   15.5390 C.3   116  HIS116      0.0745
     35  CG        -9.5400   -2.0540   16.4410 C.ar  116  HIS116      0.0817
     36  ND1       -8.1750   -2.2640   16.4060 N.ar  116  HIS116     -0.2268
     37  CD2      -10.0330   -2.8810   17.3930 C.ar  116  HIS116      0.1154
     38  CE1       -7.8610   -3.1740   17.3140 C.ar  116  HIS116      0.1986
     39  NE2       -8.9670   -3.5580   17.9300 N.ar  116  HIS116     -0.2212
     40  N        -12.7580    3.5800   15.0960 N.3   118  VAL118     -0.1245
     41  CA       -11.9030    4.5970   15.6980 C.3   118  VAL118      0.1561
     42  C        -12.6010    5.9430   15.7270 C.2   118  VAL118      0.2260
     43  O        -13.0540    6.4330   14.6890 O.2   118  VAL118     -0.2867
     44  CB       -10.5890    4.7150   14.9030 C.3   118  VAL118      0.0252
     45  CG1       -9.6570    5.7550   15.5460 C.3   118  VAL118      0.0019
     46  CG2       -9.9180    3.3420   14.7670 C.3   118  VAL118      0.0019
     47  N         -8.2770   14.7570   14.5830 N.3   127  PHE127     -0.1241
     48  CA        -7.6850   13.4890   14.9690 C.3   127  PHE127      0.1605
     49  C         -6.2180   13.6570   15.3740 C.2   127  PHE127      0.2264
     50  O         -5.7830   13.0820   16.3710 O.2   127  PHE127     -0.2867
     51  CB        -7.8410   12.5020   13.8160 C.3   127  PHE127      0.0534
     52  CG        -7.1580   11.1930   14.0400 C.ar  127  PHE127     -0.0203
     53  CD1       -7.7850   10.1770   14.7480 C.ar  127  PHE127     -0.0042
     54  CD2       -5.8790   10.9710   13.5530 C.ar  127  PHE127     -0.0042
     55  CE1       -7.1500    8.9550   14.9490 C.ar  127  PHE127     -0.0003
     56  CE2       -5.2390    9.7570   13.7610 C.ar  127  PHE127     -0.0003
     57  CZ        -5.8800    8.7540   14.4600 C.ar  127  PHE127     -0.0000
     58  N         -4.8490   12.4990   19.1980 N.3   131  VAL131     -0.1245
     59  CA        -3.9380   11.4050   19.5630 C.3   131  VAL131      0.1561
     60  C         -2.8300   11.8360   20.5220 C.2   131  VAL131      0.2260
     61  O         -2.1170   10.9990   21.0740 O.2   131  VAL131     -0.2867
     62  CB        -3.3230   10.6850   18.3390 C.3   131  VAL131      0.0252
     63  CG1       -4.4220   10.0640   17.4890 C.3   131  VAL131      0.0019
     64  CG2       -2.4510   11.6270   17.5130 C.3   131  VAL131      0.0019
     65  N         -8.9250    9.5010   21.9950 N.3   137  LEU137     -0.1245
     66  CA        -9.6280    8.5440   21.1400 C.3   137  LEU137      0.1561
     67  C        -10.5050    7.6150   21.9470 C.2   137  LEU137      0.2260
     68  O        -10.2120    7.3160   23.1050 O.2   137  LEU137     -0.2867
     69  CB        -8.6400    7.6760   20.3630 C.3   137  LEU137      0.0270
     70  CG        -7.7390    8.3340   19.3220 C.3   137  LEU137      0.0019
     71  CD1       -7.0680    7.2650   18.4760 C.3   137  LEU137      0.0001
     72  CD2       -8.4490    9.3760   18.4530 C.3   137  LEU137      0.0001
     73  N        -11.8490    3.7930   20.9430 N.3   139  VAL139     -0.1245
     74  CA       -11.9090    2.7390   19.9420 C.3   139  VAL139      0.1561
     75  C        -12.8620    1.6740   20.4400 C.2   139  VAL139      0.2260
     76  O        -12.7200    1.1580   21.5550 O.2   139  VAL139     -0.2867
     77  CB       -10.5260    2.1530   19.5890 C.3   139  VAL139      0.0252
     78  CG1      -10.6770    1.1560   18.4640 C.3   139  VAL139      0.0019
     79  CG2       -9.5730    3.2670   19.1750 C.3   139  VAL139      0.0019
     80  N         -2.9430    3.1400   21.0860 N.3   194  LEU194     -0.1231
     81  CA        -2.9790    2.6030   19.7400 C.3   194  LEU194      0.1693
     82  C         -2.2440    1.2780   19.7570 C.2   194  LEU194      0.2593
     83  O         -1.2480    1.1380   20.4650 O.2   194  LEU194     -0.2718
     84  CB        -2.2430    3.5260   18.7770 C.3   194  LEU194      0.0284
     85  CG        -2.7060    4.9800   18.7200 C.3   194  LEU194      0.0019
     86  CD1       -1.8800    5.7770   17.7070 C.3   194  LEU194      0.0001
     87  CD2       -4.1960    5.0850   18.4110 C.3   194  LEU194      0.0001
     88  N         -2.7090    0.3080   18.9770 N.am  195  THR195     -0.1939
     89  CA        -2.0400   -0.9880   18.9350 C.3   195  THR195      0.2028
     90  C         -1.0040   -1.0870   17.8190 C.2   195  THR195      0.2643
     91  O         -0.3930   -2.1490   17.6480 O.2   195  THR195     -0.2714
     92  CB        -3.0350   -2.1460   18.7610 C.3   195  THR195      0.1808
     93  OG1       -3.6520   -2.0290   17.4740 O.3   195  THR195     -0.2208
     94  CG2       -4.1020   -2.1160   19.8490 C.3   195  THR195      0.0379
     95  N         -0.8220   -0.0100   17.0550 N.am  196  THR196     -0.1937
     96  CA         0.2760    0.0540   16.0950 C.3   196  THR196      0.2013
     97  C          1.0880    1.2920   16.3970 C.2   196  THR196      0.2484
     98  O          0.5850    2.2260   17.0210 O.2   196  THR196     -0.2729
     99  CB        -0.2170    0.1650   14.6380 C.3   196  THR196      0.1807
    100  OG1       -0.6490    1.5090   14.3790 O.3   196  THR196     -0.2208
    101  CG2       -1.3520   -0.8060   14.3660 C.3   196  THR196      0.0379
    102  N          2.3510    1.3220   15.9410 N.am  197  PRO197     -0.2715
    103  CA         3.1050    2.5790   15.9940 C.3   197  PRO197      0.1521
    104  C          2.2370    3.7040   15.4230 C.2   197  PRO197      0.2440
    105  O          1.5270    3.4880   14.4310 O.2   197  PRO197     -0.2731
    106  CB         4.3230    2.2790   15.1200 C.3   197  PRO197      0.0310
    107  CG         4.5400    0.7970   15.3340 C.3   197  PRO197      0.0237
    108  CD         3.1470    0.2150   15.3820 C.3   197  PRO197      0.0939
    109  N          2.2640    4.8900   16.0420 N.am  198  PRO198     -0.2727
    110  CA         3.1700    5.3100   17.1170 C.3   198  PRO198      0.1402
    111  C          2.8140    4.8600   18.5450 C.2   198  PRO198      0.2269
    112  O          3.4880    5.3120   19.4710 O.2   198  PRO198     -0.2865
    113  CB         3.1230    6.8330   17.0140 C.3   198  PRO198      0.0296
    114  CG         1.7410    7.1240   16.5110 C.3   198  PRO198      0.0237
    115  CD         1.4450    6.0120   15.5400 C.3   198  PRO198      0.0939
    116  N          0.6200    5.5320   20.6890 N.3   200  LEU200     -0.1245
    117  CA         0.3020    6.6230   21.6000 C.3   200  LEU200      0.1561
    118  C         -0.7450    6.2010   22.6310 C.2   200  LEU200      0.2260
    119  O         -1.7100    5.5000   22.3170 O.2   200  LEU200     -0.2867
    120  CB        -0.1660    7.8510   20.8140 C.3   200  LEU200      0.0270
    121  CG         0.9040    8.4390   19.8860 C.3   200  LEU200      0.0019
    122  CD1        0.2990    9.4820   18.9570 C.3   200  LEU200      0.0001
    123  CD2        2.0570    9.0430   20.6840 C.3   200  LEU200      0.0001
    124  N        -10.4390    2.3070   25.4800 N.3   205  TRP205     -0.1241
    125  CA       -10.8830    1.0960   24.8070 C.3   205  TRP205      0.1605
    126  C        -12.2380    0.6820   25.3210 C.2   205  TRP205      0.2264
    127  O        -12.4690    0.6490   26.5340 O.2   205  TRP205     -0.2867
    128  CB        -9.8710   -0.0400   24.9900 C.3   205  TRP205      0.0550
    129  CG        -8.7690    0.0820   23.9980 C.ar  205  TRP205      0.0003
    130  CD1       -7.5510    0.6630   24.1810 C.ar  205  TRP205      0.0946
    131  CD2       -8.8240   -0.3160   22.6280 C.ar  205  TRP205      0.0152
    132  NE1       -6.8330    0.6410   23.0060 N.ar  205  TRP205     -0.2442
    133  CE2       -7.5940    0.0430   22.0360 C.ar  205  TRP205      0.0810
    134  CE3       -9.7940   -0.9480   21.8440 C.ar  205  TRP205      0.0012
    135  CZ2       -7.3070   -0.2150   20.7050 C.ar  205  TRP205      0.0191
    136  CZ3       -9.5110   -1.2140   20.5260 C.ar  205  TRP205      0.0001
    137  CH2       -8.2780   -0.8430   19.9650 C.ar  205  TRP205      0.0015
@<TRIPOS>BOND
     1     5     2    1
     2     5     6    1
     3    14    11    1
     4    14    15    1
     5    11    10    1
     6    11    12    1
     7     2     3    1
     8     2     1    1
     9     6     7    1
    10    12    13    2
    11     3     4    2
    12     8     7    2
    13     7     9   am
    14    15    16   ar
    15    15    17   ar
    16    16    18   ar
    17    20    21    1
    18    22    21    1
    19    22    23    2
    20    17    19   ar
    21    21    24    1
    22    18    19   ar
    23    54    56   ar
    24    54    52   ar
    25    33    32    2
    26    56    57   ar
    27    24    25    1
    28    51    52    1
    29    51    48    1
    30    26    25   ar
    31    26    28   ar
    32    52    53   ar
    33    25    27   ar
    34    28    29   ar
    35   101    99    1
    36   100    99    1
    37   105   104    2
    38    27    29   ar
    39    57    55   ar
    40    47    48    1
    41    99    96    1
    42    43    42    2
    43    30    31    1
    44    53    55   ar
    45    46    44    1
    46    32    31    1
    47    44    45    1
    48    44    41    1
    49    48    49    1
    50    40    41    1
    51   106   107    1
    52   106   103    1
    53   107   108    1
    54    49    50    2
    55   108   102    1
    56   104   103    1
    57   104   109   am
    58    31    34    1
    59    34    35    1
    60   115   109    1
    61   115   114    1
    62    41    42    1
    63   102   103    1
    64   102    97   am
    65   109   110    1
    66    96    97    1
    67    96    95    1
    68    97    98    2
    69    36    35   ar
    70    36    38   ar
    71    35    37   ar
    72   114   113    1
    73   113   110    1
    74    95    90   am
    75   110   111    1
    76    38    39   ar
    77    37    39   ar
    78    93    92    1
    79    63    62    1
    80    64    62    1
    81    91    90    2
    82    86    85    1
    83    90    89    1
    84    62    59    1
    85    87    85    1
    86    72    70    1
    87    78    77    1
    88    71    70    1
    89   111   112    2
    90    85    84    1
    91    92    89    1
    92    92    94    1
    93    84    81    1
    94    89    88    1
    95   122   121    1
    96    88    82   am
    97    79    77    1
    98    58    59    1
    99    70    69    1
   100    59    60    1
   101    77    74    1
   102    81    82    1
   103    81    80    1
   104    82    83    2
   105   121   123    1
   106   121   120    1
   107    74    75    1
   108    74    73    1
   109   137   136   ar
   110   137   135   ar
   111    69    66    1
   112    75    76    2
   113    60    61    2
   114   136   134   ar
   115   116   117    1
   116   135   133   ar
   117   120   117    1
   118    66    67    1
   119    66    65    1
   120   117   118    1
   121   134   131   ar
   122    67    68    2
   123   133   131   ar
   124   133   132   ar
   125   119   118    2
   126   131   129   ar
   127   132   130   ar
   128   129   130   ar
   129   129   128    1
   130   125   128    1
   131   125   126    1
   132   125   124    1
   133   126   127    2
