@<TRIPOS>MOLECULE
tmp/4rv4B00.pdb
 100 97 0 0 0
SMALL
GASTEIGER

@<TRIPOS>ATOM
      1  N         29.1640    0.0930   23.3370 N.3    46  ARG46      -0.1245
      2  CA        30.0230   -0.8350   22.6090 C.3    46  ARG46       0.1563
      3  C         29.3850   -1.1540   21.2490 C.2    46  ARG46       0.2260
      4  O         30.0850   -1.5150   20.3070 O.2    46  ARG46      -0.2867
      5  CB        30.2460   -2.0890   23.4360 C.3    46  ARG46       0.0307
      6  CG        30.8640   -1.8200   24.8120 C.3    46  ARG46       0.0489
      7  CD        30.7010   -3.0210   25.7310 C.3    46  ARG46       0.2205
      8  NE        31.0540   -2.6670   27.0940 N.pl3  46  ARG46      -0.0865
      9  CZ        30.2010   -2.1180   27.9590 C.cat  46  ARG46       0.5346
     10  NH1       28.9440   -1.8480   27.5960 N.pl3  46  ARG46       0.1354
     11  NH2       30.6070   -1.8260   29.1970 N.pl3  46  ARG46       0.1354
     12  N         40.3300    4.1880   27.9340 N.3    79  THR79      -0.1203
     13  CA        39.9720    3.4060   29.1050 C.3    79  THR79       0.1994
     14  C         39.5970    1.9900   28.7140 C.2    79  THR79       0.2618
     15  O         38.6260    1.7680   27.9840 O.2    79  THR79      -0.2717
     16  CB        38.7730    4.0430   29.8160 C.3    79  THR79       0.1784
     17  OG1       37.7180    4.2340   28.8490 O.3    79  THR79      -0.2211
     18  CG2       39.1730    5.4080   30.4120 C.3    79  THR79       0.0376
     19  N         40.3480    1.0390   29.2490 N.am   80  ALA80      -0.1965
     20  CA        40.1060   -0.3650   28.9800 C.3    80  ALA80       0.1728
     21  C         38.7120   -0.7250   29.4580 C.2    80  ALA80       0.2617
     22  O         38.3870   -0.3900   30.6040 O.2    80  ALA80      -0.2715
     23  CB        41.1250   -1.2180   29.7020 C.3    80  ALA80       0.0334
     24  N         37.8730   -1.3850   28.6440 N.am   81  THR81      -0.1937
     25  CA        38.1590   -1.8300   27.2760 C.3    81  THR81       0.2028
     26  C         37.3150   -1.0890   26.2220 C.2    81  THR81       0.2642
     27  O         37.7460   -0.8750   25.0820 O.2    81  THR81      -0.2714
     28  CB        37.9140   -3.3630   27.1390 C.3    81  THR81       0.1808
     29  OG1       36.5380   -3.6660   27.3520 O.3    81  THR81      -0.2208
     30  CG2       38.7300   -4.1510   28.1580 C.3    81  THR81       0.0379
     31  N         36.1170   -0.6840   26.6090 N.am   82  ALA82      -0.1977
     32  CA        35.1830    0.0030   25.6990 C.3    82  ALA82       0.1597
     33  C         35.7800    1.1630   24.8820 C.2    82  ALA82       0.2287
     34  O         35.7130    1.1330   23.6400 O.2    82  ALA82      -0.2864
     35  CB        33.9590    0.4770   26.4790 C.3    82  ALA82       0.0319
     36  N         36.6910    8.2970   27.1190 N.3   121  GLU121     -0.1231
     37  CA        35.7480    7.3730   27.7710 C.3   121  GLU121      0.1699
     38  C         34.5020    7.2690   26.9290 C.2   121  GLU121      0.2592
     39  O         34.1660    8.1870   26.1840 O.2   121  GLU121     -0.2718
     40  CB        35.2970    7.9450   29.1330 C.3   121  GLU121      0.0402
     41  CG        36.0310    7.5170   30.4030 C.3   121  GLU121      0.1161
     42  CD        35.5770    6.1610   30.9730 C.2   121  GLU121      0.3649
     43  OE1       34.6200    5.5550   30.4370 O.co2 121  GLU121     -0.2457
     44  OE2       36.1460    5.6950   32.0030 O.co2 121  GLU121     -0.2457
     45  N         33.7850    6.1700   27.0420 N.am  122  ASP122     -0.1960
     46  CA        32.5370    6.0500   26.3000 C.3   122  ASP122      0.1840
     47  C         31.3800    6.5150   27.1800 C.2   122  ASP122      0.2622
     48  O         30.4130    7.1080   26.7000 O.2   122  ASP122     -0.2715
     49  CB        32.2990    4.6380   25.7270 C.3   122  ASP122      0.1450
     50  CG        32.2870    3.5700   26.7740 C.2   122  ASP122      0.3671
     51  OD1       33.0440    3.7080   27.7700 O.co2 122  ASP122     -0.2456
     52  OD2       31.5630    2.5610   26.5640 O.co2 122  ASP122     -0.2456
     53  N         31.4670    6.2600   28.4710 N.am  123  LEU123     -0.1963
     54  CA        30.3870    6.6530   29.3680 C.3   123  LEU123      0.1728
     55  C         30.8830    7.1040   30.7440 C.2   123  LEU123      0.2616
     56  O         31.8290    6.5220   31.2930 O.2   123  LEU123     -0.2715
     57  CB        29.4440    5.4520   29.5600 C.3   123  LEU123      0.0311
     58  CG        28.2520    5.6450   30.5010 C.3   123  LEU123      0.0022
     59  CD1       27.2790    6.7270   30.0050 C.3   123  LEU123      0.0001
     60  CD2       27.5340    4.3230   30.6810 C.3   123  LEU123      0.0001
     61  N         30.2210    8.1260   31.2830 N.am  124  ILE124     -0.1963
     62  CA        30.4670    8.6670   32.6180 C.3   124  ILE124      0.1727
     63  C         29.1780    8.4400   33.4100 C.2   124  ILE124      0.2617
     64  O         28.1570    9.0020   33.0430 O.2   124  ILE124     -0.2715
     65  CB        30.6750   10.2020   32.5940 C.3   124  ILE124      0.0290
     66  CG1       31.9020   10.5940   31.7540 C.3   124  ILE124      0.0022
     67  CG2       30.7820   10.7830   34.0140 C.3   124  ILE124      0.0023
     68  CD1       33.2020   10.0560   32.2860 C.3   124  ILE124      0.0001
     69  N         29.2010    7.6050   34.4580 N.am  125  SER125     -0.1936
     70  CA        28.0230    7.4220   35.3100 C.3   125  SER125      0.2055
     71  C         28.4370    8.0020   36.6730 C.2   125  SER125      0.2644
     72  O         28.0940    9.1540   36.9740 O.2   125  SER125     -0.2714
     73  CB        27.5280    5.9710   35.3910 C.3   125  SER125      0.2130
     74  OG        28.4790    5.1570   36.0370 O.3   125  SER125     -0.2179
     75  N         29.2180    7.2470   37.4640 N.am  126  THR126     -0.1936
     76  CA        29.6940    7.6950   38.8130 C.3   126  THR126      0.2028
     77  C         31.0060    8.4850   38.7450 C.2   126  THR126      0.2643
     78  O         31.3460    9.2350   39.6760 O.2   126  THR126     -0.2714
     79  CB        29.9970    6.5020   39.7640 C.3   126  THR126      0.1808
     80  OG1       31.1680    5.8040   39.3180 O.3   126  THR126     -0.2208
     81  CG2       28.8070    5.5250   39.8820 C.3   126  THR126      0.0379
     82  N         31.7610    8.2720   37.6600 N.am  127  GLY127     -0.1939
     83  CA        33.0440    8.9260   37.4640 C.3   127  GLY127      0.2014
     84  C         34.2360    8.1430   38.0000 C.2   127  GLY127      0.2639
     85  O         35.3790    8.5690   37.8090 O.2   127  GLY127     -0.2714
     86  N         34.0010    6.9810   38.6190 N.am  128  GLY128     -0.1939
     87  CA        35.0960    6.1650   39.1860 C.3   128  GLY128      0.2014
     88  C         36.1910    5.7210   38.2160 C.2   128  GLY128      0.2640
     89  O         37.3810    5.8300   38.5200 O.2   128  GLY128     -0.2714
     90  N         35.8010    5.2550   37.0370 N.am  129  SER129     -0.1935
     91  CA        36.7820    4.7840   36.0700 C.3   129  SER129      0.2055
     92  C         37.6440    5.9280   35.6080 C.2   129  SER129      0.2642
     93  O         38.8820    5.8460   35.6130 O.2   129  SER129     -0.2714
     94  CB        36.1090    4.2020   34.8490 C.3   129  SER129      0.2130
     95  OG        35.1250    3.2600   35.2240 O.3   129  SER129     -0.2179
     96  N         36.9790    6.9980   35.2140 N.am  130  ALA130     -0.1977
     97  CA        37.6670    8.1760   34.7410 C.3   130  ALA130      0.1597
     98  C         38.7120    8.6490   35.7620 C.2   130  ALA130      0.2287
     99  O         39.8690    8.7960   35.4130 O.2   130  ALA130     -0.2864
    100  CB        36.6590    9.2710   34.4710 C.3   130  ALA130      0.0319
@<TRIPOS>BOND
     1     4     3    2
     2     3     2    1
     3     2     1    1
     4     2     5    1
     5     5     6    1
     6    34    33    2
     7     6     7    1
     8    33    32    1
     9    27    26    2
    10    32    35    1
    11    32    31    1
    12    49    46    1
    13    49    50    1
    14     7     8    1
    15    39    38    2
    16    26    31   am
    17    26    25    1
    18    46    45    1
    19    46    47    1
    20    52    50   ar
    21    48    47    2
    22    50    51   ar
    23    38    45   am
    24    38    37    1
    25     8     9    2
    26    36    37    1
    27    28    25    1
    28    28    29    1
    29    28    30    1
    30    47    53   am
    31    25    24    1
    32    10     9    1
    33    37    40    1
    34    12    13    1
    35     9    11    1
    36    15    14    2
    37    53    54    1
    38    24    21   am
    39    14    13    1
    40    14    19   am
    41    17    16    1
    42    20    19    1
    43    20    21    1
    44    20    23    1
    45    13    16    1
    46    40    41    1
    47    54    57    1
    48    54    55    1
    49    21    22    2
    50    57    58    1
    51    16    18    1
    52    59    58    1
    53    41    42    1
    54    43    42   ar
    55    58    60    1
    56    55    61   am
    57    55    56    2
    58    42    44   ar
    59    61    62    1
    60    66    68    1
    61    66    65    1
    62    65    62    1
    63    65    67    1
    64    62    63    1
    65    64    63    2
    66    63    69   am
    67    69    70    1
    68   100    97    1
    69    97    96    1
    70    97    98    1
    71    94    95    1
    72    94    91    1
    73    96    92   am
    74    70    73    1
    75    70    71    1
    76    73    74    1
    77    99    98    2
    78    92    93    2
    79    92    91    1
    80    91    90    1
    81    71    72    2
    82    71    75   am
    83    90    88   am
    84    75    76    1
    85    83    82    1
    86    83    84    1
    87    82    77   am
    88    85    84    2
    89    84    86   am
    90    88    89    2
    91    88    87    1
    92    86    87    1
    93    77    76    1
    94    77    78    2
    95    76    79    1
    96    80    79    1
    97    79    81    1
