@<TRIPOS>MOLECULE
tmp/4rv6A00.pdb
 146 142 0 0 0
SMALL
GASTEIGER

@<TRIPOS>ATOM
      1  N         79.8540   -4.6640  123.2170 N.3    98  GLN98      -0.1245
      2  CA        81.1300   -3.9420  123.0800 C.3    98  GLN98       0.1566
      3  C         81.6160   -3.4730  124.4590 C.2    98  GLN98       0.2260
      4  O         82.7460   -3.7620  124.8290 O.2    98  GLN98      -0.2867
      5  CB        80.9530   -2.7500  122.1330 C.3    98  GLN98       0.0367
      6  CG        82.2410   -2.1280  121.6470 C.3    98  GLN98       0.0905
      7  CD        81.9800   -0.9400  120.7570 C.2    98  GLN98       0.2608
      8  OE1       80.8650   -0.7340  120.2260 O.2    98  GLN98      -0.2717
      9  NE2       83.0280   -0.1540  120.5440 N.am   98  GLN98      -0.0878
     10  N         82.6130   -6.3760  126.7210 N.3   101  ALA101     -0.1231
     11  CA        83.8170   -6.9970  126.1340 C.3   101  ALA101      0.1694
     12  C         85.0590   -6.2000  126.4970 C.2   101  ALA101      0.2591
     13  O         86.0710   -6.7970  126.8530 O.2   101  ALA101     -0.2718
     14  CB        83.6880   -7.1230  124.6170 C.3   101  ALA101      0.0304
     15  N         84.9590   -4.8630  126.4570 N.am  102  GLU102     -0.1979
     16  CA        86.0380   -3.9570  126.8170 C.3   102  GLU102      0.1602
     17  C         86.3380   -4.0990  128.3040 C.2   102  GLU102      0.2287
     18  O         87.5090   -4.0910  128.6780 O.2   102  GLU102     -0.2864
     19  CB        85.6960   -2.5110  126.4430 C.3   102  GLU102      0.0415
     20  CG        85.7880   -2.2570  124.9500 C.3   102  GLU102      0.1163
     21  CD        85.4700   -0.8410  124.5190 C.2   102  GLU102      0.3649
     22  OE1       84.4950   -0.6470  123.7550 O.co2 102  GLU102     -0.2457
     23  OE2       86.2210    0.0770  124.9200 O.co2 102  GLU102     -0.2457
     24  N         88.3830   -7.1510  128.6010 N.3   105  ASP105     -0.1239
     25  CA        89.7500   -6.8700  128.1420 C.3   105  ASP105      0.1674
     26  C         90.5880   -6.3570  129.2960 C.2   105  ASP105      0.2266
     27  O         91.7250   -6.7930  129.4830 O.2   105  ASP105     -0.2867
     28  CB        89.7830   -5.8350  127.0020 C.3   105  ASP105      0.1410
     29  CG        89.1740   -6.2250  125.6680 C.2   105  ASP105      0.3668
     30  OD1       88.7510   -7.4030  125.5190 O.co2 105  ASP105     -0.2456
     31  OD2       89.1140   -5.3480  124.7650 O.co2 105  ASP105     -0.2456
     32  N         99.8970    4.4030  121.5680 N.3   199  HIS199     -0.1226
     33  CA        98.9820    3.3870  122.0550 C.3   199  HIS199      0.1752
     34  C         98.6700    3.7160  123.5050 C.2   199  HIS199      0.2597
     35  O         99.5590    3.6910  124.3650 O.2   199  HIS199     -0.2718
     36  CB        99.5150    1.9580  121.8860 C.3   199  HIS199      0.0759
     37  CG        98.5200    0.9270  122.3250 C.ar  199  HIS199      0.0818
     38  ND1       97.6550    0.3250  121.4200 N.ar  199  HIS199     -0.2268
     39  CD2       98.2330    0.4720  123.5700 C.ar  199  HIS199      0.1154
     40  CE1       96.9060   -0.5020  122.1340 C.ar  199  HIS199      0.1986
     41  NE2       97.2130   -0.4440  123.4350 N.ar  199  HIS199     -0.2212
     42  N         97.4150    4.0640  123.7520 N.am  200  GLY200     -0.1942
     43  CA        96.9500    4.4080  125.0860 C.3   200  GLY200      0.2014
     44  C         96.1180    3.3140  125.7050 C.2   200  GLY200      0.2639
     45  O         95.3200    2.6820  125.0220 O.2   200  GLY200     -0.2714
     46  N         96.3280    3.0690  126.9870 N.am  201  SER201     -0.1949
     47  CA        95.5990    2.0630  127.7360 C.3   201  SER201      0.1924
     48  C         95.4800    2.4910  129.1970 C.2   201  SER201      0.2314
     49  O         96.1840    3.4110  129.6520 O.2   201  SER201     -0.2863
     50  CB        96.2650    0.6840  127.6170 C.3   201  SER201      0.2116
     51  OG        95.3740   -0.3750  127.2790 O.3   201  SER201     -0.2180
     52  N         82.4950   -7.4400  117.4240 N.3   224  THR224     -0.1203
     53  CA        81.7890   -6.1570  117.6420 C.3   224  THR224      0.1994
     54  C         82.7410   -5.0860  118.1670 C.2   224  THR224      0.2618
     55  O         83.5750   -5.3600  119.0500 O.2   224  THR224     -0.2717
     56  CB        80.6400   -6.3320  118.6940 C.3   224  THR224      0.1784
     57  OG1       80.0210   -7.6160  118.5660 O.3   224  THR224     -0.2211
     58  CG2       79.6000   -5.2080  118.6680 C.3   224  THR224      0.0376
     59  N         82.5780   -3.8800  117.6370 N.am  225  GLY225     -0.1942
     60  CA        83.3500   -2.7130  118.0480 C.3   225  GLY225      0.2014
     61  C         84.7090   -2.5610  117.3900 C.2   225  GLY225      0.2639
     62  O         85.1390   -1.4310  117.1080 O.2   225  GLY225     -0.2714
     63  N         85.4180   -3.6930  117.1700 N.am  226  TYR226     -0.1959
     64  CA        86.6940   -3.6660  116.4720 C.3   226  TYR226      0.1771
     65  C         86.3730   -3.1880  115.0660 C.2   226  TYR226      0.2619
     66  O         85.7380   -3.9180  114.2890 O.2   226  TYR226     -0.2715
     67  CB        87.3950   -5.0420  116.5150 C.3   226  TYR226      0.0574
     68  CG        87.6770   -5.5410  117.9180 C.ar  226  TYR226     -0.0198
     69  CD1       88.6940   -4.9820  118.6890 C.ar  226  TYR226     -0.0009
     70  CD2       86.9160   -6.5570  118.4820 C.ar  226  TYR226     -0.0009
     71  CE1       88.9330   -5.4130  119.9960 C.ar  226  TYR226      0.0417
     72  CE2       87.1550   -7.0090  119.7810 C.ar  226  TYR226      0.0417
     73  CZ        88.1630   -6.4340  120.5390 C.ar  226  TYR226      0.1957
     74  OH        88.3490   -6.8830  121.8340 O.3   226  TYR226     -0.2866
     75  N         86.6630   -1.8910  114.8050 N.am  227  MET227     -0.1977
     76  CA        86.3470   -1.2520  113.5200 C.3   227  MET227      0.1605
     77  C         87.0230   -1.9850  112.3460 C.2   227  MET227      0.2287
     78  O         86.4280   -2.1340  111.2770 O.2   227  MET227     -0.2864
     79  CB        86.7510    0.2260  113.5400 C.3   227  MET227      0.0413
     80  CG        86.1900    0.9910  112.3770 C.3   227  MET227      0.0598
     81  SD        86.4150    2.7820  112.4150 S.3   227  MET227     -0.1393
     82  CE        85.7350    3.2220  110.8070 C.3   227  MET227      0.0692
     83  N         95.7890   -1.7800  117.6740 N.3   233  TYR233     -0.1227
     84  CA        95.4330   -0.4400  117.1710 C.3   233  TYR233      0.1736
     85  C         96.3890    0.6480  117.6900 C.2   233  TYR233      0.2595
     86  O         96.8440    0.5860  118.8330 O.2   233  TYR233     -0.2718
     87  CB        93.9650   -0.0930  117.5300 C.3   233  TYR233      0.0548
     88  CG        92.8940   -0.8700  116.7730 C.ar  233  TYR233     -0.0200
     89  CD1       92.7240   -2.2440  116.9690 C.ar  233  TYR233     -0.0009
     90  CD2       91.9770   -0.2170  115.9580 C.ar  233  TYR233     -0.0009
     91  CE1       91.7250   -2.9540  116.3050 C.ar  233  TYR233      0.0417
     92  CE2       90.9920   -0.9220  115.2670 C.ar  233  TYR233      0.0417
     93  CZ        90.8750   -2.2910  115.4430 C.ar  233  TYR233      0.1957
     94  OH        89.8990   -2.9820  114.7830 O.3   233  TYR233     -0.2866
     95  N         96.7020    1.6250  116.8190 N.am  234  PHE234     -0.1962
     96  CA        97.6270    2.7400  117.0650 C.3   234  PHE234      0.1771
     97  C         97.1670    4.0620  116.4670 C.2   234  PHE234      0.2619
     98  O         96.4040    4.0820  115.5100 O.2   234  PHE234     -0.2715
     99  CB        99.0010    2.4320  116.4580 C.3   234  PHE234      0.0574
    100  CG        99.7480    1.3250  117.1390 C.ar  234  PHE234     -0.0200
    101  CD1      100.5070    1.5770  118.2680 C.ar  234  PHE234     -0.0042
    102  CD2       99.6880    0.0260  116.6520 C.ar  234  PHE234     -0.0042
    103  CE1      101.2000    0.5530  118.9000 C.ar  234  PHE234     -0.0003
    104  CE2      100.3690   -1.0010  117.2830 C.ar  234  PHE234     -0.0003
    105  CZ       101.1170   -0.7360  118.4140 C.ar  234  PHE234     -0.0000
    106  N         97.6870    5.1630  116.9780 N.am  235  ALA235     -0.1977
    107  CA        97.3360    6.4620  116.4470 C.3   235  ALA235      0.1597
    108  C         98.5790    7.3130  116.2070 C.2   235  ALA235      0.2287
    109  O         99.5590    7.1970  116.9430 O.2   235  ALA235     -0.2864
    110  CB        96.3930    7.1750  117.4120 C.3   235  ALA235      0.0319
    111  N         94.1080   11.0250  120.5980 N.3   240  LYS240     -0.1231
    112  CA        93.3680    9.8070  120.2680 C.3   240  LYS240      0.1693
    113  C         93.7380    8.6840  121.2140 C.2   240  LYS240      0.2592
    114  O         92.8460    8.0730  121.7920 O.2   240  LYS240     -0.2718
    115  CB        93.6250    9.3970  118.8040 C.3   240  LYS240      0.0285
    116  CG        92.6670    8.3410  118.2670 C.3   240  LYS240      0.0035
    117  CD        92.7350    8.2660  116.7430 C.3   240  LYS240      0.0206
    118  CE        91.7820    7.2490  116.1540 C.3   240  LYS240      0.1093
    119  NZ        91.6830    7.3820  114.6720 N.3   240  LYS240     -0.1314
    120  N         95.0370    8.4380  121.3940 N.am  241  SER241     -0.1952
    121  CA        95.5210    7.3780  122.2770 C.3   241  SER241      0.1924
    122  C         95.4260    7.7990  123.7730 C.2   241  SER241      0.2314
    123  O         95.0520    6.9630  124.6010 O.2   241  SER241     -0.2863
    124  CB        96.9460    6.9700  121.8990 C.3   241  SER241      0.2116
    125  OG        96.9910    6.2570  120.6720 O.3   241  SER241     -0.2180
    126  N         92.2130    6.9240  125.7120 N.3   244  TYR244     -0.1241
    127  CA        92.1300    5.5530  126.1930 C.3   244  TYR244      0.1605
    128  C         92.8120    5.3060  127.5430 C.2   244  TYR244      0.2264
    129  O         92.7870    4.1690  128.0270 O.2   244  TYR244     -0.2867
    130  CB        92.6990    4.6190  125.1460 C.3   244  TYR244      0.0534
    131  CG        91.7990    4.5000  123.9420 C.ar  244  TYR244     -0.0201
    132  CD1       90.7210    3.6280  123.9400 C.ar  244  TYR244     -0.0009
    133  CD2       92.0270    5.2620  122.7990 C.ar  244  TYR244     -0.0009
    134  CE1       89.8800    3.5250  122.8350 C.ar  244  TYR244      0.0417
    135  CE2       91.2020    5.1550  121.6840 C.ar  244  TYR244      0.0417
    136  CZ        90.1270    4.2850  121.7070 C.ar  244  TYR244      0.1957
    137  OH        89.3190    4.1470  120.6070 O.3   244  TYR244     -0.2866
    138  N         94.2390    6.1240  112.3110 N.3   325  GLU325     -0.1245
    139  CA        94.4620    4.9530  113.1680 C.3   325  GLU325      0.1567
    140  C         95.0900    3.8070  112.3450 C.2   325  GLU325      0.2260
    141  O         94.7720    3.6360  111.1710 O.2   325  GLU325     -0.2867
    142  CB        93.2140    4.4940  113.9520 C.3   325  GLU325      0.0388
    143  CG        92.0120    4.0080  113.1590 C.3   325  GLU325      0.1160
    144  CD        90.8390    3.6030  114.0370 C.2   325  GLU325      0.3649
    145  OE1       90.4330    2.4190  113.9740 O.co2 325  GLU325     -0.2457
    146  OE2       90.3450    4.4590  114.8100 O.co2 325  GLU325     -0.2457
@<TRIPOS>BOND
     1    82    81    1
     2   141   140    2
     3    78    77    2
     4   138   139    1
     5   140   139    1
     6    77    76    1
     7    80    81    1
     8    80    79    1
     9   143   142    1
    10   143   144    1
    11   139   142    1
    12    76    79    1
    13    76    75    1
    14   145   144   ar
    15   144   146   ar
    16    66    65    2
    17   119   118    1
    18    94    93    1
    19    75    65   am
    20    65    64    1
    21    92    93   ar
    22    92    90   ar
    23    93    91   ar
    24    98    97    2
    25    90    88   ar
    26   118   117    1
    27   108   107    1
    28   108   109    2
    29    91    89   ar
    30   107   106    1
    31   107   110    1
    32    99    96    1
    33    99   100    1
    34    97   106   am
    35    97    96    1
    36    64    67    1
    37    64    63    1
    38    67    68    1
    39   102   100   ar
    40   102   104   ar
    41   117   116    1
    42    88    89   ar
    43    88    87    1
    44    95    96    1
    45    95    85   am
    46    62    61    2
    47   100   101   ar
    48    63    61   am
    49    84    87    1
    50    84    83    1
    51    84    85    1
    52   104   105   ar
    53    61    60    1
    54    52    53    1
    55    59    60    1
    56    59    54   am
    57    53    54    1
    58    53    56    1
    59    85    86    2
    60    68    70   ar
    61    68    69   ar
    62    54    55    2
    63   116   115    1
    64   101   103   ar
    65   105   103   ar
    66    70    72   ar
    67    57    56    1
    68    58    56    1
    69    69    71   ar
    70   115   112    1
    71    72    73   ar
    72    71    73   ar
    73     8     7    2
    74   112   111    1
    75   112   113    1
    76    73    74    1
    77     9     7   am
    78   137   136    1
    79   125   124    1
    80     7     6    1
    81   113   120   am
    82   113   114    2
    83   120   121    1
    84    38    40   ar
    85    38    37   ar
    86    32    33    1
    87     6     5    1
    88   135   136   ar
    89   135   133   ar
    90   136   134   ar
    91    36    33    1
    92    36    37    1
    93   124   121    1
    94    33    34    1
    95     5     2    1
    96    40    41   ar
    97   121   122    1
    98    37    39   ar
    99   133   131   ar
   100   134   132   ar
   101     2     1    1
   102     2     3    1
   103    41    39   ar
   104    34    42   am
   105    34    35    2
   106    42    43    1
   107    22    21   ar
   108   122   123    2
   109   132   131   ar
   110   131   130    1
   111     3     4    2
   112    21    23   ar
   113    21    20    1
   114    14    11    1
   115    31    29   ar
   116    20    19    1
   117    45    44    2
   118    43    44    1
   119   130   127    1
   120    30    29   ar
   121    29    28    1
   122    44    46   am
   123   126   127    1
   124    11    12    1
   125    11    10    1
   126   127   128    1
   127    19    16    1
   128    15    12   am
   129    15    16    1
   130    12    13    2
   131    16    17    1
   132    46    47    1
   133    28    25    1
   134    51    50    1
   135   128   129    2
   136    50    47    1
   137    47    48    1
   138    25    24    1
   139    25    26    1
   140    17    18    2
   141    48    49    2
   142    26    27    2
