@<TRIPOS>MOLECULE
tmp/4rv7A01.pdb
 85 79 0 0 0
SMALL
GASTEIGER

@<TRIPOS>ATOM
      1  N          1.3840  -57.5800   15.7310 N.3    11  GLN11      -0.1245
      2  CA        -0.0720  -57.5150   15.7110 C.3    11  GLN11       0.1566
      3  C         -0.5900  -56.3740   14.8390 C.2    11  GLN11       0.2260
      4  O         -1.5880  -56.5310   14.1400 O.2    11  GLN11      -0.2867
      5  CB        -0.6300  -57.4230   17.1350 C.3    11  GLN11       0.0367
      6  CG        -0.4480  -58.7060   17.9340 C.3    11  GLN11       0.0905
      7  CD        -0.9240  -58.5820   19.3670 C.2    11  GLN11       0.2608
      8  OE1       -1.1580  -57.4800   19.8650 O.2    11  GLN11      -0.2717
      9  NE2       -1.0690  -59.7170   20.0400 N.am   11  GLN11      -0.0878
     10  N         -0.1650  -57.3340   11.2950 N.3    14  LEU14      -0.1245
     11  CA        -1.2220  -58.2850   10.9740 C.3    14  LEU14       0.1561
     12  C         -2.4880  -57.5470   10.5610 C.2    14  LEU14       0.2260
     13  O         -3.0450  -57.8000    9.4890 O.2    14  LEU14      -0.2867
     14  CB        -1.4970  -59.1820   12.1840 C.3    14  LEU14       0.0270
     15  CG        -2.4130  -60.3980   12.0330 C.3    14  LEU14       0.0019
     16  CD1       -1.9400  -61.5090   12.9500 C.3    14  LEU14       0.0001
     17  CD2       -3.8510  -60.0430   12.3600 C.3    14  LEU14       0.0001
     18  N         -8.6550  -65.5030   11.8690 N.3    36  VAL36      -0.1231
     19  CA        -7.5130  -65.2490   12.7390 C.3    36  VAL36       0.1692
     20  C         -7.7030  -65.9200   14.0940 C.2    36  VAL36       0.2592
     21  O         -8.5820  -65.5420   14.8670 O.2    36  VAL36      -0.2718
     22  CB        -7.2900  -63.7410   12.9460 C.3    36  VAL36       0.0266
     23  CG1       -6.0390  -63.5020   13.7740 C.3    36  VAL36       0.0020
     24  CG2       -7.1830  -63.0370   11.6040 C.3    36  VAL36       0.0020
     25  N         -6.8670  -66.9140   14.3760 N.am   37  ALA37      -0.1966
     26  CA        -6.9660  -67.6840   15.6100 C.3    37  ALA37       0.1728
     27  C         -6.6580  -66.8380   16.8450 C.2    37  ALA37       0.2616
     28  O         -5.7650  -65.9930   16.8210 O.2    37  ALA37      -0.2715
     29  CB        -6.0410  -68.8920   15.5480 C.3    37  ALA37       0.0334
     30  N         -7.4240  -67.0580   17.9110 N.am   38  ARG38      -0.1977
     31  CA        -7.1860  -66.4110   19.1990 C.3    38  ARG38       0.1597
     32  C         -7.2340  -67.4590   20.3010 C.2    38  ARG38       0.2287
     33  O         -7.3690  -67.1330   21.4820 O.2    38  ARG38      -0.2864
     34  CB        -8.2320  -65.3290   19.4670 C.3    38  ARG38       0.0334
     35  CG        -8.1100  -64.1160   18.5710 C.3    38  ARG38       0.0492
     36  CD        -9.4570  -63.4570   18.3600 C.3    38  ARG38       0.2205
     37  NE        -9.7390  -62.3920   19.3200 N.pl3  38  ARG38      -0.0865
     38  CZ       -10.8700  -62.2850   20.0120 C.cat  38  ARG38       0.5346
     39  NH1      -11.8330  -63.1840   19.8600 N.pl3  38  ARG38       0.1354
     40  NH2      -11.0400  -61.2780   20.8550 N.pl3  38  ARG38       0.1354
     41  N         -4.9330  -67.6750   10.0630 N.3    78  ILE78      -0.1231
     42  CA        -3.7670  -67.0040   10.6130 C.3    78  ILE78       0.1692
     43  C         -3.6230  -67.3610   12.0820 C.2    78  ILE78       0.2592
     44  O         -4.5640  -67.2180   12.8640 O.2    78  ILE78      -0.2718
     45  CB        -3.8410  -65.4790   10.4550 C.3    78  ILE78       0.0266
     46  CG1       -3.7640  -65.1040    8.9760 C.3    78  ILE78       0.0019
     47  CG2       -2.7060  -64.8120   11.2220 C.3    78  ILE78       0.0020
     48  CD1       -3.8230  -63.6170    8.7230 C.3    78  ILE78       0.0001
     49  N         -2.4390  -67.8380   12.4470 N.am   79  LYS79      -0.1966
     50  CA        -2.1720  -68.2600   13.8090 C.3    79  LYS79       0.1728
     51  C         -0.8080  -67.7510   14.2420 C.2    79  LYS79       0.2616
     52  O          0.1690  -67.8440   13.4910 O.2    79  LYS79      -0.2715
     53  CB        -2.2430  -69.7810   13.9110 C.3    79  LYS79       0.0311
     54  CG        -1.9010  -70.3360   15.2750 C.3    79  LYS79       0.0038
     55  CD        -1.9490  -71.8510   15.2430 C.3    79  LYS79       0.0206
     56  CE        -1.1180  -72.4700   16.3480 C.3    79  LYS79       0.1093
     57  NZ        -1.0550  -73.9490   16.1810 N.3    79  LYS79      -0.1314
     58  N         -0.7500  -67.2050   15.4520 N.am   80  GLY80      -0.1955
     59  CA         0.4530  -66.5550   15.9310 C.3    80  GLY80       0.1869
     60  C          0.8000  -65.3900   15.0270 C.2    80  GLY80       0.2309
     61  O          0.0030  -64.4650   14.8570 O.2    80  GLY80      -0.2863
     62  N         -9.8270  -56.2910   18.8590 N.3   154  GLU154     -0.1231
     63  CA        -9.9170  -57.7370   19.0450 C.3   154  GLU154      0.1699
     64  C         -8.6080  -58.4960   18.8230 C.2   154  GLU154      0.2592
     65  O         -8.4370  -59.6000   19.3430 O.2   154  GLU154     -0.2718
     66  CB       -11.0000  -58.3210   18.1290 C.3   154  GLU154      0.0402
     67  CG       -12.3570  -57.6340   18.2200 C.3   154  GLU154      0.1161
     68  CD       -13.0590  -57.8730   19.5410 C.2   154  GLU154      0.3649
     69  OE1      -12.6750  -58.8160   20.2630 O.co2 154  GLU154     -0.2457
     70  OE2      -14.0000  -57.1150   19.8570 O.co2 154  GLU154     -0.2457
     71  N         -7.6980  -57.9210   18.0410 N.am  155  LEU155     -0.1980
     72  CA        -6.4880  -58.6410   17.6390 C.3   155  LEU155      0.1596
     73  C         -5.1900  -58.0400   18.1700 C.2   155  LEU155      0.2287
     74  O         -4.1380  -58.6780   18.1090 O.2   155  LEU155     -0.2864
     75  CB        -6.4150  -58.7760   16.1160 C.3   155  LEU155      0.0297
     76  CG        -7.4550  -59.6740   15.4520 C.3   155  LEU155      0.0022
     77  CD1       -7.2210  -59.7510   13.9520 C.3   155  LEU155      0.0001
     78  CD2       -7.4130  -61.0540   16.0790 C.3   155  LEU155      0.0001
     79  N         -3.3090  -56.8400   21.4590 N.3   157  THR157     -0.1218
     80  CA        -3.2680  -56.8170   22.9160 C.3   157  THR157      0.1862
     81  C         -2.8850  -55.4210   23.3910 C.2   157  THR157      0.2287
     82  O         -1.8090  -54.9170   23.0630 O.2   157  THR157     -0.2866
     83  CB        -2.2710  -57.8490   23.4780 C.3   157  THR157      0.1770
     84  OG1       -2.6030  -59.1540   22.9860 O.3   157  THR157     -0.2211
     85  CG2       -2.3130  -57.8580   25.0000 C.3   157  THR157      0.0375
@<TRIPOS>BOND
     1    48    46    1
     2    46    45    1
     3    13    12    2
     4    41    42    1
     5    45    42    1
     6    45    47    1
     7    12    11    1
     8    42    43    1
     9    11    10    1
    10    11    14    1
    11    24    22    1
    12    18    19    1
    13    15    14    1
    14    15    17    1
    15    15    16    1
    16    43    49   am
    17    43    44    2
    18    49    50    1
    19    19    22    1
    20    19    20    1
    21    22    23    1
    22    52    51    2
    23    50    53    1
    24    50    51    1
    25    53    54    1
    26    77    76    1
    27    20    25   am
    28    20    21    2
    29     4     3    2
    30    51    58   am
    31    25    26    1
    32     3     2    1
    33    61    60    2
    34    60    59    1
    35    55    54    1
    36    55    56    1
    37    58    59    1
    38    76    78    1
    39    76    75    1
    40    29    26    1
    41    26    27    1
    42     2     1    1
    43     2     5    1
    44    75    72    1
    45    57    56    1
    46    28    27    2
    47    27    30   am
    48     5     6    1
    49    72    71    1
    50    72    73    1
    51    30    31    1
    52     6     7    1
    53    71    64   am
    54    74    73    2
    55    66    67    1
    56    66    63    1
    57    67    68    1
    58    36    35    1
    59    36    37    1
    60    35    34    1
    61    64    63    1
    62    64    65    2
    63    62    63    1
    64    31    34    1
    65    31    32    1
    66    37    38    2
    67     7     8    2
    68     7     9   am
    69    68    70   ar
    70    68    69   ar
    71    39    38    1
    72    38    40    1
    73    32    33    2
    74    79    80    1
    75    80    81    1
    76    80    83    1
    77    84    83    1
    78    82    81    2
    79    83    85    1
