@<TRIPOS>MOLECULE
tmp/4rv7C00.pdb
 147 143 0 0 0
SMALL
GASTEIGER

@<TRIPOS>ATOM
      1  N        -17.3420  -92.0250    2.3250 N.3    35  LEU35      -0.1245
      2  CA       -17.1110  -93.0590    1.3300 C.3    35  LEU35       0.1561
      3  C        -16.6210  -92.4000    0.0470 C.2    35  LEU35       0.2260
      4  O        -17.4030  -91.8000   -0.6910 O.2    35  LEU35      -0.2867
      5  CB       -18.4000  -93.8410    1.0740 C.3    35  LEU35       0.0270
      6  CG       -18.3180  -95.0430    0.1330 C.3    35  LEU35       0.0019
      7  CD1      -17.2430  -96.0070    0.5980 C.3    35  LEU35       0.0001
      8  CD2      -19.6650  -95.7430    0.0500 C.3    35  LEU35       0.0001
      9  N        -24.6040  -86.5010    1.1040 N.3    74  HIS74      -0.1226
     10  CA       -23.9110  -87.4650    1.9550 C.3    74  HIS74       0.1752
     11  C        -24.4000  -88.8950    1.7360 C.2    74  HIS74       0.2596
     12  O        -23.7150  -89.8540    2.0980 O.2    74  HIS74      -0.2718
     13  CB       -24.0700  -87.0910    3.4320 C.3    74  HIS74       0.0759
     14  CG       -25.3450  -87.5830    4.0490 C.ar   74  HIS74       0.0818
     15  ND1      -26.4740  -86.7980    4.1500 N.ar   74  HIS74      -0.2268
     16  CD2      -25.6650  -88.7760    4.6000 C.ar   74  HIS74       0.1154
     17  CE1      -27.4360  -87.4900    4.7340 C.ar   74  HIS74       0.1986
     18  NE2      -26.9740  -88.6930    5.0160 N.ar   74  HIS74      -0.2212
     19  N        -25.5850  -89.0330    1.1510 N.am   75  ASP75      -0.1960
     20  CA       -26.2350  -90.3340    1.0500 C.3    75  ASP75       0.1840
     21  C        -25.6550  -91.2020   -0.0630 C.2    75  ASP75       0.2623
     22  O        -26.3320  -91.5010   -1.0480 O.2    75  ASP75      -0.2715
     23  CB       -27.7420  -90.1680    0.8530 C.3    75  ASP75       0.1450
     24  CG       -28.5370  -91.2740    1.5140 C.2    75  ASP75       0.3671
     25  OD1      -27.9340  -92.3080    1.8710 O.co2  75  ASP75      -0.2456
     26  OD2      -29.7640  -91.1080    1.6770 O.co2  75  ASP75      -0.2456
     27  N        -24.4030  -91.6130    0.1050 N.am   76  GLY76      -0.1940
     28  CA       -23.7550  -92.4630   -0.8710 C.3    76  GLY76       0.2014
     29  C        -22.2610  -92.2350   -0.9440 C.2    76  GLY76       0.2638
     30  O        -21.6370  -91.8080    0.0280 O.2    76  GLY76      -0.2714
     31  N        -21.6870  -92.5190   -2.1080 N.am   77  ALA77      -0.1977
     32  CA       -20.2500  -92.4010   -2.2980 C.3    77  ALA77       0.1597
     33  C        -19.8860  -91.1820   -3.1310 C.2    77  ALA77       0.2287
     34  O        -20.6510  -90.7520   -3.9980 O.2    77  ALA77      -0.2864
     35  CB       -19.7050  -93.6520   -2.9520 C.3    77  ALA77       0.0319
     36  N        -23.3530  -91.4250   -4.7620 N.3    90  SER90      -0.1202
     37  CA       -23.4000  -92.4620   -5.7850 C.3    90  SER90       0.2020
     38  C        -23.5980  -93.8370   -5.1660 C.2    90  SER90       0.2619
     39  O        -23.2720  -94.0580   -4.0000 O.2    90  SER90      -0.2717
     40  CB       -22.1190  -92.4520   -6.6210 C.3    90  SER90       0.2103
     41  OG       -22.1050  -91.3600   -7.5210 O.3    90  SER90      -0.2182
     42  N        -24.1400  -94.7580   -5.9560 N.am   91  TYR91      -0.1961
     43  CA       -24.3070  -96.1330   -5.5150 C.3    91  TYR91       0.1771
     44  C        -23.0420  -96.9410   -5.7700 C.2    91  TYR91       0.2619
     45  O        -22.4570  -96.8770   -6.8520 O.2    91  TYR91      -0.2715
     46  CB       -25.4950  -96.7850   -6.2280 C.3    91  TYR91       0.0574
     47  CG       -25.4960  -98.2980   -6.1680 C.ar   91  TYR91      -0.0198
     48  CD1      -25.9760  -98.9700   -5.0520 C.ar   91  TYR91      -0.0009
     49  CD2      -25.0230  -99.0560   -7.2320 C.ar   91  TYR91      -0.0009
     50  CE1      -25.9790 -100.3540   -4.9950 C.ar   91  TYR91       0.0417
     51  CE2      -25.0200 -100.4370   -7.1830 C.ar   91  TYR91       0.0417
     52  CZ       -25.5010 -101.0810   -6.0640 C.ar   91  TYR91       0.1957
     53  OH       -25.5020 -102.4560   -6.0150 O.3    91  TYR91      -0.2866
     54  N        -22.6200  -97.6910   -4.7580 N.am   92  LEU92      -0.1977
     55  CA       -21.5670  -98.6800   -4.9240 C.3    92  LEU92       0.1596
     56  C        -22.1470 -100.0380   -4.5630 C.2    92  LEU92       0.2287
     57  O        -22.9090 -100.1520   -3.6010 O.2    92  LEU92      -0.2864
     58  CB       -20.3620  -98.3610   -4.0380 C.3    92  LEU92       0.0297
     59  CG       -19.5940  -97.0750   -4.3540 C.3    92  LEU92       0.0022
     60  CD1      -18.3700  -96.9540   -3.4600 C.3    92  LEU92       0.0001
     61  CD2      -19.1980  -97.0250   -5.8210 C.3    92  LEU92       0.0001
     62  N        -22.7250 -103.5360   -2.9770 N.3    94  LEU94      -0.1245
     63  CA       -22.3310 -104.2020   -1.7450 C.3    94  LEU94       0.1561
     64  C        -21.6700 -105.5340   -2.0700 C.2    94  LEU94       0.2260
     65  O        -22.0990 -106.2370   -2.9870 O.2    94  LEU94      -0.2867
     66  CB       -23.5480 -104.4360   -0.8510 C.3    94  LEU94       0.0270
     67  CG       -24.2720 -103.1950   -0.3300 C.3    94  LEU94       0.0019
     68  CD1      -25.4620 -103.5950    0.5280 C.3    94  LEU94       0.0001
     69  CD2      -23.3160 -102.3140    0.4530 C.3    94  LEU94       0.0001
     70  N        -18.4040 -106.0900   12.6090 N.3   103  GLU103     -0.1231
     71  CA       -18.4940 -104.7630   13.2020 C.3   103  GLU103      0.1699
     72  C        -18.6650 -103.7120   12.1150 C.2   103  GLU103      0.2592
     73  O        -19.1410 -102.6050   12.3740 O.2   103  GLU103     -0.2718
     74  CB       -17.2360 -104.4650   14.0120 C.3   103  GLU103      0.0402
     75  CG       -16.8640 -105.5510   15.0020 C.3   103  GLU103      0.1161
     76  CD       -15.4970 -105.3260   15.6180 C.2   103  GLU103      0.3649
     77  OE1      -14.4920 -105.7560   15.0110 O.co2 103  GLU103     -0.2457
     78  OE2      -15.4300 -104.7200   16.7070 O.co2 103  GLU103     -0.2457
     79  N        -18.2730 -104.0720   10.8970 N.am  104  LEU104     -0.1966
     80  CA       -18.3470 -103.1680    9.7560 C.3   104  LEU104      0.1728
     81  C        -19.6860 -103.3060    9.0400 C.2   104  LEU104      0.2617
     82  O        -20.2430 -104.4030    8.9510 O.2   104  LEU104     -0.2715
     83  CB       -17.2050 -103.4560    8.7850 C.3   104  LEU104      0.0311
     84  CG       -15.8120 -103.5010    9.4150 C.3   104  LEU104      0.0022
     85  CD1      -14.7900 -103.9760    8.3950 C.3   104  LEU104      0.0001
     86  CD2      -15.4360 -102.1360    9.9710 C.3   104  LEU104      0.0001
     87  N        -20.1980 -102.1920    8.5260 N.am  105  GLY105     -0.1940
     88  CA       -21.4960 -102.1870    7.8800 C.3   105  GLY105      0.2014
     89  C        -21.4600 -101.9000    6.3900 C.2   105  GLY105      0.2640
     90  O        -20.4710 -102.1780    5.7100 O.2   105  GLY105     -0.2714
     91  N        -22.5500 -101.3230    5.8930 N.am  106  THR106     -0.1936
     92  CA       -22.7780 -101.1710    4.4580 C.3   106  THR106      0.2028
     93  C        -21.8100 -100.2320    3.7330 C.2   106  THR106      0.2642
     94  O        -21.6330 -100.3440    2.5220 O.2   106  THR106     -0.2714
     95  CB       -24.2280 -100.7330    4.1690 C.3   106  THR106      0.1808
     96  OG1      -24.5440  -99.5760    4.9510 O.3   106  THR106     -0.2208
     97  CG2      -25.1980 -101.8510    4.5180 C.3   106  THR106      0.0379
     98  N        -21.1940  -99.3080    4.4630 N.am  107  ARG107     -0.1963
     99  CA       -20.1990  -98.4200    3.8690 C.3   107  ARG107      0.1729
    100  C        -18.9920  -99.2330    3.4200 C.2   107  ARG107      0.2616
    101  O        -18.5890  -99.2000    2.2480 O.2   107  ARG107     -0.2715
    102  CB       -19.7560  -97.3650    4.8840 C.3   107  ARG107      0.0348
    103  CG       -19.9720  -95.9380    4.4250 C.3   107  ARG107      0.0492
    104  CD       -19.7470  -94.9500    5.5530 C.3   107  ARG107      0.2205
    105  NE       -20.5770  -93.7610    5.3800 N.pl3 107  ARG107     -0.0865
    106  CZ       -21.4460  -93.3180    6.2830 C.cat 107  ARG107      0.5346
    107  NH1      -21.5910  -93.9550    7.4360 N.pl3 107  ARG107      0.1354
    108  NH2      -22.1630  -92.2320    6.0370 N.pl3 107  ARG107      0.1354
    109  N        -18.4290  -99.9710    4.3690 N.am  108  HIS108     -0.1973
    110  CA       -17.2680 -100.8100    4.1220 C.3   108  HIS108      0.1656
    111  C        -17.5910 -101.9040    3.1150 C.2   108  HIS108      0.2291
    112  O        -16.7490 -102.2740    2.2980 O.2   108  HIS108     -0.2864
    113  CB       -16.7800 -101.4290    5.4320 C.3   108  HIS108      0.0771
    114  CG       -16.4900 -100.4210    6.5010 C.ar  108  HIS108      0.0820
    115  ND1      -17.4830  -99.7840    7.2140 N.ar  108  HIS108     -0.2267
    116  CD2      -15.3180  -99.9370    6.9720 C.ar  108  HIS108      0.1154
    117  CE1      -16.9340  -98.9520    8.0810 C.ar  108  HIS108      0.1986
    118  NE2      -15.6220  -99.0250    7.9550 N.ar  108  HIS108     -0.2212
    119  N        -19.8150 -101.6910    0.7130 N.3   110  ALA110     -0.1245
    120  CA       -19.8940 -101.0270   -0.5840 C.3   110  ALA110      0.1562
    121  C        -18.4970 -100.8080   -1.1550 C.2   110  ALA110      0.2260
    122  O        -18.2330 -101.1070   -2.3290 O.2   110  ALA110     -0.2867
    123  CB       -20.6300  -99.7030   -0.4590 C.3   110  ALA110      0.0290
    124  N        -15.3940  -94.4920    9.1940 N.3   126  SER126     -0.1202
    125  CA       -16.4540  -95.0550   10.0230 C.3   126  SER126      0.2020
    126  C        -17.1260  -93.9960   10.8920 C.2   126  SER126      0.2619
    127  O        -16.4650  -93.2890   11.6520 O.2   126  SER126     -0.2717
    128  CB       -15.9010  -96.1770   10.9040 C.3   126  SER126      0.2103
    129  OG       -16.8780  -96.6350   11.8230 O.3   126  SER126     -0.2182
    130  N        -18.4460  -93.8970   10.7720 N.am  127  GLU127     -0.1965
    131  CA       -19.2340  -92.9770   11.5800 C.3   127  GLU127      0.1733
    132  C        -19.2110  -93.4130   13.0420 C.2   127  GLU127      0.2616
    133  O        -19.3930  -92.6010   13.9480 O.2   127  GLU127     -0.2715
    134  CB       -20.6730  -92.9420   11.0630 C.3   127  GLU127      0.0429
    135  CG       -21.5960  -91.9760   11.7820 C.3   127  GLU127      0.1163
    136  CD       -23.0060  -92.0100   11.2250 C.2   127  GLU127      0.3649
    137  OE1      -23.2850  -92.8690   10.3600 O.co2 127  GLU127     -0.2457
    138  OE2      -23.8350  -91.1770   11.6520 O.co2 127  GLU127     -0.2457
    139  N        -18.9700  -94.7020   13.2610 N.am  128  GLU128     -0.1977
    140  CA       -19.0190  -95.2810   14.5990 C.3   128  GLU128      0.1602
    141  C        -17.7070  -95.1310   15.3660 C.2   128  GLU128      0.2287
    142  O        -17.6980  -94.6720   16.5060 O.2   128  GLU128     -0.2864
    143  CB       -19.4280  -96.7590   14.5170 C.3   128  GLU128      0.0415
    144  CG       -20.7270  -97.0000   13.7570 C.3   128  GLU128      0.1163
    145  CD       -21.1000  -98.4650   13.6670 C.2   128  GLU128      0.3649
    146  OE1      -20.5080  -99.2800   14.4050 O.co2 128  GLU128     -0.2457
    147  OE2      -21.9870  -98.7970   12.8540 O.co2 128  GLU128     -0.2457
@<TRIPOS>BOND
     1    41    40    1
     2    49    51   ar
     3    49    47   ar
     4    51    52   ar
     5    45    44    2
     6    40    37    1
     7    46    47    1
     8    46    43    1
     9    47    48   ar
    10    52    53    1
    11    52    50   ar
    12    42    43    1
    13    42    38   am
    14    61    59    1
    15    37    38    1
    16    37    36    1
    17    44    43    1
    18    44    54   am
    19    38    39    2
    20    48    50   ar
    21    55    54    1
    22    55    56    1
    23    55    58    1
    24    56    57    2
    25    59    58    1
    26    59    60    1
    27    34    33    2
    28    33    32    1
    29    65    64    2
    30    62    63    1
    31    35    32    1
    32   122   121    2
    33    32    31    1
    34    31    29   am
    35    64    63    1
    36    63    66    1
    37   121   120    1
    38    22    21    2
    39    29    28    1
    40    29    30    2
    41    28    27    1
    42    66    67    1
    43     4     3    2
    44   120   123    1
    45   120   119    1
    46    67    69    1
    47    67    68    1
    48    21    27   am
    49    21    20    1
    50     3     2    1
    51     8     6    1
    52     6     7    1
    53     6     5    1
    54    23    20    1
    55    23    24    1
    56    20    19    1
    57     5     2    1
    58     9    10    1
    59    19    11   am
    60     2     1    1
    61    24    26   ar
    62    24    25   ar
    63    11    10    1
    64    11    12    2
    65    10    13    1
    66   101   100    2
    67   112   111    2
    68    94    93    2
    69   111   110    1
    70   100    99    1
    71   100   109   am
    72    13    14    1
    73    93    92    1
    74    93    98   am
    75    99    98    1
    76    99   102    1
    77    14    15   ar
    78    14    16   ar
    79   110   109    1
    80   110   113    1
    81    15    17   ar
    82    95    92    1
    83    95    97    1
    84    95    96    1
    85   103   102    1
    86   103   104    1
    87    92    91    1
    88    16    18   ar
    89    17    18   ar
    90   105   104    1
    91   105   106    2
    92   113   114    1
    93    90    89    2
    94    91    89   am
    95   108   106    1
    96   106   107    1
    97    89    88    1
    98   114   116   ar
    99   114   115   ar
   100   116   118   ar
   101   115   117   ar
   102    88    87    1
   103   118   117   ar
   104    85    84    1
   105    87    81   am
   106    83    84    1
   107    83    80    1
   108    82    81    2
   109    81    80    1
   110   124   125    1
   111    84    86    1
   112    80    79    1
   113   125   126    1
   114   125   128    1
   115   137   136   ar
   116   130   126   am
   117   130   131    1
   118   126   127    2
   119    79    72   am
   120   128   129    1
   121   134   131    1
   122   134   135    1
   123   136   138   ar
   124   136   135    1
   125   131   132    1
   126    72    73    2
   127    72    71    1
   128    70    71    1
   129   147   145   ar
   130   132   139   am
   131   132   133    2
   132    71    74    1
   133   139   140    1
   134   145   144    1
   135   145   146   ar
   136   144   143    1
   137    74    75    1
   138   143   140    1
   139   140   141    1
   140    75    76    1
   141    77    76   ar
   142   141   142    2
   143    76    78   ar
