@<TRIPOS>MOLECULE
tmp/4rv8B01.pdb
 145 134 0 0 0
SMALL
GASTEIGER

@<TRIPOS>ATOM
      1  N         -7.3150  -16.0860  110.7140 N.3   101  VAL101     -0.1245
      2  CA        -8.2620  -16.9100  109.9690 C.3   101  VAL101      0.1561
      3  C         -7.8440  -18.3850  109.9530 C.2   101  VAL101      0.2260
      4  O         -6.6600  -18.7070  109.8620 O.2   101  VAL101     -0.2867
      5  CB        -8.4240  -16.4130  108.5140 C.3   101  VAL101      0.0252
      6  CG1       -9.1220  -15.0700  108.4910 C.3   101  VAL101      0.0019
      7  CG2       -7.0710  -16.3290  107.8140 C.3   101  VAL101      0.0019
      8  N         -8.8650  -11.7060  114.3530 N.3   121  ASP121     -0.1225
      9  CA        -8.4280  -10.4960  113.6760 C.3   121  ASP121      0.1805
     10  C         -7.8870  -10.7370  112.2800 C.2   121  ASP121      0.2598
     11  O         -7.2750  -11.7660  111.9940 O.2   121  ASP121     -0.2718
     12  CB        -7.3580   -9.7830  114.5020 C.3   121  ASP121      0.1424
     13  CG        -7.8870   -8.5480  115.1950 C.2   121  ASP121      0.3668
     14  OD1       -9.0380   -8.1540  114.9090 O.co2 121  ASP121     -0.2456
     15  OD2       -7.1460   -7.9640  116.0150 O.co2 121  ASP121     -0.2456
     16  N         -8.1150   -9.7570  111.4180 N.am  122  SER122     -0.1938
     17  CA        -7.5450   -9.7440  110.0860 C.3   122  SER122      0.2055
     18  C         -7.4420   -8.2980  109.6280 C.2   122  SER122      0.2643
     19  O         -8.1170   -7.4180  110.1700 O.2   122  SER122     -0.2714
     20  CB        -8.3950  -10.5670  109.1180 C.3   122  SER122      0.2130
     21  OG        -8.1070  -10.2310  107.7730 O.3   122  SER122     -0.2179
     22  N         -6.5850   -8.0530  108.6470 N.am  123  ALA123     -0.1963
     23  CA        -6.4670   -6.7290  108.0490 C.3   123  ALA123      0.1728
     24  C         -7.8160   -6.2930  107.4870 C.2   123  ALA123      0.2616
     25  O         -8.1820   -5.1190  107.5440 O.2   123  ALA123     -0.2715
     26  CB        -5.4040   -6.7320  106.9620 C.3   123  ALA123      0.0334
     27  N         -8.5560   -7.2600  106.9550 N.am  124  HIS124     -0.1973
     28  CA        -9.8650   -7.0060  106.3690 C.3   124  HIS124      0.1656
     29  C        -10.8990   -7.9460  106.9780 C.2   124  HIS124      0.2291
     30  O        -11.0910   -9.0560  106.4950 O.2   124  HIS124     -0.2864
     31  CB        -9.8080   -7.1840  104.8470 C.3   124  HIS124      0.0771
     32  CG       -11.0630   -6.7710  104.1410 C.ar  124  HIS124      0.0820
     33  ND1      -11.9900   -5.9260  104.7060 N.ar  124  HIS124     -0.2267
     34  CD2      -11.5360   -7.0840  102.9100 C.ar  124  HIS124      0.1154
     35  CE1      -12.9880   -5.7400  103.8580 C.ar  124  HIS124      0.1986
     36  NE2      -12.7360   -6.4270  102.7610 N.ar  124  HIS124     -0.2212
     37  N        -14.7730  -10.2880  105.3450 N.3   127  SER127     -0.1217
     38  CA       -14.3860  -11.1930  104.2690 C.3   127  SER127      0.1889
     39  C        -14.9390  -12.5940  104.4880 C.2   127  SER127      0.2288
     40  O        -15.3630  -12.9440  105.5900 O.2   127  SER127     -0.2866
     41  CB       -12.8620  -11.2490  104.1330 C.3   127  SER127      0.2089
     42  OG       -12.2620  -11.8360  105.2790 O.3   127  SER127     -0.2183
     43  N        -13.3720  -15.5620  104.3970 N.3   129  ASN129     -0.1240
     44  CA       -12.5150  -16.3360  105.2930 C.3   129  ASN129      0.1653
     45  C        -12.7780  -16.0570  106.7660 C.2   129  ASN129      0.2266
     46  O        -12.8270  -16.9790  107.5790 O.2   129  ASN129     -0.2867
     47  CB       -11.0430  -16.0660  104.9820 C.3   129  ASN129      0.1155
     48  CG       -10.5500  -16.8460  103.7810 C.2   129  ASN129      0.2627
     49  OD1      -11.3430  -17.3840  103.0090 O.2   129  ASN129     -0.2716
     50  ND2       -9.2340  -16.9140  103.6170 N.am  129  ASN129     -0.0877
     51  N        -10.8050   -6.4450  111.6050 N.3   149  ASN149     -0.1240
     52  CA       -11.2450   -5.0700  111.8210 C.3   149  ASN149      0.1653
     53  C        -12.1660   -4.6060  110.6950 C.2   149  ASN149      0.2266
     54  O        -11.9460   -4.9410  109.5280 O.2   149  ASN149     -0.2867
     55  CB       -10.0360   -4.1380  111.9300 C.3   149  ASN149      0.1155
     56  CG        -9.3920   -4.1680  113.3070 C.2   149  ASN149      0.2627
     57  OD1       -9.5880   -5.1090  114.0800 O.2   149  ASN149     -0.2716
     58  ND2       -8.6280   -3.1270  113.6250 N.am  149  ASN149     -0.0877
     59  N        -14.5510   -5.0890  116.3500 N.3   168  LYS168     -0.1245
     60  CA       -13.3930   -4.2150  116.4410 C.3   168  LYS168      0.1561
     61  C        -13.2860   -3.3210  115.2060 C.2   168  LYS168      0.2260
     62  O        -13.2340   -3.7970  114.0760 O.2   168  LYS168     -0.2867
     63  CB       -12.1150   -5.0300  116.6320 C.3   168  LYS168      0.0271
     64  CG       -10.9270   -4.1830  117.0500 C.3   168  LYS168      0.0035
     65  CD       -10.0820   -4.8760  118.1060 C.3   168  LYS168      0.0206
     66  CE        -9.3380   -6.0680  117.5260 C.3   168  LYS168      0.1093
     67  NZ        -8.4190   -5.6470  116.4330 N.3   168  LYS168     -0.1314
     68  N        -11.4770   -0.2750  112.9700 N.3   170  GLY170     -0.1210
     69  CA       -10.2250    0.4080  112.7040 C.3   170  GLY170      0.1956
     70  C         -9.4560   -0.0980  111.4990 C.2   170  GLY170      0.2612
     71  O         -8.8100   -1.1450  111.5510 O.2   170  GLY170     -0.2717
     72  N         -9.5340    0.6530  110.4060 N.am  171  ILE171     -0.1965
     73  CA        -8.7180    0.4060  109.2200 C.3   171  ILE171      0.1727
     74  C         -8.2160    1.7690  108.7570 C.2   171  ILE171      0.2617
     75  O         -9.0050    2.6190  108.3460 O.2   171  ILE171     -0.2715
     76  CB        -9.5050   -0.3060  108.1050 C.3   171  ILE171      0.0290
     77  CG1       -9.9710   -1.6880  108.5790 C.3   171  ILE171      0.0022
     78  CG2       -8.6590   -0.4370  106.8400 C.3   171  ILE171      0.0023
     79  CD1      -10.6800   -2.5060  107.5180 C.3   171  ILE171      0.0001
     80  N         -6.9110    1.9990  108.8770 N.am  172  GLY172     -0.1941
     81  CA        -6.3860    3.3380  108.7000 C.3   172  GLY172      0.1998
     82  C         -5.7340    4.0610  109.8820 C.2   172  GLY172      0.2481
     83  O         -4.7120    4.7210  109.6920 O.2   172  GLY172     -0.2729
     84  N         -6.3010    3.9580  111.1060 N.am  173  PRO173     -0.2715
     85  CA        -5.8610    4.9540  112.0960 C.3   173  PRO173      0.1536
     86  C         -4.6060    4.6270  112.9230 C.2   173  PRO173      0.2599
     87  O         -4.1100    5.5270  113.5970 O.2   173  PRO173     -0.2715
     88  CB        -7.0720    5.0510  113.0210 C.3   173  PRO173      0.0310
     89  CG        -7.6000    3.6500  113.0440 C.3   173  PRO173      0.0237
     90  CD        -7.4040    3.1300  111.6310 C.3   173  PRO173      0.0939
     91  N         -4.1110    3.3940  112.8930 N.am  174  GLY174     -0.1955
     92  CA        -2.9880    3.0210  113.7440 C.3   174  GLY174      0.1869
     93  C         -1.7460    3.8780  113.5510 C.2   174  GLY174      0.2309
     94  O         -1.4630    4.3230  112.4420 O.2   174  GLY174     -0.2863
     95  N         -1.3920    0.9390  105.6720 N.3   178  THR178     -0.1218
     96  CA        -2.4550    0.4760  104.7780 C.3   178  THR178      0.1862
     97  C         -2.9820    1.6580  103.9640 C.2   178  THR178      0.2287
     98  O         -3.3140    1.5160  102.7820 O.2   178  THR178     -0.2866
     99  CB        -3.6150   -0.1860  105.5540 C.3   178  THR178      0.1770
    100  OG1       -3.1510   -1.3970  106.1640 O.3   178  THR178     -0.2211
    101  CG2       -4.7880   -0.5030  104.6320 C.3   178  THR178      0.0375
    102  N        -10.2380    0.6080  117.7380 N.3   209  ASP209     -0.1239
    103  CA        -8.8660    0.1080  117.6900 C.3   209  ASP209      0.1674
    104  C         -7.9250    0.9440  116.8280 C.2   209  ASP209      0.2266
    105  O         -8.0090    0.9200  115.6020 O.2   209  ASP209     -0.2867
    106  CB        -8.8710   -1.3380  117.1790 C.3   209  ASP209      0.1410
    107  CG        -7.4810   -1.9590  117.1310 C.2   209  ASP209      0.3668
    108  OD1       -6.5360   -1.4060  117.7300 O.co2 209  ASP209     -0.2456
    109  OD2       -7.3400   -3.0310  116.5010 O.co2 209  ASP209     -0.2456
    110  N          2.2620   -5.4280  113.1110 N.3   259  MET259     -0.1230
    111  CA         2.2940   -6.8720  112.9110 C.3   259  MET259      0.1702
    112  C          2.3560   -7.1860  111.4170 C.2   259  MET259      0.2592
    113  O          2.6360   -8.3160  111.0150 O.2   259  MET259     -0.2718
    114  CB         1.0810   -7.5350  113.5620 C.3   259  MET259      0.0401
    115  CG         1.0630   -7.4040  115.0850 C.3   259  MET259      0.0596
    116  SD         2.5070   -8.1490  115.8820 S.3   259  MET259     -0.1393
    117  CE         2.3050   -9.8630  115.4090 C.3   259  MET259      0.0692
    118  N          2.1080   -6.1670  110.6030 N.am  260  GLY260     -0.1957
    119  CA         2.2250   -6.2830  109.1640 C.3   260  GLY260      0.1869
    120  C          3.5330   -5.7060  108.6580 C.2   260  GLY260      0.2309
    121  O          3.6970   -5.4850  107.4600 O.2   260  GLY260     -0.2863
    122  N          6.5930  -10.1620  110.2950 N.3   265  MET265     -0.1245
    123  CA         6.2090  -11.2790  109.4350 C.3   265  MET265      0.1570
    124  C          7.3520  -12.2680  109.2320 C.2   265  MET265      0.2261
    125  O          7.1270  -13.4080  108.8260 O.2   265  MET265     -0.2867
    126  CB         5.7120  -10.7640  108.0850 C.3   265  MET265      0.0387
    127  CG         4.4170   -9.9740  108.1730 C.3   265  MET265      0.0595
    128  SD         3.8210   -9.4200  106.5650 S.3   265  MET265     -0.1393
    129  CE         5.1780   -8.3790  106.0320 C.3   265  MET265      0.0692
    130  N          4.7950   -7.6670  101.0500 N.3   270  VAL270     -0.1245
    131  CA         4.1950   -6.3540  100.8420 C.3   270  VAL270      0.1561
    132  C          3.6540   -5.8500  102.1770 C.2   270  VAL270      0.2260
    133  O          2.4670   -5.9990  102.4790 O.2   270  VAL270     -0.2867
    134  CB         3.0760   -6.3880   99.7870 C.3   270  VAL270      0.0252
    135  CG1        2.5470   -4.9830   99.5270 C.3   270  VAL270      0.0019
    136  CG2        3.5880   -7.0120   98.4920 C.3   270  VAL270      0.0019
    137  N          2.3810   -3.6810  105.4680 N.3   272  GLU272     -0.1245
    138  CA         1.3920   -2.6280  105.6610 C.3   272  GLU272      0.1567
    139  C          1.5200   -2.0320  107.0620 C.2   272  GLU272      0.2260
    140  O          0.5620   -1.4870  107.6130 O.2   272  GLU272     -0.2867
    141  CB        -0.0230   -3.1630  105.4270 C.3   272  GLU272      0.0388
    142  CG        -0.2880   -3.6280  103.9970 C.3   272  GLU272      0.1160
    143  CD        -1.7330   -4.0550  103.7840 C.2   272  GLU272      0.3649
    144  OE1       -2.6280   -3.4910  104.4520 O.co2 272  GLU272     -0.2457
    145  OE2       -1.9730   -4.9600  102.9550 O.co2 272  GLU272     -0.2457
@<TRIPOS>BOND
     1   136   134    1
     2   135   134    1
     3   134   131    1
     4   131   130    1
     5   131   132    1
     6   132   133    2
     7    36    34   ar
     8    36    35   ar
     9    98    97    2
    10    34    32   ar
    11   145   143   ar
    12    49    48    2
    13    50    48   am
    14    48    47    1
    15   143   142    1
    16   143   144   ar
    17    35    33   ar
    18    97    96    1
    19   142   141    1
    20    41    38    1
    21    41    42    1
    22    32    33   ar
    23    32    31    1
    24    38    39    1
    25    38    37    1
    26    43    44    1
    27    39    40    2
    28   101    99    1
    29    96    99    1
    30    96    95    1
    31    31    28    1
    32    47    44    1
    33    44    45    1
    34   141   138    1
    35   137   138    1
    36    99   100    1
    37   138   139    1
    38   129   128    1
    39    28    27    1
    40    28    29    1
    41    30    29    2
    42   128   127    1
    43    45    46    2
    44    78    76    1
    45    27    24   am
    46    26    23    1
    47   139   140    2
    48   121   120    2
    49    24    25    2
    50    24    23    1
    51    79    77    1
    52    21    20    1
    53     7     5    1
    54    23    22    1
    55   126   127    1
    56   126   123    1
    57    76    77    1
    58    76    73    1
    59    75    74    2
    60     6     5    1
    61     5     2    1
    62    22    18   am
    63   120   119    1
    64    81    80    1
    65    81    82    1
    66    74    80   am
    67    74    73    1
    68   125   124    2
    69    20    17    1
    70   119   118    1
    71    73    72    1
    72   124   123    1
    73   123   122    1
    74    54    53    2
    75    18    17    1
    76    18    19    2
    77    83    82    2
    78     4     3    2
    79    82    84   am
    80     3     2    1
    81     2     1    1
    82    17    16    1
    83    72    70   am
    84   118   112   am
    85    53    52    1
    86   113   112    2
    87    84    90    1
    88    84    85    1
    89   112   111    1
    90    16    10   am
    91    70    71    2
    92    70    69    1
    93    51    52    1
    94    90    89    1
    95    52    55    1
    96    55    56    1
    97    11    10    2
    98    85    86    1
    99    85    88    1
   100    10     9    1
   101    94    93    2
   102    69    68    1
   103    91    86   am
   104    91    92    1
   105   111   110    1
   106   111   114    1
   107    86    87    2
   108    88    89    1
   109    56    58   am
   110    56    57    2
   111    93    92    1
   112   114   115    1
   113     9     8    1
   114     9    12    1
   115    62    61    2
   116    12    13    1
   117    14    13   ar
   118   115   116    1
   119    13    15   ar
   120    61    60    1
   121   117   116    1
   122   105   104    2
   123    59    60    1
   124    67    66    1
   125    60    63    1
   126   109   107   ar
   127    63    64    1
   128   104   103    1
   129    64    65    1
   130   107   106    1
   131   107   108   ar
   132   106   103    1
   133    66    65    1
   134   103   102    1
