@<TRIPOS>MOLECULE
tmp/4rv9A00.pdb
 187 185 0 0 0
SMALL
GASTEIGER

@<TRIPOS>ATOM
      1  N        -39.6600    9.0440    8.2610 N.3    65  PRO65      -0.2116
      2  CA       -38.5820    8.5730    7.3690 C.3    65  PRO65       0.1372
      3  C        -38.1450    9.5780    6.2920 C.2    65  PRO65       0.2244
      4  O        -36.9730    9.5870    5.9110 O.2    65  PRO65      -0.2868
      5  CB       -39.1770    7.3050    6.7230 C.3    65  PRO65       0.0268
      6  CG       -40.6480    7.3870    6.9490 C.3    65  PRO65       0.0207
      7  CD       -40.8120    8.1220    8.2470 C.3    65  PRO65       0.0892
      8  N        -34.1800   10.3790    6.0070 N.3    69  TYR69      -0.1241
      9  CA       -33.4350    9.7200    4.9220 C.3    69  TYR69       0.1605
     10  C        -33.3290   10.4760    3.6040 C.2    69  TYR69       0.2264
     11  O        -32.4290   10.1890    2.8120 O.2    69  TYR69      -0.2867
     12  CB       -34.0030    8.3130    4.6870 C.3    69  TYR69       0.0534
     13  CG       -33.9250    7.4810    5.9390 C.ar   69  TYR69      -0.0201
     14  CD1      -32.6970    7.2140    6.5360 C.ar   69  TYR69      -0.0009
     15  CD2      -35.0730    6.9940    6.5540 C.ar   69  TYR69      -0.0009
     16  CE1      -32.6100    6.4710    7.7010 C.ar   69  TYR69       0.0417
     17  CE2      -34.9940    6.2460    7.7210 C.ar   69  TYR69       0.0417
     18  CZ       -33.7610    5.9910    8.2930 C.ar   69  TYR69       0.1957
     19  OH       -33.6750    5.2580    9.4610 O.3    69  TYR69      -0.2866
     20  N        -29.5140   12.0380    3.4830 N.3    72  TYR72      -0.1241
     21  CA       -28.7460   11.2620    4.4580 C.3    72  TYR72       0.1605
     22  C        -27.2610   11.5150    4.2310 C.2    72  TYR72       0.2264
     23  O        -26.8240   11.6220    3.0880 O.2    72  TYR72      -0.2867
     24  CB       -29.0740    9.7760    4.2970 C.3    72  TYR72       0.0534
     25  CG       -28.7620    8.9060    5.4950 C.ar   72  TYR72      -0.0201
     26  CD1      -29.4260    9.0880    6.7100 C.ar   72  TYR72      -0.0009
     27  CD2      -27.8330    7.8700    5.4010 C.ar   72  TYR72      -0.0009
     28  CE1      -29.1490    8.2820    7.8020 C.ar   72  TYR72       0.0417
     29  CE2      -27.5510    7.0570    6.4840 C.ar   72  TYR72       0.0417
     30  CZ       -28.2100    7.2680    7.6820 C.ar   72  TYR72       0.1957
     31  OH       -27.9350    6.4590    8.7530 O.3    72  TYR72      -0.2866
     32  N        -18.2760   -6.7080    3.0740 N.3    86  MET86      -0.1245
     33  CA       -19.1100   -6.7090    1.8690 C.3    86  MET86       0.1570
     34  C        -18.7440   -7.8600    0.9220 C.2    86  MET86       0.2261
     35  O        -19.6190   -8.4550    0.2930 O.2    86  MET86      -0.2867
     36  CB       -19.0150   -5.3720    1.1360 C.3    86  MET86       0.0387
     37  CG       -19.7610   -4.2310    1.8180 C.3    86  MET86       0.0595
     38  SD       -19.7610   -2.7530    0.7940 S.3    86  MET86      -0.1393
     39  CE       -20.7330   -1.6350    1.8070 C.3    86  MET86       0.0692
     40  N        -30.7940   -4.6740   -4.2670 N.3   107  GLU107     -0.1231
     41  CA       -30.4600   -4.2350   -2.9050 C.3   107  GLU107      0.1699
     42  C        -31.2860   -3.0490   -2.4240 C.2   107  GLU107      0.2592
     43  O        -31.3340   -2.0020   -3.0660 O.2   107  GLU107     -0.2718
     44  CB       -28.9720   -3.9280   -2.7600 C.3   107  GLU107      0.0402
     45  CG       -28.6100   -3.5330   -1.3320 C.3   107  GLU107      0.1161
     46  CD       -27.1340   -3.2700   -1.1230 C.2   107  GLU107      0.3649
     47  OE1      -26.7290   -3.1250    0.0440 O.co2 107  GLU107     -0.2457
     48  OE2      -26.3860   -3.2040   -2.1170 O.co2 107  GLU107     -0.2457
     49  N        -31.9150   -3.2370   -1.2700 N.am  108  ILE108     -0.1966
     50  CA       -32.6860   -2.2110   -0.5950 C.3   108  ILE108      0.1727
     51  C        -31.7590   -1.4790    0.3630 C.2   108  ILE108      0.2617
     52  O        -31.0600   -2.1050    1.1470 O.2   108  ILE108     -0.2715
     53  CB       -33.8560   -2.8460    0.1960 C.3   108  ILE108      0.0290
     54  CG1      -34.8260   -3.5450   -0.7620 C.3   108  ILE108      0.0022
     55  CG2      -34.5970   -1.7940    1.0140 C.3   108  ILE108      0.0023
     56  CD1      -35.8180   -4.4670   -0.0730 C.3   108  ILE108      0.0001
     57  N        -31.7730   -0.1510    0.3200 N.am  109  GLY109     -0.1940
     58  CA       -30.8790    0.6490    1.1510 C.3   109  GLY109      0.2014
     59  C        -29.4460    0.5580    0.6660 C.2   109  GLY109      0.2640
     60  O        -28.5070    0.5530    1.4710 O.2   109  GLY109     -0.2714
     61  N        -29.2990    0.5300   -0.6580 N.am  110  SER110     -0.1935
     62  CA       -28.0180    0.3230   -1.3320 C.3   110  SER110      0.2055
     63  C        -27.0050    1.4660   -1.1670 C.2   110  SER110      0.2643
     64  O        -25.8100    1.2860   -1.4450 O.2   110  SER110     -0.2714
     65  CB       -28.2480    0.0430   -2.8270 C.3   110  SER110      0.2130
     66  OG       -28.9780    1.0850   -3.4550 O.3   110  SER110     -0.2179
     67  N        -27.4750    2.6370   -0.7430 N.am  111  ASN111     -0.1971
     68  CA       -26.5780    3.7170   -0.3300 C.3   111  ASN111      0.1688
     69  C        -25.6420    4.0900   -1.5050 C.2   111  ASN111      0.2292
     70  O        -26.1180    4.2420   -2.6430 O.2   111  ASN111     -0.2864
     71  CB       -25.8210    3.2820    0.9440 C.3   111  ASN111      0.1181
     72  CG       -25.2320    4.4530    1.7160 C.2   111  ASN111      0.2629
     73  OD1      -24.0800    4.8210    1.5040 O.2   111  ASN111     -0.2716
     74  ND2      -26.0210    5.0420    2.6070 N.am  111  ASN111     -0.0877
     75  N        -32.0310    0.3980   -4.5370 N.3   129  ILE129     -0.1231
     76  CA       -33.1680    1.2220   -4.1420 C.3   129  ILE129      0.1692
     77  C        -32.7670    1.9370   -2.8610 C.2   129  ILE129      0.2592
     78  O        -32.4840    1.2800   -1.8560 O.2   129  ILE129     -0.2718
     79  CB       -34.4260    0.3760   -3.8670 C.3   129  ILE129      0.0266
     80  CG1      -34.8940   -0.3200   -5.1440 C.3   129  ILE129      0.0019
     81  CG2      -35.5600    1.2330   -3.3110 C.3   129  ILE129      0.0020
     82  CD1      -35.8840   -1.4350   -4.8840 C.3   129  ILE129      0.0001
     83  N        -32.7340    3.2720   -2.9030 N.am  130  ASP130     -0.1960
     84  CA       -32.3700    4.0800   -1.7350 C.3   130  ASP130      0.1825
     85  C        -32.9760    5.4810   -1.8520 C.2   130  ASP130      0.2464
     86  O        -32.7560    6.1620   -2.8540 O.2   130  ASP130     -0.2730
     87  CB       -30.8490    4.1770   -1.5850 C.3   130  ASP130      0.1450
     88  CG       -30.4280    4.6210   -0.1960 C.2   130  ASP130      0.3671
     89  OD1      -29.7260    3.8550    0.4880 O.co2 130  ASP130     -0.2456
     90  OD2      -30.8110    5.7290    0.2290 O.co2 130  ASP130     -0.2456
     91  N        -33.7410    5.9130   -0.8300 N.am  131  PRO131     -0.2715
     92  CA       -34.4570    7.1920   -0.8850 C.3   131  PRO131      0.1536
     93  C        -33.5730    8.4350   -0.7540 C.2   131  PRO131      0.2598
     94  O        -34.0160    9.5310   -1.1110 O.2   131  PRO131     -0.2715
     95  CB       -35.4070    7.1030    0.3190 C.3   131  PRO131      0.0310
     96  CG       -34.6890    6.2350    1.2910 C.3   131  PRO131      0.0237
     97  CD       -33.9840    5.2130    0.4470 C.3   131  PRO131      0.0939
     98  N        -32.3560    8.2760   -0.2320 N.am  132  ALA132     -0.1978
     99  CA       -31.4370    9.4060   -0.0530 C.3   132  ALA132      0.1597
    100  C        -30.9680    9.9310   -1.4090 C.2   132  ALA132      0.2287
    101  O        -30.0900    9.3410   -2.0470 O.2   132  ALA132     -0.2864
    102  CB       -30.2550    9.0060    0.8110 C.3   132  ALA132      0.0319
    103  N        -27.2790   10.6520   -2.0600 N.3   135  ILE135     -0.1245
    104  CA       -26.4600    9.4530   -2.1240 C.3   135  ILE135      0.1561
    105  C        -26.7340    8.6750   -3.4030 C.2   135  ILE135      0.2260
    106  O        -25.8040    8.1670   -4.0240 O.2   135  ILE135     -0.2867
    107  CB       -26.6950    8.5570   -0.8970 C.3   135  ILE135      0.0252
    108  CG1      -26.1460    9.2550    0.3500 C.3   135  ILE135      0.0019
    109  CG2      -26.0170    7.2040   -1.0850 C.3   135  ILE135      0.0019
    110  CD1      -26.6150    8.6580    1.6630 C.3   135  ILE135      0.0001
    111  N        -35.8460    5.9440   -4.3230 N.3   149  GLU149     -0.1231
    112  CA       -37.1380    5.7770   -3.6550 C.3   149  GLU149      0.1699
    113  C        -37.0410    4.8710   -2.4330 C.2   149  GLU149      0.2592
    114  O        -36.0720    4.1220   -2.2690 O.2   149  GLU149     -0.2718
    115  CB       -38.1770    5.1930   -4.6230 C.3   149  GLU149      0.0402
    116  CG       -38.3970    5.9990   -5.9050 C.3   149  GLU149      0.1161
    117  CD       -38.9110    7.4220   -5.6720 C.2   149  GLU149      0.3649
    118  OE1      -39.2890    7.7790   -4.5330 O.co2 149  GLU149     -0.2457
    119  OE2      -38.9460    8.2020   -6.6470 O.co2 149  GLU149     -0.2457
    120  N        -38.0510    4.9620   -1.5710 N.am  150  PHE150     -0.1962
    121  CA       -38.2380    4.0000   -0.4950 C.3   150  PHE150      0.1771
    122  C        -38.7150    2.7100   -1.1330 C.2   150  PHE150      0.2619
    123  O        -39.3730    2.7380   -2.1670 O.2   150  PHE150     -0.2715
    124  CB       -39.2790    4.4840    0.5210 C.3   150  PHE150      0.0574
    125  CG       -38.8370    5.6650    1.3320 C.ar  150  PHE150     -0.0200
    126  CD1      -38.1780    5.4870    2.5400 C.ar  150  PHE150     -0.0042
    127  CD2      -39.0840    6.9540    0.8920 C.ar  150  PHE150     -0.0042
    128  CE1      -37.7630    6.5680    3.2900 C.ar  150  PHE150     -0.0003
    129  CE2      -38.6790    8.0420    1.6400 C.ar  150  PHE150     -0.0003
    130  CZ       -38.0190    7.8500    2.8430 C.ar  150  PHE150     -0.0000
    131  N        -38.3640    1.5810   -0.5330 N.am  151  PHE151     -0.1974
    132  CA       -38.8930    0.3040   -0.9860 C.3   151  PHE151      0.1639
    133  C        -40.3620    0.2370   -0.5710 C.2   151  PHE151      0.2290
    134  O        -40.7280    0.6820    0.5140 O.2   151  PHE151     -0.2864
    135  CB       -38.1190   -0.8710   -0.3900 C.3   151  PHE151      0.0560
    136  CG       -38.5810   -2.2130   -0.8900 C.ar  151  PHE151     -0.0200
    137  CD1      -38.2660   -2.6330   -2.1740 C.ar  151  PHE151     -0.0042
    138  CD2      -39.3420   -3.0520   -0.0820 C.ar  151  PHE151     -0.0042
    139  CE1      -38.6970   -3.8660   -2.6440 C.ar  151  PHE151     -0.0003
    140  CE2      -39.7770   -4.2870   -0.5430 C.ar  151  PHE151     -0.0003
    141  CZ       -39.4530   -4.6960   -1.8260 C.ar  151  PHE151     -0.0000
    142  N        -29.1570   -4.6440    3.9040 N.3   172  ARG172     -0.1231
    143  CA       -28.1110   -4.5940    4.9290 C.3   172  ARG172      0.1694
    144  C        -28.3660   -3.4560    5.9020 C.2   172  ARG172      0.2592
    145  O        -28.2590   -2.2910    5.5330 O.2   172  ARG172     -0.2718
    146  CB       -26.7370   -4.4290    4.2890 C.3   172  ARG172      0.0321
    147  CG       -26.2310   -5.6880    3.6050 C.3   172  ARG172      0.0489
    148  CD       -24.7120   -5.6970    3.4950 C.3   172  ARG172      0.2205
    149  NE       -24.0660   -5.5170    4.8000 N.pl3 172  ARG172     -0.0865
    150  CZ       -23.3320   -4.4650    5.1680 C.cat 172  ARG172      0.5346
    151  NH1      -23.0900   -3.4540    4.3300 N.pl3 172  ARG172      0.1354
    152  NH2      -22.8310   -4.4240    6.4000 N.pl3 172  ARG172      0.1354
    153  N        -28.7460   -3.8230    7.1240 N.am  173  HIS173     -0.1962
    154  CA       -29.0640   -2.9040    8.2340 C.3   173  HIS173      0.1787
    155  C        -30.3770   -2.1280    8.1030 C.2   173  HIS173      0.2620
    156  O        -31.0740   -1.8960    9.1060 O.2   173  HIS173     -0.2715
    157  CB       -27.8620   -2.0240    8.5760 C.3   173  HIS173      0.0785
    158  CG       -26.7240   -2.8190    9.1250 C.ar  173  HIS173      0.0821
    159  ND1      -26.5100   -2.9740   10.4770 N.ar  173  HIS173     -0.2267
    160  CD2      -25.7990   -3.5910    8.5050 C.ar  173  HIS173      0.1154
    161  CE1      -25.4760   -3.7760   10.6660 C.ar  173  HIS173      0.1986
    162  NE2      -25.0250   -4.1610    9.4850 N.ar  173  HIS173     -0.2212
    163  N        -30.7350   -1.7920    6.8710 N.am  174  VAL174     -0.1977
    164  CA       -31.9510   -1.0490    6.5530 C.3   174  VAL174      0.1596
    165  C        -33.2450   -1.6300    7.1370 C.2   174  VAL174      0.2287
    166  O        -34.1530   -0.8750    7.4680 O.2   174  VAL174     -0.2864
    167  CB       -32.0970   -0.8940    5.0190 C.3   174  VAL174      0.0276
    168  CG1      -32.3510   -2.2420    4.3440 C.3   174  VAL174      0.0022
    169  CG2      -33.1980    0.0960    4.6800 C.3   174  VAL174      0.0022
    170  N        -34.5740   -0.2000   10.1520 N.3   177  HIS177     -0.1226
    171  CA       -34.9120    1.2220    9.9870 C.3   177  HIS177      0.1752
    172  C        -36.3290    1.4630    9.4340 C.2   177  HIS177      0.2595
    173  O        -36.7600    2.6070    9.3310 O.2   177  HIS177     -0.2718
    174  CB       -33.9190    1.9100    9.0420 C.3   177  HIS177      0.0759
    175  CG       -32.5160    1.9810    9.5620 C.ar  177  HIS177      0.0818
    176  ND1      -31.7690    0.8560    9.8380 N.ar  177  HIS177     -0.2268
    177  CD2      -31.7090    3.0390    9.8110 C.ar  177  HIS177      0.1154
    178  CE1      -30.5710    1.2190   10.2550 C.ar  177  HIS177      0.1986
    179  NE2      -30.5080    2.5390   10.2510 N.ar  177  HIS177     -0.2212
    180  N        -37.0420    0.3980    9.0790 N.am  178  ILE178     -0.1980
    181  CA       -38.3270    0.5090    8.3740 C.3   178  ILE178      0.1595
    182  C        -39.4940    0.2250    9.3110 C.2   178  ILE178      0.2287
    183  O        -39.5310   -0.8210    9.9610 O.2   178  ILE178     -0.2864
    184  CB       -38.3990   -0.4720    7.1850 C.3   178  ILE178      0.0276
    185  CG1      -37.2790   -0.1730    6.1870 C.3   178  ILE178      0.0022
    186  CG2      -39.7490   -0.3560    6.4790 C.3   178  ILE178      0.0022
    187  CD1      -37.0850   -1.2360    5.1220 C.3   178  ILE178      0.0001
@<TRIPOS>BOND
     1   119   117   ar
     2   116   117    1
     3   116   115    1
     4   117   118   ar
     5    80    82    1
     6    80    79    1
     7   115   112    1
     8    75    76    1
     9   111   112    1
    10    40    41    1
    11    76    79    1
    12    76    77    1
    13   106   105    2
    14    79    81    1
    15   112   113    1
    16    66    65    1
    17   105   104    1
    18    43    42    2
    19    41    44    1
    20    41    42    1
    21    83    77   am
    22    83    84    1
    23    77    78    2
    24    86    85    2
    25    65    62    1
    26    44    45    1
    27   139   137   ar
    28   139   141   ar
    29    70    69    2
    30   113   114    2
    31   113   120   am
    32    42    49   am
    33   137   136   ar
    34   123   122    2
    35   104   103    1
    36   104   107    1
    37    48    46   ar
    38   101   100    2
    39    85    84    1
    40    85    91   am
    41   141   140   ar
    42    84    87    1
    43    87    88    1
    44   120   121    1
    45    69    68    1
    46    64    63    2
    47   100    99    1
    48    45    46    1
    49    62    63    1
    50    62    61    1
    51    49    50    1
    52    63    67   am
    53   122   131   am
    54   122   121    1
    55    46    47   ar
    56    94    93    2
    57   109   107    1
    58   132   133    1
    59   132   131    1
    60   132   135    1
    61   107   108    1
    62   136   135    1
    63   136   138   ar
    64    92    91    1
    65    92    93    1
    66    92    95    1
    67    91    97    1
    68    54    56    1
    69    54    53    1
    70    93    98   am
    71    67    68    1
    72    61    59   am
    73    50    53    1
    74    50    51    1
    75   133   134    2
    76   140   138   ar
    77   121   124    1
    78    68    71    1
    79    98    99    1
    80    88    90   ar
    81    88    89   ar
    82    99   102    1
    83    53    55    1
    84    35    34    2
    85    95    96    1
    86    57    51   am
    87    57    58    1
    88   108   110    1
    89    51    52    2
    90    97    96    1
    91   124   125    1
    92    59    58    1
    93    59    60    2
    94    38    39    1
    95    38    37    1
    96   127   125   ar
    97   127   129   ar
    98    34    33    1
    99    71    72    1
   100    36    37    1
   101    36    33    1
   102   125   126   ar
   103    73    72    2
   104   129   130   ar
   105    72    74   am
   106    33    32    1
   107   126   128   ar
   108    11    10    2
   109   130   128   ar
   110    23    22    2
   111    20    21    1
   112   148   147    1
   113   148   149    1
   114    10     9    1
   115   147   146    1
   116   142   143    1
   117    22    21    1
   118   146   143    1
   119    24    21    1
   120    24    25    1
   121   151   150    1
   122   168   167    1
   123   169   167    1
   124    12     9    1
   125    12    13    1
   126   149   150    2
   127     9     8    1
   128   143   144    1
   129   167   164    1
   130   187   185    1
   131   150   152    1
   132    27    25   ar
   133    27    29   ar
   134    25    26   ar
   135   145   144    2
   136   144   153   am
   137     4     3    2
   138    13    14   ar
   139    13    15   ar
   140   185   184    1
   141     3     2    1
   142   186   184    1
   143    29    30   ar
   144    14    16   ar
   145   164   163    1
   146   164   165    1
   147    15    17   ar
   148    26    28   ar
   149     5     6    1
   150     5     2    1
   151   163   155   am
   152     6     7    1
   153   153   154    1
   154   165   166    2
   155   184   181    1
   156     2     1    1
   157    30    28   ar
   158    30    31    1
   159    16    18   ar
   160    17    18   ar
   161   155   154    1
   162   155   156    2
   163   154   157    1
   164     7     1    1
   165    18    19    1
   166   181   180    1
   167   181   182    1
   168   160   158   ar
   169   160   162   ar
   170   157   158    1
   171   174   175    1
   172   174   171    1
   173   180   172   am
   174   158   159   ar
   175   182   183    2
   176   173   172    2
   177   172   171    1
   178   162   161   ar
   179   175   177   ar
   180   175   176   ar
   181   177   179   ar
   182   176   178   ar
   183   171   170    1
   184   179   178   ar
   185   159   161   ar
