@<TRIPOS>MOLECULE
tmp/4rvgA00.pdb
 200 191 0 0 0
SMALL
GASTEIGER

@<TRIPOS>ATOM
      1  N        -27.8260   11.5400   14.0610 N.3    29  ASP29      -0.1239
      2  CA       -27.1350   11.9460   12.8270 C.3    29  ASP29       0.1674
      3  C        -27.4270   13.3820   12.3710 C.2    29  ASP29       0.2266
      4  O        -27.1840   13.7270   11.2100 O.2    29  ASP29      -0.2867
      5  CB       -27.4090   10.9400   11.6990 C.3    29  ASP29       0.1410
      6  CG       -26.4780    9.7350   11.7610 C.2    29  ASP29       0.3668
      7  OD1      -25.2780    9.9380   12.0520 O.co2  29  ASP29      -0.2456
      8  OD2      -26.9380    8.5970   11.5220 O.co2  29  ASP29      -0.2456
      9  N        -29.8070   12.4050    4.1980 N.3    72  TYR72      -0.1241
     10  CA       -28.8350   11.6030    4.9430 C.3    72  TYR72       0.1605
     11  C        -27.5180   11.6660    4.1890 C.2    72  TYR72       0.2264
     12  O        -27.4480   11.2150    3.0530 O.2    72  TYR72      -0.2867
     13  CB       -29.3210   10.1590    5.0410 C.3    72  TYR72       0.0534
     14  CG       -28.5290    9.2750    5.9750 C.ar   72  TYR72      -0.0201
     15  CD1      -28.7090    9.3500    7.3530 C.ar   72  TYR72      -0.0009
     16  CD2      -27.6280    8.3350    5.4780 C.ar   72  TYR72      -0.0009
     17  CE1      -27.9990    8.5290    8.2130 C.ar   72  TYR72       0.0417
     18  CE2      -26.9120    7.5110    6.3290 C.ar   72  TYR72       0.0417
     19  CZ       -27.1000    7.6110    7.6950 C.ar   72  TYR72       0.1957
     20  OH       -26.3910    6.7950    8.5420 O.3    72  TYR72      -0.2866
     21  N        -24.3390   10.5580    5.0480 N.3    74  TYR74      -0.1241
     22  CA       -23.2290    9.7040    5.4640 C.3    74  TYR74       0.1605
     23  C        -23.1400    8.4070    4.6680 C.2    74  TYR74       0.2264
     24  O        -24.0890    7.6160    4.6210 O.2    74  TYR74      -0.2867
     25  CB       -23.2990    9.4580    6.9720 C.3    74  TYR74       0.0534
     26  CG       -23.2180   10.7680    7.7230 C.ar   74  TYR74      -0.0201
     27  CD1      -24.2650   11.2060    8.5300 C.ar   74  TYR74      -0.0009
     28  CD2      -22.1120   11.6010    7.5690 C.ar   74  TYR74      -0.0009
     29  CE1      -24.1930   12.4200    9.1920 C.ar   74  TYR74       0.0417
     30  CE2      -22.0320   12.8150    8.2230 C.ar   74  TYR74       0.0417
     31  CZ       -23.0720   13.2230    9.0330 C.ar   74  TYR74       0.1957
     32  OH       -22.9810   14.4360    9.6760 O.3    74  TYR74      -0.2866
     33  N        -19.2850    2.8500    5.4180 N.3    77  SER77      -0.1217
     34  CA       -17.9020    2.7940    5.8840 C.3    77  SER77       0.1889
     35  C        -16.9750    2.2190    4.8110 C.2    77  SER77       0.2288
     36  O        -17.2850    1.1930    4.2030 O.2    77  SER77      -0.2866
     37  CB       -17.8090    1.9480    7.1550 C.3    77  SER77       0.2089
     38  OG       -16.4630    1.6470    7.4750 O.3    77  SER77      -0.2183
     39  N        -13.9630    1.2550    5.6100 N.3    79  SER79      -0.1217
     40  CA       -12.9790    0.5950    6.4510 C.3    79  SER79       0.1889
     41  C        -12.6470   -0.7860    5.9010 C.2    79  SER79       0.2288
     42  O        -13.4210   -1.3570    5.1270 O.2    79  SER79      -0.2866
     43  CB       -13.5230    0.4600    7.8730 C.3    79  SER79       0.2089
     44  OG       -14.7330   -0.2770    7.8880 O.3    79  SER79      -0.2183
     45  N        -30.9200    4.3830   19.1270 N.3   218  TYR218     -0.1241
     46  CA       -31.1710    5.7370   18.6610 C.3   218  TYR218      0.1605
     47  C        -32.3080    5.7690   17.6550 C.2   218  TYR218      0.2264
     48  O        -32.7270    4.7300   17.1530 O.2   218  TYR218     -0.2867
     49  CB       -29.8960    6.4230   18.1420 C.3   218  TYR218      0.0534
     50  CG       -29.0470    5.6740   17.1410 C.ar  218  TYR218     -0.0201
     51  CD1      -29.1870    5.9020   15.7740 C.ar  218  TYR218     -0.0009
     52  CD2      -28.0510    4.7990   17.5620 C.ar  218  TYR218     -0.0009
     53  CE1      -28.3850    5.2470   14.8510 C.ar  218  TYR218      0.0417
     54  CE2      -27.2430    4.1410   16.6500 C.ar  218  TYR218      0.0417
     55  CZ       -27.4130    4.3730   15.2960 C.ar  218  TYR218      0.1957
     56  OH       -26.6130    3.7290   14.3870 O.3   218  TYR218     -0.2866
     57  N        -33.1180    6.4430   14.5950 N.3   220  GLU220     -0.1245
     58  CA       -33.0560    5.6900   13.3460 C.3   220  GLU220      0.1567
     59  C        -33.3980    4.2300   13.5740 C.2   220  GLU220      0.2260
     60  O        -34.1130    3.6300   12.7830 O.2   220  GLU220     -0.2867
     61  CB       -31.6750    5.8120   12.7110 C.3   220  GLU220      0.0388
     62  CG       -31.4390    7.1560   12.0470 C.3   220  GLU220      0.1160
     63  CD       -30.0190    7.3250   11.5520 C.2   220  GLU220      0.3649
     64  OE1      -29.4180    6.3310   11.0960 O.co2 220  GLU220     -0.2457
     65  OE2      -29.5060    8.4580   11.6190 O.co2 220  GLU220     -0.2457
     66  N        -20.7870   -4.8910   13.6860 N.3   250  HIS250     -0.1241
     67  CA       -21.7000   -3.9810   14.3790 C.3   250  HIS250      0.1621
     68  C        -22.1430   -4.4890   15.7580 C.2   250  HIS250      0.2264
     69  O        -23.3160   -4.4130   16.1210 O.2   250  HIS250     -0.2867
     70  CB       -22.9000   -3.6570   13.4810 C.3   250  HIS250      0.0745
     71  CG       -22.5230   -2.9560   12.2090 C.ar  250  HIS250      0.0817
     72  ND1      -22.1310   -1.6340   12.1740 N.ar  250  HIS250     -0.2268
     73  CD2      -22.4630   -3.3980   10.9290 C.ar  250  HIS250      0.1154
     74  CE1      -21.8540   -1.2890   10.9280 C.ar  250  HIS250      0.1986
     75  NE2      -22.0490   -2.3410   10.1520 N.ar  250  HIS250     -0.2212
     76  N        -12.9760    9.0400   20.2050 N.3   320  TYR320     -0.1227
     77  CA       -12.3960    8.4630   18.9820 C.3   320  TYR320      0.1736
     78  C        -13.5220    7.9570   18.0910 C.2   320  TYR320      0.2596
     79  O        -14.1830    6.9720   18.4120 O.2   320  TYR320     -0.2718
     80  CB       -11.4080    7.3380   19.2990 C.3   320  TYR320      0.0548
     81  CG       -10.5130    6.9610   18.1400 C.ar  320  TYR320     -0.0200
     82  CD1      -11.0280    6.3470   16.9960 C.ar  320  TYR320     -0.0009
     83  CD2       -9.1470    7.2100   18.1830 C.ar  320  TYR320     -0.0009
     84  CE1      -10.2060    5.9970   15.9350 C.ar  320  TYR320      0.0417
     85  CE2       -8.3190    6.8620   17.1260 C.ar  320  TYR320      0.0417
     86  CZ        -8.8540    6.2590   16.0060 C.ar  320  TYR320      0.1957
     87  OH        -8.0360    5.9190   14.9560 O.3   320  TYR320     -0.2866
     88  N        -13.7160    8.6360   16.9650 N.am  321  GLY321     -0.1957
     89  CA       -14.8820    8.4310   16.1170 C.3   321  GLY321      0.1869
     90  C        -16.0460    9.2980   16.5810 C.2   321  GLY321      0.2309
     91  O        -16.1590    9.6260   17.7620 O.2   321  GLY321     -0.2863
     92  N        -19.5260    8.3390   15.6840 N.3   323  PRO323     -0.2102
     93  CA       -20.6370    7.5880   15.1240 C.3   323  PRO323      0.1504
     94  C        -21.9650    7.9580   15.7780 C.2   323  PRO323      0.2576
     95  O        -21.9860    8.4660   16.9040 O.2   323  PRO323     -0.2718
     96  CB       -20.2710    6.1390   15.4540 C.3   323  PRO323      0.0282
     97  CG       -19.5070    6.2420   16.7210 C.3   323  PRO323      0.0208
     98  CD       -18.7460    7.5300   16.6370 C.3   323  PRO323      0.0893
     99  N        -23.0570    7.6920   15.0660 N.am  324  ALA324     -0.1966
    100  CA       -24.4110    7.8950   15.5810 C.3   324  ALA324      0.1728
    101  C        -24.5570    7.4220   17.0250 C.2   324  ALA324      0.2616
    102  O        -25.0480    8.1620   17.8790 O.2   324  ALA324     -0.2715
    103  CB       -25.4130    7.1740   14.6960 C.3   324  ALA324      0.0334
    104  N        -24.1120    6.1960   17.2940 N.am  325  LYS325     -0.1977
    105  CA       -24.2190    5.6060   18.6350 C.3   325  LYS325      0.1596
    106  C        -23.4720    6.3690   19.7260 C.2   325  LYS325      0.2287
    107  O        -23.8760    6.3450   20.8870 O.2   325  LYS325     -0.2864
    108  CB       -23.7600    4.1400   18.6350 C.3   325  LYS325      0.0298
    109  CG       -22.2850    3.8990   18.3220 C.3   325  LYS325      0.0038
    110  CD       -21.9510    2.4240   18.5410 C.3   325  LYS325      0.0206
    111  CE       -21.2960    1.7630   17.3460 C.3   325  LYS325      0.1093
    112  NZ       -21.9430    2.0440   16.0290 N.3   325  LYS325     -0.1314
    113  N        -12.4330   12.9890   17.3150 N.3   344  CYS344     -0.1221
    114  CA       -11.8170   12.8680   15.9940 C.3   344  CYS344      0.1808
    115  C        -12.6760   11.9570   15.1220 C.2   344  CYS344      0.2601
    116  O        -13.2940   11.0120   15.6110 O.2   344  CYS344     -0.2717
    117  CB       -10.3680   12.3790   16.0660 C.3   344  CYS344      0.0970
    118  SG       -10.1420   10.7340   16.7530 S.3   344  CYS344     -0.0800
    119  N        -12.7390   12.2670   13.8340 N.am  345  ASP345     -0.1959
    120  CA       -13.5230   11.4750   12.9000 C.3   345  ASP345      0.1840
    121  C        -12.9820   11.6390   11.4810 C.2   345  ASP345      0.2623
    122  O        -12.6110   12.7360   11.0720 O.2   345  ASP345     -0.2715
    123  CB       -15.0000   11.8620   12.9850 C.3   345  ASP345      0.1450
    124  CG       -15.9030   10.8750   12.2790 C.2   345  ASP345      0.3671
    125  OD1      -16.0060   10.9610   11.0420 O.co2 345  ASP345     -0.2456
    126  OD2      -16.5240   10.0230   12.9510 O.co2 345  ASP345     -0.2456
    127  N        -12.9410   10.5290   10.7500 N.am  346  THR346     -0.1937
    128  CA       -12.3850   10.4760    9.3980 C.3   346  THR346      0.2028
    129  C        -13.3470   11.0050    8.3390 C.2   346  THR346      0.2642
    130  O        -12.9570   11.2130    7.1910 O.2   346  THR346     -0.2714
    131  CB       -12.0210    9.0250    9.0070 C.3   346  THR346      0.1808
    132  OG1      -13.1290    8.1590    9.3000 O.3   346  THR346     -0.2208
    133  CG2      -10.7880    8.5530    9.7640 C.3   346  THR346      0.0379
    134  N        -14.6050   11.2010    8.7170 N.am  347  THR347     -0.1950
    135  CA       -15.6170   11.6960    7.7910 C.3   347  THR347      0.1897
    136  C        -15.4510   13.2000    7.5990 C.2   347  THR347      0.2313
    137  O        -15.6440   13.9870    8.5260 O.2   347  THR347     -0.2863
    138  CB       -17.0350   11.3780    8.3010 C.3   347  THR347      0.1794
    139  OG1      -17.0700   10.0320    8.8040 O.3   347  THR347     -0.2208
    140  CG2      -18.0600   11.5330    7.1810 C.3   347  THR347      0.0378
    141  N        -18.2370   15.5680    8.5560 N.3   350  LYS350     -0.1245
    142  CA       -18.4110   15.7530   10.0010 C.3   350  LYS350      0.1561
    143  C        -17.3980   16.7280   10.5970 C.2   350  LYS350      0.2260
    144  O        -17.6870   17.3790   11.5900 O.2   350  LYS350     -0.2867
    145  CB       -18.3340   14.4110   10.7430 C.3   350  LYS350      0.0271
    146  CG       -19.4800   13.4610   10.4280 C.3   350  LYS350      0.0035
    147  CD       -19.3590   12.1680   11.2170 C.3   350  LYS350      0.0206
    148  CE       -20.5230   11.2320   10.9520 C.3   350  LYS350      0.1093
    149  NZ       -20.4310    9.9840   11.7550 N.3   350  LYS350     -0.1314
    150  N        -16.5120    4.5770   18.3840 N.3   380  ALA380     -0.1245
    151  CA       -16.6210    3.6320   17.2720 C.3   380  ALA380      0.1562
    152  C        -16.0320    2.2720   17.6610 C.2   380  ALA380      0.2260
    153  O        -15.1530    1.7340   16.9740 O.2   380  ALA380     -0.2867
    154  CB       -15.9150    4.1880   16.0460 C.3   380  ALA380      0.0290
    155  N        -17.1500   -0.7160   17.6350 N.3   382  ASN382     -0.1225
    156  CA       -17.3970   -1.8300   16.7120 C.3   382  ASN382      0.1785
    157  C        -16.2790   -2.0210   15.6840 C.2   382  ASN382      0.2597
    158  O        -16.2170   -3.0560   15.0190 O.2   382  ASN382     -0.2718
    159  CB       -18.7610   -1.6920   16.0090 C.3   382  ASN382      0.1169
    160  CG       -18.9570   -0.3370   15.3590 C.2   382  ASN382      0.2627
    161  OD1      -18.6730    0.6940   15.9670 O.2   382  ASN382     -0.2716
    162  ND2      -19.4420   -0.3260   14.1200 N.am  382  ASN382     -0.0877
    163  N        -15.4030   -1.0220   15.5600 N.am  383  TYR383     -0.1976
    164  CA       -14.2010   -1.1230   14.7330 C.3   383  TYR383      0.1639
    165  C        -12.9290   -1.2100   15.5800 C.2   383  TYR383      0.2290
    166  O        -11.8380   -0.8640   15.1110 O.2   383  TYR383     -0.2864
    167  CB       -14.1120    0.0680   13.7880 C.3   383  TYR383      0.0560
    168  CG       -15.2930    0.1970   12.8500 C.ar  383  TYR383     -0.0198
    169  CD1      -15.5720   -0.7900   11.9100 C.ar  383  TYR383     -0.0009
    170  CD2      -16.1220    1.3200   12.8880 C.ar  383  TYR383     -0.0009
    171  CE1      -16.6540   -0.6710   11.0440 C.ar  383  TYR383      0.0417
    172  CE2      -17.1980    1.4530   12.0220 C.ar  383  TYR383      0.0417
    173  CZ       -17.4650    0.4600   11.1010 C.ar  383  TYR383      0.1957
    174  OH       -18.5420    0.5880   10.2410 O.3   383  TYR383     -0.2866
    175  N         -9.5740   -2.9650   14.0730 N.3   386  GLU386     -0.1231
    176  CA        -8.9470   -2.1490   13.0440 C.3   386  GLU386      0.1699
    177  C         -8.3340   -0.8540   13.6000 C.2   386  GLU386      0.2592
    178  O         -7.2760   -0.4130   13.1510 O.2   386  GLU386     -0.2718
    179  CB        -9.9700   -1.8150   11.9680 C.3   386  GLU386      0.0402
    180  CG        -9.4410   -0.9070   10.8670 C.3   386  GLU386      0.1161
    181  CD       -10.4010   -0.7840    9.7030 C.2   386  GLU386      0.3649
    182  OE1      -10.1090   -0.0040    8.7730 O.co2 386  GLU386     -0.2457
    183  OE2      -11.4450   -1.4700    9.7160 O.co2 386  GLU386     -0.2457
    184  N         -9.0100   -0.2520   14.5700 N.am  387  ILE387     -0.1980
    185  CA        -8.5620    1.0070   15.1560 C.3   387  ILE387      0.1595
    186  C         -7.2980    0.7760   15.9800 C.2   387  ILE387      0.2287
    187  O         -6.2800    1.4300   15.7690 O.2   387  ILE387     -0.2864
    188  CB        -9.6880    1.6640   15.9840 C.3   387  ILE387      0.0276
    189  CG1      -10.7400    2.2400   15.0260 C.3   387  ILE387      0.0022
    190  CG2       -9.1380    2.7600   16.8920 C.3   387  ILE387      0.0022
    191  CD1      -11.9960    2.7680   15.6890 C.3   387  ILE387      0.0001
    192  N         -3.9170    0.2200   14.0740 N.3   390  LYS390     -0.1245
    193  CA        -3.2220    1.3640   13.4710 C.3   390  LYS390      0.1561
    194  C         -2.8730    2.4710   14.4740 C.2   390  LYS390      0.2260
    195  O         -2.4510    3.5470   14.0700 O.2   390  LYS390     -0.2867
    196  CB        -4.0650    1.9680   12.3390 C.3   390  LYS390      0.0271
    197  CG        -5.2820    2.7660   12.7990 C.3   390  LYS390      0.0035
    198  CD        -6.1290    3.2150   11.6150 C.3   390  LYS390      0.0206
    199  CE        -7.4440    3.8230   12.0710 C.3   390  LYS390      0.1093
    200  NZ        -8.2850    4.2540   10.9230 N.3   390  LYS390     -0.1314
@<TRIPOS>BOND
     1    12    11    2
     2    11    10    1
     3     9    10    1
     4    36    35    2
     5    24    23    2
     6    23    22    1
     7    35    34    1
     8    10    13    1
     9    13    14    1
    10    21    22    1
    11    42    41    2
    12    33    34    1
    13    22    25    1
    14    16    14   ar
    15    16    18   ar
    16    39    40    1
    17    34    37    1
    18    41    40    1
    19    14    15   ar
    20    18    19   ar
    21    40    43    1
    22    25    26    1
    23    37    38    1
    24   140   138    1
    25   130   129    2
    26    15    17   ar
    27    28    26   ar
    28    28    30   ar
    29   136   135    1
    30   136   137    2
    31    19    17   ar
    32    19    20    1
    33    26    27   ar
    34   135   138    1
    35   135   134    1
    36    43    44    1
    37    30    31   ar
    38   138   139    1
    39   129   134   am
    40   129   128    1
    41    27    29   ar
    42   141   142    1
    43   182   181   ar
    44   131   132    1
    45   131   128    1
    46   131   133    1
    47    31    29   ar
    48    31    32    1
    49   128   127    1
    50   181   183   ar
    51   181   180    1
    52   142   143    1
    53   142   145    1
    54    75    74   ar
    55    75    73   ar
    56   174   173    1
    57   146   145    1
    58   146   147    1
    59   143   144    2
    60   127   121   am
    61   180   179    1
    62   200   199    1
    63    74    72   ar
    64    73    71   ar
    65   148   147    1
    66   148   149    1
    67   125   124   ar
    68   171   173   ar
    69   171   169   ar
    70   122   121    2
    71    64    63   ar
    72   173   172   ar
    73     4     3    2
    74   121   120    1
    75     8     6   ar
    76    63    65   ar
    77    63    62    1
    78   198   199    1
    79   198   197    1
    80     5     6    1
    81     5     2    1
    82     6     7   ar
    83   169   168   ar
    84   179   176    1
    85   172   170   ar
    86    62    61    1
    87    72    71   ar
    88    71    70    1
    89   124   126   ar
    90   124   123    1
    91   196   197    1
    92   196   193    1
    93     3     2    1
    94    61    58    1
    95    60    59    2
    96     2     1    1
    97   168   170   ar
    98   168   167    1
    99   120   123    1
   100   120   119    1
   101   176   177    1
   102   176   175    1
   103   178   177    2
   104    58    59    1
   105    58    57    1
   106   193   192    1
   107   193   194    1
   108    70    67    1
   109   177   184   am
   110    66    67    1
   111   167   164    1
   112   119   115   am
   113   195   194    2
   114   162   160   am
   115    67    68    1
   116    56    55    1
   117   184   185    1
   118   103   100    1
   119   164   163    1
   120   164   165    1
   121    53    55   ar
   122    53    51   ar
   123    87    86    1
   124   158   157    2
   125   189   191    1
   126   189   188    1
   127    99   100    1
   128    99    94   am
   129   166   165    2
   130   115   116    2
   131   115   114    1
   132    93    96    1
   133    93    92    1
   134    93    94    1
   135   185   186    1
   136   185   188    1
   137    55    54   ar
   138   160   161    2
   139   160   159    1
   140    96    97    1
   141   163   157   am
   142   100   101    1
   143   157   156    1
   144    92    98    1
   145    68    69    2
   146   187   186    2
   147    51    50   ar
   148    94    95    2
   149    84    86   ar
   150    84    82   ar
   151   188   190    1
   152   114   117    1
   153   114   113    1
   154    86    85   ar
   155   159   156    1
   156   112   111    1
   157   154   151    1
   158   117   118    1
   159    89    90    1
   160    89    88    1
   161    90    91    2
   162    98    97    1
   163    54    52   ar
   164   156   155    1
   165    88    78   am
   166   153   152    2
   167    82    81   ar
   168   101   104   am
   169   101   102    2
   170    85    83   ar
   171    50    52   ar
   172    50    49    1
   173    48    47    2
   174   151   152    1
   175   151   150    1
   176   104   105    1
   177   111   110    1
   178    47    46    1
   179    78    79    2
   180    78    77    1
   181    81    83   ar
   182    81    80    1
   183    49    46    1
   184   109   110    1
   185   109   108    1
   186   105   108    1
   187   105   106    1
   188    46    45    1
   189    77    80    1
   190    77    76    1
   191   106   107    2
