@<TRIPOS>MOLECULE
tmp/4rvhA01.pdb
 224 216 0 0 0
SMALL
GASTEIGER

@<TRIPOS>ATOM
      1  N        -27.9850   11.5620   14.0360 N.3    29  ASP29      -0.1239
      2  CA       -27.2830   11.9630   12.8090 C.3    29  ASP29       0.1674
      3  C        -27.5940   13.4050   12.3750 C.2    29  ASP29       0.2266
      4  O        -27.4030   13.7610   11.2090 O.2    29  ASP29      -0.2867
      5  CB       -27.5840   10.9710   11.6730 C.3    29  ASP29       0.1410
      6  CG       -26.6780    9.7450   11.7060 C.2    29  ASP29       0.3668
      7  OD1      -25.4580    9.9070   11.9260 O.co2  29  ASP29      -0.2456
      8  OD2      -27.1800    8.6200   11.4970 O.co2  29  ASP29      -0.2456
      9  N        -29.2990   12.2760    4.0070 N.3    72  TYR72      -0.1241
     10  CA       -28.5960   11.4280    4.9730 C.3    72  TYR72       0.1605
     11  C        -27.0850   11.6650    4.8950 C.2    72  TYR72       0.2264
     12  O        -26.5220   11.6890    3.8020 O.2    72  TYR72      -0.2867
     13  CB       -28.9280    9.9570    4.6900 C.3    72  TYR72       0.0534
     14  CG       -28.7140    8.9980    5.8470 C.ar   72  TYR72      -0.0201
     15  CD1      -29.3130    9.2170    7.0880 C.ar   72  TYR72      -0.0009
     16  CD2      -27.9480    7.8450    5.6860 C.ar   72  TYR72      -0.0009
     17  CE1      -29.1280    8.3320    8.1400 C.ar   72  TYR72       0.0417
     18  CE2      -27.7610    6.9550    6.7310 C.ar   72  TYR72       0.0417
     19  CZ       -28.3510    7.2010    7.9550 C.ar   72  TYR72       0.1957
     20  OH       -28.1620    6.3160    8.9900 O.3    72  TYR72      -0.2866
     21  N        -24.5860    9.7430    6.4960 N.3    74  TYR74      -0.1241
     22  CA       -23.7580    8.5440    6.6620 C.3    74  TYR74       0.1605
     23  C        -23.5990    7.7570    5.3610 C.2    74  TYR74       0.2264
     24  O        -24.5530    7.1470    4.8760 O.2    74  TYR74      -0.2867
     25  CB       -24.3510    7.6340    7.7460 C.3    74  TYR74       0.0534
     26  CG       -23.5830    6.3440    7.9710 C.ar   74  TYR74      -0.0201
     27  CD1      -23.9720    5.1590    7.3470 C.ar   74  TYR74      -0.0009
     28  CD2      -22.4730    6.3090    8.8120 C.ar   74  TYR74      -0.0009
     29  CE1      -23.2730    3.9810    7.5480 C.ar   74  TYR74       0.0417
     30  CE2      -21.7690    5.1330    9.0210 C.ar   74  TYR74       0.0417
     31  CZ       -22.1720    3.9730    8.3870 C.ar   74  TYR74       0.1957
     32  OH       -21.4800    2.8030    8.5920 O.3    74  TYR74      -0.2866
     33  N        -19.3400    2.5800    5.3750 N.3    77  SER77      -0.1217
     34  CA       -17.9620    2.5880    5.8600 C.3    77  SER77       0.1889
     35  C        -16.9800    2.0980    4.7980 C.2    77  SER77       0.2288
     36  O        -17.2360    1.1010    4.1240 O.2    77  SER77      -0.2866
     37  CB       -17.8420    1.7090    7.1030 C.3    77  SER77       0.2089
     38  OG       -16.4900    1.5450    7.4880 O.3    77  SER77      -0.2183
     39  N        -13.9550    1.2090    5.7420 N.3    79  SER79      -0.1217
     40  CA       -12.9790    0.5150    6.5720 C.3    79  SER79       0.1889
     41  C        -12.6740   -0.8740    6.0160 C.2    79  SER79       0.2288
     42  O        -13.4490   -1.4250    5.2330 O.2    79  SER79      -0.2866
     43  CB       -13.5020    0.3940    8.0070 C.3    79  SER79       0.2089
     44  OG       -14.5790   -0.5240    8.0920 O.3    79  SER79      -0.2183
     45  N        -28.7230   -3.4740    7.4130 N.3   173  HIS173     -0.1241
     46  CA       -28.9260   -2.4260    8.4110 C.3   173  HIS173      0.1621
     47  C        -29.8860   -1.3510    7.9160 C.2   173  HIS173      0.2264
     48  O        -29.5960   -0.1530    7.9610 O.2   173  HIS173     -0.2867
     49  CB       -27.5770   -1.8720    8.8640 C.3   173  HIS173      0.0745
     50  CG       -26.6730   -2.9370    9.3970 C.ar  173  HIS173      0.0817
     51  ND1      -26.6620   -3.3060   10.7240 N.ar  173  HIS173     -0.2268
     52  CD2      -25.8130   -3.7730    8.7670 C.ar  173  HIS173      0.1154
     53  CE1      -25.8070   -4.2980   10.8960 C.ar  173  HIS173      0.1986
     54  NE2      -25.2790   -4.6010    9.7240 N.ar  173  HIS173     -0.2212
     55  N        -34.8760    0.0170   10.5580 N.3   177  HIS177     -0.1241
     56  CA       -35.1070    1.4420   10.3530 C.3   177  HIS177      0.1621
     57  C        -36.4980    1.7200    9.7780 C.2   177  HIS177      0.2264
     58  O        -36.8950    2.8750    9.6600 O.2   177  HIS177     -0.2867
     59  CB       -34.0600    2.0090    9.3850 C.3   177  HIS177      0.0745
     60  CG       -32.6520    1.9540    9.8960 C.ar  177  HIS177      0.0817
     61  ND1      -32.0340    0.7790   10.2700 N.ar  177  HIS177     -0.2268
     62  CD2      -31.7300    2.9320   10.0650 C.ar  177  HIS177      0.1154
     63  CE1      -30.8000    1.0380   10.6630 C.ar  177  HIS177      0.1986
     64  NE2      -30.5910    2.3370   10.5490 N.ar  177  HIS177     -0.2212
     65  N        -31.1740    4.4670   19.1500 N.3   218  TYR218     -0.1241
     66  CA       -31.4750    5.8210   18.6970 C.3   218  TYR218      0.1605
     67  C        -32.6070    5.8190   17.6770 C.2   218  TYR218      0.2264
     68  O        -33.0020    4.7640   17.1800 O.2   218  TYR218     -0.2867
     69  CB       -30.2260    6.5410   18.1650 C.3   218  TYR218      0.0534
     70  CG       -29.3650    5.7610   17.2000 C.ar  218  TYR218     -0.0201
     71  CD1      -29.5420    5.8760   15.8240 C.ar  218  TYR218     -0.0009
     72  CD2      -28.3430    4.9390   17.6630 C.ar  218  TYR218     -0.0009
     73  CE1      -28.7400    5.1780   14.9360 C.ar  218  TYR218      0.0417
     74  CE2      -27.5360    4.2380   16.7850 C.ar  218  TYR218      0.0417
     75  CZ       -27.7380    4.3610   15.4250 C.ar  218  TYR218      0.1957
     76  OH       -26.9350    3.6610   14.5610 O.3   218  TYR218     -0.2866
     77  N        -33.3410    6.3750   14.6160 N.3   220  GLU220     -0.1231
     78  CA       -33.2790    5.6200   13.3700 C.3   220  GLU220      0.1699
     79  C        -33.5870    4.1480   13.6110 C.2   220  GLU220      0.2592
     80  O        -34.3110    3.5320   12.8360 O.2   220  GLU220     -0.2718
     81  CB       -31.9110    5.7880   12.7110 C.3   220  GLU220      0.0402
     82  CG       -31.7300    7.1660   12.1010 C.3   220  GLU220      0.1161
     83  CD       -30.3410    7.4020   11.5570 C.2   220  GLU220      0.3649
     84  OE1      -29.7120    6.4410   11.0640 O.co2 220  GLU220     -0.2457
     85  OE2      -29.8860    8.5620   11.6140 O.co2 220  GLU220     -0.2457
     86  N        -33.0470    3.5970   14.6940 N.am  221  HIS221     -0.1976
     87  CA       -33.2970    2.2050   15.0540 C.3   221  HIS221      0.1656
     88  C        -34.6450    2.0640   15.7540 C.2   221  HIS221      0.2291
     89  O        -34.7480    2.2110   16.9740 O.2   221  HIS221     -0.2864
     90  CB       -32.1710    1.6550   15.9360 C.3   221  HIS221      0.0771
     91  CG       -30.8570    1.5390   15.2290 C.ar  221  HIS221      0.0820
     92  ND1      -29.6760    1.2720   15.8890 N.ar  221  HIS221     -0.2267
     93  CD2      -30.5360    1.6680   13.9200 C.ar  221  HIS221      0.1154
     94  CE1      -28.6870    1.2280   15.0150 C.ar  221  HIS221      0.1986
     95  NE2      -29.1810    1.4690   13.8130 N.ar  221  HIS221     -0.2212
     96  N        -20.8800   -4.7700   13.7340 N.3   250  HIS250     -0.1241
     97  CA       -21.7580   -3.8160   14.4170 C.3   250  HIS250      0.1621
     98  C        -22.2720   -4.2880   15.7850 C.2   250  HIS250      0.2264
     99  O        -23.4410   -4.0900   16.1220 O.2   250  HIS250     -0.2867
    100  CB       -22.9210   -3.4170   13.4990 C.3   250  HIS250      0.0745
    101  CG       -22.4830   -2.7810   12.2130 C.ar  250  HIS250      0.0817
    102  ND1      -21.8320   -1.5680   12.1660 N.ar  250  HIS250     -0.2268
    103  CD2      -22.6090   -3.1880   10.9270 C.ar  250  HIS250      0.1154
    104  CE1      -21.5710   -1.2570   10.9090 C.ar  250  HIS250      0.1986
    105  NE2      -22.0360   -2.2220   10.1360 N.ar  250  HIS250     -0.2212
    106  N        -12.9820    9.0540   20.2170 N.3   320  TYR320     -0.1227
    107  CA       -12.4550    8.4660   18.9860 C.3   320  TYR320      0.1736
    108  C        -13.6190    8.0180   18.1190 C.2   320  TYR320      0.2596
    109  O        -14.2880    7.0300   18.4290 O.2   320  TYR320     -0.2718
    110  CB       -11.5180    7.2900   19.2740 C.3   320  TYR320      0.0548
    111  CG       -10.6560    6.9070   18.0880 C.ar  320  TYR320     -0.0200
    112  CD1      -11.2070    6.2820   16.9700 C.ar  320  TYR320     -0.0009
    113  CD2       -9.2920    7.1710   18.0800 C.ar  320  TYR320     -0.0009
    114  CE1      -10.4240    5.9370   15.8810 C.ar  320  TYR320      0.0417
    115  CE2       -8.5010    6.8240   16.9970 C.ar  320  TYR320      0.0417
    116  CZ        -9.0730    6.2070   15.9010 C.ar  320  TYR320      0.1957
    117  OH        -8.2960    5.8600   14.8220 O.3   320  TYR320     -0.2866
    118  N        -13.8390    8.7470   17.0270 N.am  321  GLY321     -0.1957
    119  CA       -14.9770    8.5200   16.1480 C.3   321  GLY321      0.1869
    120  C        -16.1370    9.4160   16.5370 C.2   321  GLY321      0.2309
    121  O        -16.2550    9.8250   17.6920 O.2   321  GLY321     -0.2863
    122  N        -19.6440    8.4410   15.6150 N.3   323  PRO323     -0.2102
    123  CA       -20.7490    7.6570   15.0860 C.3   323  PRO323      0.1504
    124  C        -22.0750    8.0330   15.7370 C.2   323  PRO323      0.2576
    125  O        -22.0900    8.5860   16.8430 O.2   323  PRO323     -0.2718
    126  CB       -20.3650    6.2280   15.4650 C.3   323  PRO323      0.0282
    127  CG       -19.5860    6.3740   16.7210 C.3   323  PRO323      0.0208
    128  CD       -18.8740    7.6880   16.6230 C.3   323  PRO323      0.0893
    129  N        -23.1720    7.7320   15.0460 N.am  324  ALA324     -0.1966
    130  CA       -24.5200    7.9580   15.5670 C.3   324  ALA324      0.1728
    131  C        -24.6630    7.4580   17.0000 C.2   324  ALA324      0.2616
    132  O        -25.1610    8.1770   17.8630 O.2   324  ALA324     -0.2715
    133  CB       -25.5490    7.2800   14.6750 C.3   324  ALA324      0.0334
    134  N        -24.2180    6.2280   17.2500 N.am  325  LYS325     -0.1977
    135  CA       -24.3120    5.6330   18.5880 C.3   325  LYS325      0.1596
    136  C        -23.5460    6.4200   19.6520 C.2   325  LYS325      0.2287
    137  O        -23.9620    6.4680   20.8080 O.2   325  LYS325     -0.2864
    138  CB       -23.8440    4.1700   18.5830 C.3   325  LYS325      0.0298
    139  CG       -22.3800    3.9450   18.2290 C.3   325  LYS325      0.0038
    140  CD       -22.0390    2.4620   18.3180 C.3   325  LYS325      0.0206
    141  CE       -21.1400    2.0050   17.1840 C.3   325  LYS325      0.1093
    142  NZ       -21.8160    2.0310   15.8550 N.3   325  LYS325     -0.1314
    143  N        -12.8510   12.2970   13.7220 N.3   344  ASP344     -0.1225
    144  CA       -13.6210   11.5050   12.7710 C.3   344  ASP344      0.1805
    145  C        -13.0750   11.6330   11.3490 C.2   344  ASP344      0.2598
    146  O        -12.7160   12.7220   10.9030 O.2   344  ASP344     -0.2718
    147  CB       -15.0950   11.9040   12.8210 C.3   344  ASP344      0.1424
    148  CG       -16.0000   10.8660   12.1890 C.2   344  ASP344      0.3668
    149  OD1      -16.0630   10.8160   10.9460 O.co2 344  ASP344     -0.2456
    150  OD2      -16.6570   10.1060   12.9340 O.co2 344  ASP344     -0.2456
    151  N        -13.0280   10.5020   10.6500 N.am  345  THR345     -0.1939
    152  CA       -12.5130   10.4330    9.2850 C.3   345  THR345      0.2028
    153  C        -13.4840   11.0040    8.2550 C.2   345  THR345      0.2642
    154  O        -13.0890   11.2840    7.1240 O.2   345  THR345     -0.2714
    155  CB       -12.2070    8.9750    8.8870 C.3   345  THR345      0.1808
    156  OG1      -13.3160    8.1440    9.2470 O.3   345  THR345     -0.2208
    157  CG2      -10.9560    8.4750    9.5910 C.3   345  THR345      0.0379
    158  N        -14.7500   11.1600    8.6330 N.am  346  THR346     -0.1950
    159  CA       -15.7610   11.6830    7.7180 C.3   346  THR346      0.1897
    160  C        -15.5700   13.1870    7.5280 C.2   346  THR346      0.2313
    161  O        -15.7200   13.9700    8.4670 O.2   346  THR346     -0.2863
    162  CB       -17.1870   11.3890    8.2180 C.3   346  THR346      0.1794
    163  OG1      -17.2660   10.0300    8.6670 O.3   346  THR346     -0.2208
    164  CG2      -18.2020   11.6090    7.1050 C.3   346  THR346      0.0378
    165  N        -18.4080   15.5040    8.5270 N.3   349  LYS349     -0.1245
    166  CA       -18.5450   15.7100    9.9710 C.3   349  LYS349      0.1561
    167  C        -17.4970   16.6660   10.5420 C.2   349  LYS349      0.2260
    168  O        -17.7440   17.3170   11.5520 O.2   349  LYS349     -0.2867
    169  CB       -18.4860   14.3760   10.7180 C.3   349  LYS349      0.0271
    170  CG       -19.6660   13.4610   10.4420 C.3   349  LYS349      0.0035
    171  CD       -19.5540   12.1780   11.2490 C.3   349  LYS349      0.0206
    172  CE       -20.6370   11.1810   10.8770 C.3   349  LYS349      0.1093
    173  NZ       -20.4930    9.9070   11.6300 N.3   349  LYS349     -0.1314
    174  N        -16.5330    4.6340   18.3600 N.3   379  ALA379     -0.1245
    175  CA       -16.6350    3.6870   17.2480 C.3   379  ALA379      0.1562
    176  C        -16.0390    2.3340   17.6470 C.2   379  ALA379      0.2260
    177  O        -15.1450    1.8060   16.9780 O.2   379  ALA379     -0.2867
    178  CB       -15.9340    4.2430   16.0150 C.3   379  ALA379      0.0290
    179  N        -17.2690   -0.6600   17.6220 N.3   381  ASN381     -0.1225
    180  CA       -17.5390   -1.7760   16.7100 C.3   381  ASN381      0.1785
    181  C        -16.4220   -2.0110   15.6870 C.2   381  ASN381      0.2597
    182  O        -16.4070   -3.0420   15.0180 O.2   381  ASN381     -0.2718
    183  CB       -18.8960   -1.6060   16.0060 C.3   381  ASN381      0.1169
    184  CG       -19.0340   -0.2670   15.3050 C.2   381  ASN381      0.2627
    185  OD1      -18.7780    0.7850   15.8990 O.2   381  ASN381     -0.2716
    186  ND2      -19.4400   -0.2950   14.0400 N.am  381  ASN381     -0.0877
    187  N        -15.4920   -1.0590   15.5730 N.am  382  TYR382     -0.1976
    188  CA       -14.2740   -1.2290   14.7750 C.3   382  TYR382      0.1639
    189  C        -13.0250   -1.3330   15.6610 C.2   382  TYR382      0.2290
    190  O        -11.9300   -0.9390   15.2520 O.2   382  TYR382     -0.2864
    191  CB       -14.1300   -0.0630   13.7930 C.3   382  TYR382      0.0560
    192  CG       -15.3290    0.1010   12.8890 C.ar  382  TYR382     -0.0198
    193  CD1      -15.6490   -0.8700   11.9480 C.ar  382  TYR382     -0.0009
    194  CD2      -16.1510    1.2210   12.9800 C.ar  382  TYR382     -0.0009
    195  CE1      -16.7510   -0.7290   11.1200 C.ar  382  TYR382      0.0417
    196  CE2      -17.2530    1.3710   12.1520 C.ar  382  TYR382      0.0417
    197  CZ       -17.5510    0.3950   11.2240 C.ar  382  TYR382      0.1957
    198  OH       -18.6470    0.5420   10.4010 O.3   382  TYR382     -0.2866
    199  N         -9.6590   -3.0960   14.1740 N.3   385  GLU385     -0.1231
    200  CA        -9.0330   -2.2950   13.1230 C.3   385  GLU385      0.1699
    201  C         -8.4110   -1.0080   13.6640 C.2   385  GLU385      0.2592
    202  O         -7.3270   -0.6110   13.2350 O.2   385  GLU385     -0.2718
    203  CB       -10.0430   -1.9570   12.0240 C.3   385  GLU385      0.0402
    204  CG        -9.4990   -1.0040   10.9620 C.3   385  GLU385      0.1161
    205  CD       -10.3840   -0.9080    9.7310 C.2   385  GLU385      0.3649
    206  OE1      -10.0630   -0.1050    8.8270 O.co2 385  GLU385     -0.2457
    207  OE2      -11.3980   -1.6360    9.6610 O.co2 385  GLU385     -0.2457
    208  N         -9.1040   -0.3560   14.5930 N.am  386  ILE386     -0.1980
    209  CA        -8.6290    0.9100   15.1550 C.3   386  ILE386      0.1595
    210  C         -7.3660    0.7090   15.9930 C.2   386  ILE386      0.2287
    211  O         -6.3920    1.4370   15.8310 O.2   386  ILE386     -0.2864
    212  CB        -9.7370    1.6220   15.9630 C.3   386  ILE386      0.0276
    213  CG1      -10.7690    2.2110   14.9920 C.3   386  ILE386      0.0022
    214  CG2       -9.1590    2.7330   16.8310 C.3   386  ILE386      0.0022
    215  CD1      -12.0660    2.6510   15.6360 C.3   386  ILE386      0.0001
    216  N         -3.9480    0.1680   14.1200 N.3   389  LYS389     -0.1245
    217  CA        -3.2730    1.3130   13.4930 C.3   389  LYS389      0.1561
    218  C         -2.9340    2.4530   14.4640 C.2   389  LYS389      0.2260
    219  O         -2.4840    3.5120   14.0290 O.2   389  LYS389     -0.2867
    220  CB        -4.1250    1.8650   12.3430 C.3   389  LYS389      0.0271
    221  CG        -5.3750    2.6170   12.7780 C.3   389  LYS389      0.0035
    222  CD        -6.2280    3.0090   11.5850 C.3   389  LYS389      0.0206
    223  CE        -7.5120    3.6840   12.0320 C.3   389  LYS389      0.1093
    224  NZ        -8.3180    4.1630   10.8790 N.3   389  LYS389     -0.1314
@<TRIPOS>BOND
     1    12    11    2
     2     9    10    1
     3    36    35    2
     4    13    10    1
     5    13    14    1
     6    35    34    1
     7    24    23    2
     8    11    10    1
     9    42    41    2
    10    23    22    1
    11    33    34    1
    12    16    14   ar
    13    16    18   ar
    14    39    40    1
    15    14    15   ar
    16    34    37    1
    17    41    40    1
    18    21    22    1
    19    40    43    1
    20    22    25    1
    21    18    19   ar
    22    15    17   ar
    23    37    38    1
    24   164   162    1
    25   154   153    2
    26    27    29   ar
    27    27    26   ar
    28    45    46    1
    29   160   159    1
    30   160   161    2
    31    29    31   ar
    32   159   162    1
    33   159   158    1
    34    25    26    1
    35    47    48    2
    36    47    46    1
    37    19    17   ar
    38    19    20    1
    39    26    28   ar
    40    43    44    1
    41   162   163    1
    42   153   158   am
    43   153   152    1
    44    31    32    1
    45    31    30   ar
    46    46    49    1
    47   165   166    1
    48    52    50   ar
    49    52    54   ar
    50    28    30   ar
    51   206   205   ar
    52    49    50    1
    53   155   156    1
    54   155   152    1
    55   155   157    1
    56   152   151    1
    57    59    60    1
    58    59    56    1
    59    50    51   ar
    60    58    57    2
    61   207   205   ar
    62    54    53   ar
    63   205   204    1
    64    57    56    1
    65    60    62   ar
    66    60    61   ar
    67   166   167    1
    68   166   169    1
    69    62    64   ar
    70   105   104   ar
    71   105   103   ar
    72    61    63   ar
    73    56    55    1
    74   198   197    1
    75   170   169    1
    76   170   171    1
    77   167   168    2
    78    64    63   ar
    79   151   145   am
    80    51    53   ar
    81   172   171    1
    82   172   173    1
    83   224   223    1
    84   146   145    2
    85   104   102   ar
    86   103   101   ar
    87   149   148   ar
    88   204   203    1
    89    84    83   ar
    90   195   197   ar
    91   195   193   ar
    92     4     3    2
    93   197   196   ar
    94   145   144    1
    95     8     6   ar
    96    83    85   ar
    97    83    82    1
    98   222   223    1
    99   222   221    1
   100     5     6    1
   101     5     2    1
   102     6     7   ar
   103   193   192   ar
   104   203   200    1
   105    82    81    1
   106   196   194   ar
   107   102   101   ar
   108   148   147    1
   109   148   150   ar
   110   101   100    1
   111   220   221    1
   112   220   217    1
   113     3     2    1
   114    81    78    1
   115   144   147    1
   116   144   143    1
   117     2     1    1
   118    80    79    2
   119   192   194   ar
   120   192   191    1
   121   200   201    1
   122   200   199    1
   123   202   201    2
   124    78    79    1
   125    78    77    1
   126   217   216    1
   127   217   218    1
   128   100    97    1
   129    79    86   am
   130   201   208   am
   131    96    97    1
   132   191   188    1
   133    95    93   ar
   134    95    94   ar
   135    93    91   ar
   136   219   218    2
   137   186   184   am
   138    97    98    1
   139    76    75    1
   140   208   209    1
   141   133   130    1
   142    86    87    1
   143   188   187    1
   144   188   189    1
   145   117   116    1
   146    73    75   ar
   147    73    71   ar
   148   213   215    1
   149   213   212    1
   150    94    92   ar
   151   182   181    2
   152   129   130    1
   153   129   124   am
   154    87    88    1
   155    87    90    1
   156   123   126    1
   157   123   122    1
   158   123   124    1
   159   209   212    1
   160   209   210    1
   161    91    92   ar
   162    91    90    1
   163   190   189    2
   164   184   185    2
   165   184   183    1
   166    75    74   ar
   167   126   127    1
   168   130   131    1
   169   187   181   am
   170   122   128    1
   171   181   180    1
   172   124   125    2
   173    88    89    2
   174    98    99    2
   175    71    70   ar
   176   211   210    2
   177   142   141    1
   178   114   116   ar
   179   114   112   ar
   180   116   115   ar
   181   212   214    1
   182   183   180    1
   183   178   175    1
   184   119   120    1
   185   119   118    1
   186   120   121    2
   187   128   127    1
   188   180   179    1
   189    74    72   ar
   190   112   111   ar
   191   177   176    2
   192   115   113   ar
   193   131   134   am
   194   131   132    2
   195   118   108   am
   196    68    67    2
   197   141   140    1
   198    70    72   ar
   199    70    69    1
   200   175   176    1
   201   175   174    1
   202   134   135    1
   203    67    66    1
   204   113   111   ar
   205   111   110    1
   206   108   109    2
   207   108   107    1
   208    69    66    1
   209   139   140    1
   210   139   138    1
   211   138   135    1
   212   135   136    1
   213    66    65    1
   214   107   110    1
   215   107   106    1
   216   136   137    2
