@<TRIPOS>MOLECULE
tmp/4rvkA00.pdb
 150 139 0 0 0
SMALL
GASTEIGER

@<TRIPOS>ATOM
      1  N          2.3380    3.1260   28.6560 N.3    11  GLN11      -0.1245
      2  CA         1.4180    2.8190   27.5510 C.3    11  GLN11       0.1566
      3  C          2.1600    2.6390   26.2260 C.2    11  GLN11       0.2260
      4  O          3.0070    3.4590   25.8810 O.2    11  GLN11      -0.2867
      5  CB         0.4070    3.9710   27.4270 C.3    11  GLN11       0.0367
      6  CG        -0.5470    3.9330   26.2520 C.3    11  GLN11       0.0905
      7  CD        -1.5210    5.1050   26.2720 C.2    11  GLN11       0.2608
      8  OE1       -1.8830    5.6160   27.3370 O.2    11  GLN11      -0.2717
      9  NE2       -1.9370    5.5470   25.0920 N.am   11  GLN11      -0.0878
     10  N          2.5530    3.0390   22.4180 N.3    13  LEU13      -0.1245
     11  CA         2.0580    3.9570   21.3740 C.3    13  LEU13       0.1561
     12  C          2.0960    3.3460   19.9760 C.2    13  LEU13       0.2260
     13  O          1.4050    3.8130   19.0630 O.2    13  LEU13      -0.2867
     14  CB         2.8700    5.2560   21.3880 C.3    13  LEU13       0.0270
     15  CG         2.8050    5.9670   22.7300 C.3    13  LEU13       0.0019
     16  CD1        3.6360    7.2190   22.6730 C.3    13  LEU13       0.0001
     17  CD2        1.3540    6.2740   23.1190 C.3    13  LEU13       0.0001
     18  N         11.0820   -3.0440   14.5040 N.3    18  TYR18      -0.1241
     19  CA        12.0700   -2.7720   15.5760 C.3    18  TYR18       0.1605
     20  C         11.6720   -3.2640   16.9720 C.2    18  TYR18       0.2264
     21  O         12.4810   -3.8470   17.6890 O.2    18  TYR18      -0.2867
     22  CB        12.3560   -1.2620   15.6610 C.3    18  TYR18       0.0534
     23  CG        11.1100   -0.4120   15.8090 C.ar   18  TYR18      -0.0201
     24  CD1       10.4380    0.0770   14.6880 C.ar   18  TYR18      -0.0009
     25  CD2       10.5970   -0.1010   17.0690 C.ar   18  TYR18      -0.0009
     26  CE1        9.2880    0.8570   14.8170 C.ar   18  TYR18       0.0417
     27  CE2        9.4460    0.6750   17.2070 C.ar   18  TYR18       0.0417
     28  CZ         8.7960    1.1500   16.0750 C.ar   18  TYR18       0.1957
     29  OH         7.6720    1.9190   16.2070 O.3    18  TYR18      -0.2866
     30  N          7.1670    1.6650   20.6990 N.3    21  VAL21      -0.1245
     31  CA         7.2640    3.0290   21.1650 C.3    21  VAL21       0.1561
     32  C          6.2980    3.0130   22.3290 C.2    21  VAL21       0.2260
     33  O          5.1530    2.5650   22.1690 O.2    21  VAL21      -0.2867
     34  CB         6.8200    4.0740   20.0890 C.3    21  VAL21       0.0252
     35  CG1        6.9500    5.5110   20.6320 C.3    21  VAL21       0.0019
     36  CG2        7.6280    3.9030   18.8120 C.3    21  VAL21       0.0019
     37  N          7.9940   10.2550   24.2630 N.3    34  ALA34      -0.1245
     38  CA         7.8480    8.9960   23.5540 C.3    34  ALA34       0.1562
     39  C          9.2340    8.3550   23.5420 C.2    34  ALA34       0.2260
     40  O         10.2570    9.0180   23.2760 O.2    34  ALA34      -0.2867
     41  CB         7.3180    9.2240   22.1200 C.3    34  ALA34       0.0290
     42  N         11.3790    5.1060   22.0820 N.3    36  LYS36      -0.1245
     43  CA        11.4250    4.0550   21.0720 C.3    36  LYS36       0.1561
     44  C         12.4220    2.9910   21.5330 C.2    36  LYS36       0.2260
     45  O         13.5830    3.3030   21.8480 O.2    36  LYS36      -0.2867
     46  CB        11.8220    4.6290   19.7020 C.3    36  LYS36       0.0271
     47  CG        11.5220    3.7230   18.5240 C.3    36  LYS36       0.0035
     48  CD        11.6370    4.4650   17.1960 C.3    36  LYS36       0.0206
     49  CE        11.7250    3.5060   16.0080 C.3    36  LYS36       0.1093
     50  NZ        11.6110    4.2050   14.6920 N.3    36  LYS36      -0.1314
     51  N         19.3350    6.0350   12.1850 N.3    46  GLU46      -0.1245
     52  CA        18.1170    6.7180   12.6040 C.3    46  GLU46       0.1567
     53  C         18.4690    7.7730   13.6640 C.2    46  GLU46       0.2260
     54  O         18.0050    8.9090   13.5910 O.2    46  GLU46      -0.2867
     55  CB        17.1050    5.7180   13.1380 C.3    46  GLU46       0.0388
     56  CG        15.7840    6.3520   13.5140 C.3    46  GLU46       0.1160
     57  CD        14.7220    5.3420   13.8410 C.2    46  GLU46       0.3649
     58  OE1       14.9180    4.1580   13.5260 O.co2  46  GLU46      -0.2457
     59  OE2       13.6790    5.7280   14.4120 O.co2  46  GLU46      -0.2457
     60  N          9.3040   15.6340   14.5600 N.3    59  VAL59      -0.1245
     61  CA         9.3020   15.1140   15.9110 C.3    59  VAL59       0.1561
     62  C         10.7220   15.3260   16.4820 C.2    59  VAL59       0.2260
     63  O         11.7100   14.8530   15.8990 O.2    59  VAL59      -0.2867
     64  CB         8.8790   13.6320   16.0010 C.3    59  VAL59       0.0252
     65  CG1        9.1660   13.0770   17.4060 C.3    59  VAL59       0.0019
     66  CG2        7.4260   13.4460   15.6580 C.3    59  VAL59       0.0019
     67  N         12.0790   10.7530   22.4780 N.3    75  LEU75      -0.1231
     68  CA        11.5080   11.5170   21.3790 C.3    75  LEU75       0.1693
     69  C         10.2770   12.3040   21.8070 C.2    75  LEU75       0.2592
     70  O          9.5860   11.9410   22.7700 O.2    75  LEU75      -0.2718
     71  CB        11.1270   10.5580   20.2260 C.3    75  LEU75       0.0284
     72  CG        12.1920    9.6580   19.5910 C.3    75  LEU75       0.0019
     73  CD1       11.5750    8.3270   19.1120 C.3    75  LEU75       0.0001
     74  CD2       12.9500   10.3860   18.4710 C.3    75  LEU75       0.0001
     75  N          9.9980   13.3850   21.0830 N.am   76  GLU76      -0.1966
     76  CA         8.8540   14.2390   21.3870 C.3    76  GLU76       0.1733
     77  C          7.5860   13.3990   21.3970 C.2    76  GLU76       0.2616
     78  O          7.3530   12.6110   20.4750 O.2    76  GLU76      -0.2715
     79  CB         8.7520   15.3360   20.3320 C.3    76  GLU76       0.0429
     80  CG         7.6120   16.2900   20.4980 C.3    76  GLU76       0.1163
     81  CD         7.6310   17.3670   19.4400 C.2    76  GLU76       0.3649
     82  OE1        8.5480   17.3420   18.6000 O.co2  76  GLU76      -0.2457
     83  OE2        6.7280   18.2260   19.4440 O.co2  76  GLU76      -0.2457
     84  N          6.7820   13.5430   22.4380 N.am   77  TYR77      -0.1960
     85  CA         5.4670   12.8640   22.5020 C.3    77  TYR77       0.1771
     86  C          4.3700   13.6970   21.8550 C.2    77  TYR77       0.2620
     87  O          4.2090   14.8890   22.1650 O.2    77  TYR77      -0.2715
     88  CB         5.0680   12.5540   23.9530 C.3    77  TYR77       0.0574
     89  CG         3.6590   12.0290   24.1230 C.ar   77  TYR77      -0.0198
     90  CD1        3.2790   10.8110   23.5650 C.ar   77  TYR77      -0.0009
     91  CD2        2.7190   12.7280   24.8830 C.ar   77  TYR77      -0.0009
     92  CE1        2.0130   10.3160   23.7170 C.ar   77  TYR77       0.0417
     93  CE2        1.4260   12.2410   25.0380 C.ar   77  TYR77       0.0417
     94  CZ         1.0860   11.0240   24.4590 C.ar   77  TYR77       0.1957
     95  OH        -0.1920   10.5170   24.5910 O.3    77  TYR77      -0.2866
     96  N          3.5830   13.0510   20.9910 N.am   78  CYS78      -0.1954
     97  CA         2.4880   13.7260   20.2820 C.3    78  CYS78       0.1843
     98  C          1.1360   13.1320   20.6690 C.2    78  CYS78       0.2626
     99  O          0.6930   12.1140   20.1360 O.2    78  CYS78      -0.2714
    100  CB         2.7140   13.7160   18.7510 C.3    78  CYS78       0.0997
    101  SG         4.3730   14.3180   18.2290 S.3    78  CYS78      -0.0797
    102  N          0.4550   13.8220   21.5720 N.am   79  SER79      -0.1950
    103  CA        -0.7250   13.2640   22.2500 C.3    79  SER79       0.1924
    104  C         -1.9770   13.0850   21.3720 C.2    79  SER79       0.2314
    105  O         -2.9080   12.3580   21.7610 O.2    79  SER79      -0.2863
    106  CB        -1.0430   14.1070   23.4820 C.3    79  SER79       0.2116
    107  OG        -1.4990   15.3850   23.0920 O.3    79  SER79      -0.2180
    108  N         -1.8800   11.6160   18.4640 N.3    81  GLY81      -0.1210
    109  CA        -1.7490   10.3560   17.7280 C.3    81  GLY81       0.1956
    110  C         -1.5200   10.5930   16.2400 C.2    81  GLY81       0.2611
    111  O         -1.0390   11.6510   15.8480 O.2    81  GLY81      -0.2717
    112  N         -1.8650    9.5950   15.4340 N.am   82  GLU82      -0.1979
    113  CA        -1.4890    9.5340   14.0140 C.3    82  GLU82       0.1602
    114  C         -2.5390   10.1840   13.1620 C.2    82  GLU82       0.2287
    115  O         -3.7410   10.0020   13.3990 O.2    82  GLU82      -0.2864
    116  CB        -1.3760    8.0910   13.5550 C.3    82  GLU82       0.0415
    117  CG        -0.4790    7.2340   14.3830 C.3    82  GLU82       0.1163
    118  CD        -0.4380    5.8120   13.8840 C.2    82  GLU82       0.3649
    119  OE1       -1.1570    5.4780   12.9280 O.co2  82  GLU82      -0.2457
    120  OE2        0.3780    5.0520   14.4250 O.co2  82  GLU82      -0.2457
    121  N         -5.7730    8.3320   11.9440 N.3    85  ASP85      -0.1239
    122  CA        -7.0820    8.2510   12.6820 C.3    85  ASP85       0.1674
    123  C         -7.9480    9.4920   12.6360 C.2    85  ASP85       0.2266
    124  O         -9.0370    9.5090   13.2260 O.2    85  ASP85      -0.2867
    125  CB        -6.8780    7.7790   14.1210 C.3    85  ASP85       0.1410
    126  CG        -6.5010    6.3160   14.1800 C.2    85  ASP85       0.3668
    127  OD1       -7.4040    5.4510   14.0870 O.co2  85  ASP85      -0.2456
    128  OD2       -5.3080    6.0340   14.2840 O.co2  85  ASP85      -0.2456
    129  N          2.2120   12.6210   12.9100 N.3   128  LEU128     -0.1245
    130  CA         1.6620   12.6430   14.2700 C.3   128  LEU128      0.1561
    131  C          1.1080   14.0110   14.5900 C.2   128  LEU128      0.2260
    132  O          1.5240   15.0060   13.9920 O.2   128  LEU128     -0.2867
    133  CB         2.7510   12.2930   15.2950 C.3   128  LEU128      0.0270
    134  CG         3.4500   10.9440   15.0430 C.3   128  LEU128      0.0019
    135  CD1        4.4470   10.6600   16.1470 C.3   128  LEU128      0.0001
    136  CD2        2.3960    9.8240   14.9220 C.3   128  LEU128      0.0001
    137  N          7.3790   11.8850   11.7140 N.3   138  SER138     -0.1202
    138  CA         8.0240   10.9430   12.6020 C.3   138  SER138      0.2020
    139  C          8.5740    9.7220   11.8740 C.2   138  SER138      0.2618
    140  O          8.2040    9.4180   10.7010 O.2   138  SER138     -0.2717
    141  CB         7.0110   10.4800   13.6720 C.3   138  SER138      0.2103
    142  OG         6.2290    9.4090   13.1980 O.3   138  SER138     -0.2182
    143  N          9.4410    9.0260   12.5960 N.am  139  ASP139     -0.1973
    144  CA         9.9990    7.7370   12.1800 C.3   139  ASP139      0.1709
    145  C         10.9820    7.8760   11.0380 C.2   139  ASP139      0.2293
    146  O         10.6020    7.8230    9.8840 O.2   139  ASP139     -0.2864
    147  CB         8.8830    6.7520   11.8480 C.3   139  ASP139      0.1436
    148  CG         9.3700    5.3140   11.8260 C.2   139  ASP139      0.3671
    149  OD1       10.6120    5.1570   11.7570 O.co2 139  ASP139     -0.2456
    150  OD2        8.5230    4.3750   11.8850 O.co2 139  ASP139     -0.2456
@<TRIPOS>BOND
     1   146   145    2
     2   140   139    2
     3   145   144    1
     4   137   138    1
     5   149   148   ar
     6   148   147    1
     7   148   150   ar
     8   147   144    1
     9   139   143   am
    10   139   138    1
    11   121   122    1
    12   144   143    1
    13    51    52    1
    14   138   141    1
    15    52    55    1
    16    52    53    1
    17   123   122    1
    18   123   124    2
    19   122   125    1
    20   129   130    1
    21   119   118   ar
    22    55    56    1
    23   114   115    2
    24   114   113    1
    25   142   141    1
    26    56    57    1
    27    58    57   ar
    28   116   113    1
    29   116   117    1
    30    54    53    2
    31    57    59   ar
    32   118   117    1
    33   118   120   ar
    34   132   131    2
    35   113   112    1
    36   127   126   ar
    37   125   126    1
    38   126   128   ar
    39   130   131    1
    40   130   133    1
    41    18    19    1
    42    60    61    1
    43    24    26   ar
    44    24    23   ar
    45    50    49    1
    46    26    28   ar
    47   136   134    1
    48   134   133    1
    49   134   135    1
    50   112   110   am
    51    19    22    1
    52    19    20    1
    53    66    64    1
    54    22    23    1
    55    23    25   ar
    56   111   110    2
    57    63    62    2
    58    61    64    1
    59    61    62    1
    60    64    65    1
    61    49    48    1
    62    28    29    1
    63    28    27   ar
    64   110   109    1
    65    20    21    2
    66    25    27   ar
    67    48    47    1
    68   109   108    1
    69   101   100    1
    70    74    72    1
    71    47    46    1
    72    82    81   ar
    73   100    97    1
    74    36    34    1
    75    13    12    2
    76    73    72    1
    77    81    83   ar
    78    81    80    1
    79    72    71    1
    80    46    43    1
    81    12    11    1
    82    34    35    1
    83    34    31    1
    84    99    98    2
    85    71    68    1
    86    97    98    1
    87    97    96    1
    88    79    80    1
    89    79    76    1
    90    78    77    2
    91    98   102   am
    92    30    31    1
    93    96    86   am
    94    43    44    1
    95    43    42    1
    96    75    76    1
    97    75    69   am
    98    31    32    1
    99   104   105    2
   100   104   103    1
   101    11    14    1
   102    11    10    1
   103    68    69    1
   104    68    67    1
   105    76    77    1
   106    14    15    1
   107    77    84   am
   108    44    45    2
   109   102   103    1
   110    69    70    2
   111    86    87    2
   112    86    85    1
   113    41    38    1
   114    33    32    2
   115   103   106    1
   116    84    85    1
   117    85    88    1
   118    16    15    1
   119    15    17    1
   120   107   106    1
   121    40    39    2
   122    39    38    1
   123    38    37    1
   124    90    92   ar
   125    90    89   ar
   126    92    94   ar
   127    88    89    1
   128    89    91   ar
   129    94    95    1
   130    94    93   ar
   131    91    93   ar
   132     9     7   am
   133     4     3    2
   134     3     2    1
   135     6     7    1
   136     6     5    1
   137     7     8    2
   138     5     2    1
   139     2     1    1
