@<TRIPOS>MOLECULE
tmp/4rvlA00.pdb
 138 127 0 0 0
SMALL
GASTEIGER

@<TRIPOS>ATOM
      1  N          2.4630    2.9960   28.6600 N.3    11  GLN11      -0.1245
      2  CA         1.5430    2.6670   27.5610 C.3    11  GLN11       0.1566
      3  C          2.2840    2.4670   26.2360 C.2    11  GLN11       0.2260
      4  O          3.1530    3.2650   25.8870 O.2    11  GLN11      -0.2867
      5  CB         0.5150    3.7950   27.4170 C.3    11  GLN11       0.0367
      6  CG        -0.4430    3.6880   26.2400 C.3    11  GLN11       0.0905
      7  CD        -1.2550    4.9520   26.0620 C.2    11  GLN11       0.2608
      8  OE1       -1.4070    5.7390   26.9960 O.2    11  GLN11      -0.2717
      9  NE2       -1.7720    5.1630   24.8550 N.am   11  GLN11      -0.0878
     10  N          2.6880    2.7650   22.3620 N.3    13  LEU13      -0.1245
     11  CA         2.2050    3.6880   21.3410 C.3    13  LEU13       0.1561
     12  C          2.2120    3.0620   19.9410 C.2    13  LEU13       0.2260
     13  O          1.4590    3.4930   19.0690 O.2    13  LEU13      -0.2867
     14  CB         3.0360    4.9770   21.3660 C.3    13  LEU13       0.0270
     15  CG         3.0330    5.7180   22.7100 C.3    13  LEU13       0.0019
     16  CD1        3.9180    6.9570   22.6380 C.3    13  LEU13       0.0001
     17  CD2        1.6070    6.0830   23.1340 C.3    13  LEU13       0.0001
     18  N          7.6960    1.3460   20.7000 N.3    15  VAL15      -0.1245
     19  CA         7.5170    2.7290   21.1500 C.3    15  VAL15       0.1561
     20  C          6.5630    2.7980   22.3530 C.2    15  VAL15       0.2260
     21  O          5.4100    2.3770   22.2580 O.2    15  VAL15      -0.2867
     22  CB         6.9930    3.6590   20.0140 C.3    15  VAL15       0.0252
     23  CG1        6.8160    5.0930   20.5240 C.3    15  VAL15       0.0019
     24  CG2        7.9410    3.6480   18.8170 C.3    15  VAL15       0.0019
     25  N          8.0770   10.0380   24.2010 N.3    28  ALA28      -0.1245
     26  CA         7.9760    8.7360   23.5600 C.3    28  ALA28       0.1562
     27  C          9.3640    8.1170   23.5830 C.2    28  ALA28       0.2260
     28  O         10.3550    8.7770   23.2670 O.2    28  ALA28      -0.2867
     29  CB         7.4530    8.8720   22.0970 C.3    28  ALA28       0.0290
     30  N         11.5180    5.0210   22.0410 N.3    30  LYS30      -0.1245
     31  CA        11.5590    3.9740   21.0340 C.3    30  LYS30       0.1561
     32  C         12.5820    2.9530   21.4840 C.2    30  LYS30       0.2260
     33  O         13.7550    3.2830   21.6760 O.2    30  LYS30      -0.2867
     34  CB        11.9210    4.5490   19.6610 C.3    30  LYS30       0.0271
     35  CG        11.9000    3.5290   18.5250 C.3    30  LYS30       0.0035
     36  CD        11.6710    4.2420   17.1920 C.3    30  LYS30       0.0206
     37  CE        11.7610    3.3160   16.0030 C.3    30  LYS30       0.1093
     38  NZ        11.6360    4.0880   14.7410 N.3    30  LYS30      -0.1314
     39  N         19.5080    6.0310   12.1030 N.3    40  GLU40      -0.1245
     40  CA        18.3040    6.7080   12.5770 C.3    40  GLU40       0.1567
     41  C         18.6740    7.7260   13.6560 C.2    40  GLU40       0.2260
     42  O         18.2360    8.8680   13.6130 O.2    40  GLU40      -0.2867
     43  CB        17.2880    5.6900   13.1090 C.3    40  GLU40       0.0388
     44  CG        15.9700    6.2930   13.6130 C.3    40  GLU40       0.1160
     45  CD        14.8870    5.2520   13.9010 C.2    40  GLU40       0.3649
     46  OE1       15.0470    4.0930   13.4950 O.co2  40  GLU40      -0.2457
     47  OE2       13.8500    5.6010   14.5180 O.co2  40  GLU40      -0.2457
     48  N          9.2220   15.4420   14.5620 N.3    53  VAL53      -0.1245
     49  CA         9.2960   14.8790   15.9060 C.3    53  VAL53       0.1561
     50  C         10.6910   15.1590   16.4720 C.2    53  VAL53       0.2260
     51  O         11.6870   14.7830   15.8720 O.2    53  VAL53      -0.2867
     52  CB         8.9880   13.3630   15.9370 C.3    53  VAL53       0.0252
     53  CG1        9.4110   12.7470   17.2720 C.3    53  VAL53       0.0019
     54  CG2        7.5040   13.0960   15.6720 C.3    53  VAL53       0.0019
     55  N         12.1160   10.6200   22.3540 N.3    69  LEU69      -0.1231
     56  CA        11.5100   11.4140   21.2930 C.3    69  LEU69       0.1693
     57  C         10.2750   12.1810   21.7340 C.2    69  LEU69       0.2592
     58  O          9.6220   11.8420   22.7310 O.2    69  LEU69      -0.2718
     59  CB        11.1170   10.4950   20.1360 C.3    69  LEU69       0.0284
     60  CG        12.2630    9.7450   19.4620 C.3    69  LEU69       0.0019
     61  CD1       11.8000    8.3790   18.9760 C.3    69  LEU69       0.0001
     62  CD2       12.8480   10.5830   18.3170 C.3    69  LEU69       0.0001
     63  N          9.9390   13.1970   20.9460 N.am   70  GLU70      -0.1966
     64  CA         8.7720   14.0320   21.2110 C.3    70  GLU70       0.1733
     65  C          7.4940   13.2020   21.2460 C.2    70  GLU70       0.2616
     66  O          7.2290   12.4070   20.3370 O.2    70  GLU70      -0.2715
     67  CB         8.6650   15.1350   20.1650 C.3    70  GLU70       0.0429
     68  CG         7.4440   16.0190   20.3080 C.3    70  GLU70       0.1163
     69  CD         7.4740   17.2060   19.3720 C.2    70  GLU70       0.3649
     70  OE1        8.3370   17.2570   18.4690 O.co2  70  GLU70      -0.2457
     71  OE2        6.6270   18.1010   19.5540 O.co2  70  GLU70      -0.2457
     72  N          6.7190   13.3700   22.3140 N.am   71  TYR71      -0.1960
     73  CA         5.4390   12.6860   22.4410 C.3    71  TYR71       0.1771
     74  C          4.3220   13.5210   21.8170 C.2    71  TYR71       0.2620
     75  O          4.1650   14.7060   22.1250 O.2    71  TYR71      -0.2715
     76  CB         5.1080   12.4080   23.9160 C.3    71  TYR71       0.0574
     77  CG         3.7080   11.8770   24.1240 C.ar   71  TYR71      -0.0198
     78  CD1        3.2970   10.6810   23.5300 C.ar   71  TYR71      -0.0009
     79  CD2        2.7920   12.5630   24.9350 C.ar   71  TYR71      -0.0009
     80  CE1        2.0080   10.1870   23.7240 C.ar   71  TYR71       0.0417
     81  CE2        1.5110   12.0750   25.1380 C.ar   71  TYR71       0.0417
     82  CZ         1.1250   10.8870   24.5280 C.ar   71  TYR71       0.1957
     83  OH        -0.1540   10.4130   24.7290 O.3    71  TYR71      -0.2866
     84  N          3.5350   12.8710   20.9670 N.am   72  CYS72      -0.1954
     85  CA         2.4860   13.5140   20.1960 C.3    72  CYS72       0.1843
     86  C          1.1380   12.9140   20.6080 C.2    72  CYS72       0.2626
     87  O          0.7280   11.8470   20.1310 O.2    72  CYS72      -0.2714
     88  CB         2.7710   13.3340   18.6920 C.3    72  CYS72       0.0997
     89  SG         4.3230   14.1070   18.1520 S.3    72  CYS72      -0.0797
     90  N          0.4520   13.6140   21.5070 N.am   73  SER73      -0.1950
     91  CA        -0.7020   13.0480   22.2140 C.3    73  SER73       0.1924
     92  C         -1.9640   12.9440   21.3440 C.2    73  SER73       0.2314
     93  O         -2.9200   12.2500   21.7130 O.2    73  SER73      -0.2863
     94  CB        -0.9920   13.8640   23.4810 C.3    73  SER73       0.2116
     95  OG        -1.4050   15.1830   23.1720 O.3    73  SER73      -0.2180
     96  N         -1.9460   11.4790   18.4400 N.3    75  GLY75      -0.1210
     97  CA        -1.8590   10.2110   17.7290 C.3    75  GLY75       0.1956
     98  C         -1.5540   10.4240   16.2530 C.2    75  GLY75       0.2611
     99  O         -0.9350   11.4190   15.8830 O.2    75  GLY75      -0.2717
    100  N         -2.0010    9.4920   15.4230 N.am   76  GLU76      -0.1979
    101  CA        -1.6610    9.4990   14.0090 C.3    76  GLU76       0.1602
    102  C         -2.6930   10.2310   13.1650 C.2    76  GLU76       0.2287
    103  O         -3.8930   10.1500   13.4020 O.2    76  GLU76      -0.2864
    104  CB        -1.5010    8.0810   13.4930 C.3    76  GLU76       0.0415
    105  CG        -0.3960    7.3140   14.1730 C.3    76  GLU76       0.1163
    106  CD        -0.3920    5.8560   13.8030 C.2    76  GLU76       0.3649
    107  OE1       -1.1430    5.4520   12.8810 O.co2  76  GLU76      -0.2457
    108  OE2        0.3830    5.1190   14.4430 O.co2  76  GLU76      -0.2457
    109  N         -5.7110    8.2790   11.8240 N.3    79  ASP79      -0.1239
    110  CA        -6.9730    8.1720   12.5740 C.3    79  ASP79       0.1674
    111  C         -7.8830    9.4020   12.5260 C.2    79  ASP79       0.2266
    112  O         -8.9760    9.3610   13.0840 O.2    79  ASP79      -0.2867
    113  CB        -6.6800    7.7640   14.0260 C.3    79  ASP79       0.1410
    114  CG        -6.1220    6.3500   14.1180 C.2    79  ASP79       0.3668
    115  OD1       -6.7180    5.4290   13.5280 O.co2  79  ASP79      -0.2456
    116  OD2       -5.0760    6.1610   14.7560 O.co2  79  ASP79      -0.2456
    117  N          2.3000   12.5370   12.8940 N.3   122  LEU122     -0.1245
    118  CA         1.6970   12.5560   14.2320 C.3   122  LEU122      0.1561
    119  C          1.1660   13.9320   14.5410 C.2   122  LEU122      0.2260
    120  O          1.5520   14.9070   13.9070 O.2   122  LEU122     -0.2867
    121  CB         2.7200   12.1160   15.2910 C.3   122  LEU122      0.0270
    122  CG         3.4130   10.7890   14.9610 C.3   122  LEU122      0.0019
    123  CD1        4.3970   10.3940   16.0620 C.3   122  LEU122      0.0001
    124  CD2        2.3920    9.6860   14.7230 C.3   122  LEU122      0.0001
    125  N          7.3590   11.7790   11.6650 N.3   132  SER132     -0.1202
    126  CA         8.0160   10.8290   12.5550 C.3   132  SER132      0.2020
    127  C          8.5990    9.6230   11.8280 C.2   132  SER132      0.2618
    128  O          8.2290    9.3120   10.6820 O.2   132  SER132     -0.2717
    129  CB         7.0280   10.3560   13.6270 C.3   132  SER132      0.2103
    130  OG         6.2010    9.3220   13.1400 O.3   132  SER132     -0.2182
    131  N          9.4890    8.9410   12.5470 N.am  133  ASP133     -0.1973
    132  CA        10.1010    7.6830   12.1580 C.3   133  ASP133      0.1709
    133  C         11.1060    7.8670   11.0280 C.2   133  ASP133      0.2293
    134  O         10.7430    7.8210    9.8550 O.2   133  ASP133     -0.2864
    135  CB         9.0530    6.6040   11.8170 C.3   133  ASP133      0.1436
    136  CG         9.6540    5.2040   11.7710 C.2   133  ASP133      0.3671
    137  OD1       10.8910    5.1050   11.7030 O.co2 133  ASP133     -0.2456
    138  OD2        8.8920    4.2120   11.8160 O.co2 133  ASP133     -0.2456
@<TRIPOS>BOND
     1   134   133    2
     2   128   127    2
     3   133   132    1
     4   125   126    1
     5   137   136   ar
     6   136   138   ar
     7   136   135    1
     8   135   132    1
     9   109   110    1
    10   127   131   am
    11   127   126    1
    12    39    40    1
    13   132   131    1
    14   111   110    1
    15   111   112    2
    16   126   129    1
    17   110   113    1
    18    40    43    1
    19    40    41    1
    20   107   106   ar
    21   117   118    1
    22    43    44    1
    23   130   129    1
    24   102   103    2
    25   102   101    1
    26   104   101    1
    27   104   105    1
    28    46    45   ar
    29   115   114   ar
    30    42    41    2
    31    44    45    1
    32   106   105    1
    33   106   108   ar
    34    45    47   ar
    35   120   119    2
    36   101   100    1
    37   113   114    1
    38   114   116   ar
    39   118   119    1
    40   118   121    1
    41    48    49    1
    42   124   122    1
    43    38    37    1
    44   122   121    1
    45   122   123    1
    46   100    98   am
    47    54    52    1
    48    51    50    2
    49    99    98    2
    50    49    52    1
    51    49    50    1
    52    52    53    1
    53    37    36    1
    54    98    97    1
    55    36    35    1
    56    97    96    1
    57    89    88    1
    58    62    60    1
    59    70    69   ar
    60    35    34    1
    61    88    85    1
    62    24    22    1
    63    61    60    1
    64    13    12    2
    65    69    71   ar
    66    69    68    1
    67    60    59    1
    68    34    31    1
    69    12    11    1
    70    22    23    1
    71    22    19    1
    72    87    86    2
    73    59    56    1
    74    67    68    1
    75    67    64    1
    76    85    86    1
    77    85    84    1
    78    66    65    2
    79    86    90   am
    80    18    19    1
    81    63    64    1
    82    63    57   am
    83    84    74   am
    84    31    32    1
    85    31    30    1
    86    19    20    1
    87    64    65    1
    88    65    72   am
    89    56    57    1
    90    56    55    1
    91    11    14    1
    92    11    10    1
    93    92    93    2
    94    92    91    1
    95    14    15    1
    96    32    33    2
    97    90    91    1
    98    57    58    2
    99    74    75    2
   100    74    73    1
   101    29    26    1
   102    91    94    1
   103    21    20    2
   104    72    73    1
   105    73    76    1
   106    16    15    1
   107    15    17    1
   108    95    94    1
   109    28    27    2
   110    78    80   ar
   111    78    77   ar
   112    26    27    1
   113    26    25    1
   114    80    82   ar
   115    76    77    1
   116    77    79   ar
   117    82    83    1
   118    82    81   ar
   119     9     7   am
   120    79    81   ar
   121     4     3    2
   122     7     6    1
   123     7     8    2
   124     3     2    1
   125     6     5    1
   126     5     2    1
   127     2     1    1
