@<TRIPOS>MOLECULE
tmp/4rvmA00.pdb
 161 151 0 0 0
SMALL
GASTEIGER

@<TRIPOS>ATOM
      1  N          2.2470    3.0150   28.7990 N.3    11  GLN11      -0.1231
      2  CA         1.3750    2.6290   27.6830 C.3    11  GLN11       0.1698
      3  C          2.1560    2.4410   26.3720 C.2    11  GLN11       0.2593
      4  O          3.0290    3.2500   26.0460 O.2    11  GLN11      -0.2718
      5  CB         0.3030    3.7170   27.5010 C.3    11  GLN11       0.0381
      6  CG        -0.4870    3.6560   26.1850 C.3    11  GLN11       0.0905
      7  CD        -1.4250    4.8380   26.0070 C.2    11  GLN11       0.2608
      8  OE1       -1.1260    5.9550   26.4330 O.2    11  GLN11      -0.2717
      9  NE2       -2.5570    4.6010   25.3500 N.am   11  GLN11      -0.0878
     10  N          1.8150    1.3950   25.6150 N.am   12  THR12      -0.1939
     11  CA         2.4020    1.1610   24.2720 C.3    12  THR12       0.2028
     12  C          1.7470    2.0580   23.2200 C.2    12  THR12       0.2642
     13  O          0.5310    2.1570   23.1340 O.2    12  THR12      -0.2714
     14  CB         2.2680   -0.3270   23.8140 C.3    12  THR12       0.1808
     15  OG1        2.7510   -1.1970   24.8460 O.3    12  THR12      -0.2208
     16  CG2        3.0570   -0.5940   22.5320 C.3    12  THR12       0.0379
     17  N          2.5640    2.6990   22.4060 N.am   13  LEU13      -0.1963
     18  CA         2.0670    3.6060   21.3780 C.3    13  LEU13       0.1728
     19  C          2.1900    3.0480   19.9690 C.2    13  LEU13       0.2616
     20  O          1.7880    3.7070   19.0190 O.2    13  LEU13      -0.2715
     21  CB         2.8540    4.9120   21.4290 C.3    13  LEU13       0.0311
     22  CG         2.8620    5.5920   22.7890 C.3    13  LEU13       0.0022
     23  CD1        3.8150    6.7890   22.7490 C.3    13  LEU13       0.0001
     24  CD2        1.4260    5.9770   23.1880 C.3    13  LEU13       0.0001
     25  N          2.7570    1.8590   19.8260 N.am   14  GLY14      -0.1955
     26  CA         3.0420    1.3110   18.5030 C.3    14  GLY14       0.1869
     27  C          4.0780    0.2230   18.6130 C.2    14  GLY14       0.2309
     28  O          5.0430    0.3650   19.3540 O.2    14  GLY14      -0.2863
     29  N         11.0150   -2.8090   14.1050 N.3    18  TYR18      -0.1241
     30  CA        11.9260   -2.1610   15.0630 C.3    18  TYR18       0.1605
     31  C         11.7890   -2.6600   16.5140 C.2    18  TYR18       0.2264
     32  O         12.7850   -2.8260   17.2220 O.2    18  TYR18      -0.2867
     33  CB        11.6980   -0.6370   15.0270 C.3    18  TYR18       0.0534
     34  CG        10.2750   -0.2130   15.3700 C.ar   18  TYR18      -0.0201
     35  CD1        9.2830   -0.1630   14.3860 C.ar   18  TYR18      -0.0009
     36  CD2        9.9210    0.1310   16.6790 C.ar   18  TYR18      -0.0009
     37  CE1        7.9760    0.2150   14.6930 C.ar   18  TYR18       0.0417
     38  CE2        8.6180    0.5100   16.9940 C.ar   18  TYR18       0.0417
     39  CZ         7.6480    0.5560   15.9960 C.ar   18  TYR18       0.1957
     40  OH         6.3510    0.9330   16.2940 O.3    18  TYR18      -0.2866
     41  N          7.2470    1.4200   20.7120 N.3    21  VAL21      -0.1245
     42  CA         7.3130    2.7820   21.1730 C.3    21  VAL21       0.1561
     43  C          6.4130    2.8010   22.4000 C.2    21  VAL21       0.2260
     44  O          5.2700    2.3700   22.3070 O.2    21  VAL21      -0.2867
     45  CB         6.7760    3.7640   20.0780 C.3    21  VAL21       0.0252
     46  CG1        6.6280    5.1770   20.6310 C.3    21  VAL21       0.0019
     47  CG2        7.6930    3.7760   18.8480 C.3    21  VAL21       0.0019
     48  N          8.0070    9.8620   24.3310 N.3    34  ALA34      -0.1245
     49  CA         7.8690    8.5960   23.6580 C.3    34  ALA34       0.1562
     50  C          9.2460    7.9460   23.6660 C.2    34  ALA34       0.2260
     51  O         10.2540    8.5920   23.4120 O.2    34  ALA34      -0.2867
     52  CB         7.3520    8.8010   22.2200 C.3    34  ALA34       0.0290
     53  N         11.3490    4.9660   21.9760 N.3    36  LYS36      -0.1245
     54  CA        11.4330    3.9750   20.9410 C.3    36  LYS36       0.1561
     55  C         12.4780    2.9570   21.3910 C.2    36  LYS36       0.2260
     56  O         13.6370    3.2980   21.6550 O.2    36  LYS36      -0.2867
     57  CB        11.7840    4.6020   19.5850 C.3    36  LYS36       0.0271
     58  CG        11.6430    3.6370   18.4320 C.3    36  LYS36       0.0035
     59  CD        11.8740    4.3010   17.0870 C.3    36  LYS36       0.0206
     60  CE        11.5570    3.3500   15.9400 C.3    36  LYS36       0.1093
     61  NZ        11.5970    4.0250   14.6400 N.3    36  LYS36      -0.1314
     62  N         19.3750    6.1020   12.0670 N.3    46  GLU46      -0.1245
     63  CA        18.1690    6.7600   12.5970 C.3    46  GLU46       0.1567
     64  C         18.5240    7.7630   13.7120 C.2    46  GLU46       0.2260
     65  O         18.1200    8.9400   13.6810 O.2    46  GLU46      -0.2867
     66  CB        17.1520    5.7170   13.0910 C.3    46  GLU46       0.0388
     67  CG        15.9120    6.2830   13.8260 C.3    46  GLU46       0.1160
     68  CD        14.7710    5.2770   13.9760 C.2    46  GLU46       0.3649
     69  OE1       14.8830    4.1590   13.4810 O.co2  46  GLU46      -0.2457
     70  OE2       13.7360    5.6030   14.5680 O.co2  46  GLU46      -0.2457
     71  N          9.2190   15.6580   14.6900 N.3    59  VAL59      -0.1245
     72  CA         9.2590   15.0870   16.0390 C.3    59  VAL59       0.1561
     73  C         10.6420   15.2730   16.6450 C.2    59  VAL59       0.2260
     74  O         11.6280   14.8920   16.0430 O.2    59  VAL59      -0.2867
     75  CB         8.8580   13.5980   16.0530 C.3    59  VAL59       0.0252
     76  CG1        9.2340   12.9240   17.3970 C.3    59  VAL59       0.0019
     77  CG2        7.3580   13.4610   15.8050 C.3    59  VAL59       0.0019
     78  N         12.0790   10.5180   22.6010 N.3    75  LEU75      -0.1231
     79  CA        11.4650   11.3690   21.5860 C.3    75  LEU75       0.1693
     80  C         10.2010   12.1060   22.0500 C.2    75  LEU75       0.2592
     81  O          9.5640   11.7560   23.0580 O.2    75  LEU75      -0.2718
     82  CB        11.1160   10.5170   20.3540 C.3    75  LEU75       0.0284
     83  CG        12.2560    9.7990   19.6300 C.3    75  LEU75       0.0019
     84  CD1       11.7810    8.4290   19.1630 C.3    75  LEU75       0.0001
     85  CD2       12.7880   10.6280   18.4780 C.3    75  LEU75       0.0001
     86  N          9.8420   13.1360   21.2870 N.am   76  GLU76      -0.1966
     87  CA         8.6660   13.9550   21.5680 C.3    76  GLU76       0.1733
     88  C          7.4030   13.1230   21.5300 C.2    76  GLU76       0.2616
     89  O          7.1380   12.3870   20.5570 O.2    76  GLU76      -0.2715
     90  CB         8.5750   15.0930   20.5490 C.3    76  GLU76       0.0429
     91  CG         7.4960   16.1500   20.7940 C.3    76  GLU76       0.1163
     92  CD         7.4200   17.1790   19.6630 C.2    76  GLU76       0.3649
     93  OE1        8.3300   17.1710   18.7850 O.co2  76  GLU76      -0.2457
     94  OE2        6.4470   17.9930   19.6520 O.co2  76  GLU76      -0.2457
     95  N          6.6300   13.2350   22.6020 N.am   77  TYR77      -0.1960
     96  CA         5.3430   12.6030   22.6760 C.3    77  TYR77       0.1771
     97  C          4.2780   13.5330   22.0820 C.2    77  TYR77       0.2620
     98  O          4.1850   14.7280   22.4250 O.2    77  TYR77      -0.2715
     99  CB         4.9870   12.2210   24.1220 C.3    77  TYR77       0.0574
    100  CG         3.5770   11.7210   24.2380 C.ar   77  TYR77      -0.0198
    101  CD1        3.1930   10.5180   23.6510 C.ar   77  TYR77      -0.0009
    102  CD2        2.6280   12.4380   24.9570 C.ar   77  TYR77      -0.0009
    103  CE1        1.8830   10.0460   23.7620 C.ar   77  TYR77       0.0417
    104  CE2        1.3380   11.9730   25.0910 C.ar   77  TYR77       0.0417
    105  CZ         0.9660   10.7800   24.4810 C.ar   77  TYR77       0.1957
    106  OH        -0.3360   10.3370   24.6030 O.3    77  TYR77      -0.2866
    107  N          3.4880   12.9490   21.1860 N.am   78  CYS78      -0.1954
    108  CA         2.4800   13.6380   20.4050 C.3    78  CYS78       0.1843
    109  C          1.1270   13.0560   20.7940 C.2    78  CYS78       0.2626
    110  O          0.7060   11.9970   20.3130 O.2    78  CYS78      -0.2714
    111  CB         2.7710   13.4560   18.8980 C.3    78  CYS78       0.0997
    112  SG         4.3140   14.2770   18.3780 S.3    78  CYS78      -0.0797
    113  N          0.4420   13.7750   21.6750 N.am   79  SER79      -0.1950
    114  CA        -0.7270   13.2400   22.3430 C.3    79  SER79       0.1924
    115  C         -1.9580   13.1720   21.4370 C.2    79  SER79       0.2314
    116  O         -2.9140   12.5040   21.8040 O.2    79  SER79      -0.2863
    117  CB        -1.0310   14.0570   23.6070 C.3    79  SER79       0.2116
    118  OG        -1.3600   15.4050   23.2940 O.3    79  SER79      -0.2180
    119  N         -1.8610   11.6200   18.5760 N.3    81  GLY81      -0.1210
    120  CA        -1.7530   10.3540   17.8890 C.3    81  GLY81       0.1956
    121  C         -1.4720   10.5700   16.3880 C.2    81  GLY81       0.2611
    122  O         -0.8660   11.5480   15.9970 O.2    81  GLY81      -0.2717
    123  N         -1.9260    9.6390   15.5740 N.am   82  GLU82      -0.1979
    124  CA        -1.5880    9.6030   14.1490 C.3    82  GLU82       0.1602
    125  C         -2.6370   10.2820   13.2870 C.2    82  GLU82       0.2287
    126  O         -3.8320   10.1700   13.5280 O.2    82  GLU82      -0.2864
    127  CB        -1.4530    8.1570   13.6790 C.3    82  GLU82       0.0415
    128  CG        -0.3310    7.4100   14.3120 C.3    82  GLU82       0.1163
    129  CD        -0.3470    5.9190   14.0170 C.2    82  GLU82       0.3649
    130  OE1       -1.1370    5.4550   13.1570 O.co2  82  GLU82      -0.2457
    131  OE2        0.4680    5.2090   14.6340 O.co2  82  GLU82      -0.2457
    132  N         -5.6770    8.3420   12.0100 N.3    85  ASP85      -0.1239
    133  CA        -6.9400    8.2030   12.7640 C.3    85  ASP85       0.1674
    134  C         -7.8670    9.4050   12.6750 C.2    85  ASP85       0.2266
    135  O         -8.9850    9.3430   13.2010 O.2    85  ASP85      -0.2867
    136  CB        -6.6690    7.8320   14.2380 C.3    85  ASP85       0.1410
    137  CG        -6.1030    6.4170   14.3880 C.2    85  ASP85       0.3668
    138  OD1       -6.4560    5.5330   13.5960 O.co2  85  ASP85      -0.2456
    139  OD2       -5.2750    6.1880   15.2810 O.co2  85  ASP85      -0.2456
    140  N          2.2210   12.6110   12.9540 N.3   128  LEU128     -0.1245
    141  CA         1.6790   12.6320   14.3140 C.3   128  LEU128      0.1561
    142  C          1.1250   14.0000   14.6210 C.2   128  LEU128      0.2260
    143  O          1.5200   14.9810   13.9990 O.2   128  LEU128     -0.2867
    144  CB         2.7740   12.2720   15.3110 C.3   128  LEU128      0.0270
    145  CG         3.4630   10.9330   15.0300 C.3   128  LEU128      0.0019
    146  CD1        4.4240   10.5380   16.1800 C.3   128  LEU128      0.0001
    147  CD2        2.4140    9.8330   14.8180 C.3   128  LEU128      0.0001
    148  N          7.3590   11.9680   11.8750 N.3   138  SER138     -0.1202
    149  CA         7.9870   10.9830   12.7290 C.3   138  SER138      0.2020
    150  C          8.5720    9.8250   11.9460 C.2   138  SER138      0.2618
    151  O          8.1850    9.5640   10.7960 O.2   138  SER138     -0.2717
    152  CB         6.9740   10.4170   13.7310 C.3   138  SER138      0.2103
    153  OG         6.2200    9.3550   13.1670 O.3   138  SER138     -0.2182
    154  N          9.4690    9.1100   12.6240 N.am  139  ASP139     -0.1973
    155  CA        10.0140    7.8510   12.1850 C.3   139  ASP139      0.1709
    156  C         10.9970    7.9700   11.0280 C.2   139  ASP139      0.2293
    157  O         10.6270    7.7890    9.8550 O.2   139  ASP139     -0.2864
    158  CB         8.9220    6.8280   11.8690 C.3   139  ASP139      0.1436
    159  CG         9.4570    5.3830   11.8280 C.2   139  ASP139      0.3671
    160  OD1       10.6790    5.1910   11.7560 O.co2 139  ASP139     -0.2456
    161  OD2        8.6390    4.4550   11.8810 O.co2 139  ASP139     -0.2456
@<TRIPOS>BOND
     1   157   156    2
     2   151   150    2
     3   156   155    1
     4   160   159   ar
     5   159   158    1
     6   159   161   ar
     7   158   155    1
     8   148   149    1
     9   150   154   am
    10   150   149    1
    11   132   133    1
    12    62    63    1
    13   155   154    1
    14    63    66    1
    15    63    64    1
    16   134   133    1
    17   134   135    2
    18   149   152    1
    19   133   136    1
    20   140   141    1
    21    66    67    1
    22   130   129   ar
    23   153   152    1
    24   125   126    2
    25   125   124    1
    26    69    68   ar
    27   138   137   ar
    28   127   124    1
    29   127   128    1
    30    65    64    2
    31    67    68    1
    32    68    70   ar
    33   143   142    2
    34   129   128    1
    35   129   131   ar
    36    29    30    1
    37   124   123    1
    38   136   137    1
    39   141   142    1
    40   141   144    1
    41    35    37   ar
    42    35    34   ar
    43   137   139   ar
    44    61    60    1
    45    71    72    1
    46    37    39   ar
    47   147   145    1
    48    33    30    1
    49    33    34    1
    50   145   144    1
    51   145   146    1
    52    30    31    1
    53    34    36   ar
    54   123   121   am
    55    77    75    1
    56    60    59    1
    57    39    40    1
    58    39    38   ar
    59   122   121    2
    60    72    75    1
    61    72    73    1
    62    74    73    2
    63    75    76    1
    64   121   120    1
    65    31    32    2
    66    36    38   ar
    67    59    58    1
    68   120   119    1
    69   112   111    1
    70    58    57    1
    71    85    83    1
    72    26    27    1
    73    26    25    1
    74    27    28    2
    75    93    92   ar
    76    47    45    1
    77   111   108    1
    78    20    19    2
    79    84    83    1
    80    57    54    1
    81    83    82    1
    82    94    92   ar
    83    92    91    1
    84    25    19   am
    85    19    18    1
    86    45    46    1
    87    45    42    1
    88   110   109    2
    89    82    79    1
    90   108   109    1
    91   108   107    1
    92    90    91    1
    93    90    87    1
    94    89    88    2
    95    41    42    1
    96   109   113   am
    97    54    55    1
    98    54    53    1
    99    42    43    1
   100   107    97   am
   101    86    87    1
   102    86    80   am
   103    18    21    1
   104    18    17    1
   105    55    56    2
   106    21    22    1
   107   115   116    2
   108   115   114    1
   109    88    87    1
   110    88    95   am
   111    79    80    1
   112    79    78    1
   113   113   114    1
   114    80    81    2
   115    97    98    2
   116    97    96    1
   117    52    49    1
   118    44    43    2
   119   114   117    1
   120    17    12   am
   121    16    14    1
   122    95    96    1
   123    96    99    1
   124    23    22    1
   125    22    24    1
   126    13    12    2
   127    12    11    1
   128   118   117    1
   129    51    50    2
   130   101   103   ar
   131   101   100   ar
   132    49    50    1
   133    49    48    1
   134   103   105   ar
   135    14    11    1
   136    14    15    1
   137    99   100    1
   138   100   102   ar
   139    11    10    1
   140   105   106    1
   141   105   104   ar
   142   102   104   ar
   143     9     7   am
   144    10     3   am
   145     7     6    1
   146     7     8    2
   147     4     3    2
   148     6     5    1
   149     3     2    1
   150     5     2    1
   151     2     1    1
