@<TRIPOS>MOLECULE
tmp/4rvrA00.pdb
 136 136 0 0 0
SMALL
GASTEIGER

@<TRIPOS>ATOM
      1  N         71.0510   30.1990   -3.5390 N.3    32  TRP32      -0.1228
      2  CA        72.0450   31.0210   -2.8510 C.3    32  TRP32       0.1722
      3  C         71.5330   32.3200   -2.2300 C.2    32  TRP32       0.2437
      4  O         72.0450   32.7130   -1.1640 O.2    32  TRP32      -0.2733
      5  CB        73.2990   31.2570   -3.7220 C.3    32  TRP32       0.0563
      6  CG        73.0040   31.9260   -5.0370 C.ar   32  TRP32       0.0003
      7  CD1       72.7770   31.2990   -6.2330 C.ar   32  TRP32       0.0946
      8  CD2       72.8610   33.3390   -5.2880 C.ar   32  TRP32       0.0152
      9  NE1       72.5160   32.2200   -7.2000 N.ar   32  TRP32      -0.2442
     10  CE2       72.5460   33.4830   -6.6560 C.ar   32  TRP32       0.0810
     11  CE3       72.9440   34.4890   -4.4870 C.ar   32  TRP32       0.0012
     12  CZ2       72.3140   34.7280   -7.2470 C.ar   32  TRP32       0.0191
     13  CZ3       72.7550   35.7290   -5.0710 C.ar   32  TRP32       0.0001
     14  CH2       72.4300   35.8390   -6.4570 C.ar   32  TRP32       0.0015
     15  N         70.5130   32.9720   -2.8250 N.am   33  PRO33      -0.2718
     16  CA        70.0540   34.1740   -2.1230 C.3    33  PRO33       0.1535
     17  C         69.3000   33.8890   -0.8210 C.2    33  PRO33       0.2598
     18  O         68.9990   34.8380   -0.1020 O.2    33  PRO33      -0.2715
     19  CB        69.0690   34.8140   -3.1020 C.3    33  PRO33       0.0310
     20  CG        69.4250   34.2410   -4.4760 C.3    33  PRO33       0.0237
     21  CD        69.8430   32.8280   -4.1600 C.3    33  PRO33       0.0939
     22  N         68.8740   32.6210   -0.6160 N.am   34  PHE34      -0.1974
     23  CA        67.7770   32.2530    0.3330 C.3    34  PHE34       0.1639
     24  C         68.2320   31.3340    1.4690 C.2    34  PHE34       0.2290
     25  O         67.4430   30.9230    2.2890 O.2    34  PHE34      -0.2864
     26  CB        66.6160   31.5980   -0.4200 C.3    34  PHE34       0.0560
     27  CG        66.1940   32.3700   -1.6380 C.ar   34  PHE34      -0.0200
     28  CD1       65.6520   33.6520   -1.5090 C.ar   34  PHE34      -0.0042
     29  CD2       66.3670   31.8450   -2.9070 C.ar   34  PHE34      -0.0042
     30  CE1       65.3170   34.3970   -2.6450 C.ar   34  PHE34      -0.0003
     31  CE2       66.0220   32.5750   -4.0310 C.ar   34  PHE34      -0.0003
     32  CZ        65.4770   33.8410   -3.9050 C.ar   34  PHE34      -0.0000
     33  N         70.3550   32.0160    4.0160 N.3    36  LEU36      -0.1231
     34  CA        70.4510   32.7080    5.3170 C.3    36  LEU36       0.1678
     35  C         69.5320   33.9010    5.3110 C.2    36  LEU36       0.2434
     36  O         69.1240   34.3930    4.2240 O.2    36  LEU36      -0.2733
     37  CB        71.8830   33.2330    5.5790 C.3    36  LEU36       0.0284
     38  CG        72.9620   32.1710    5.6210 C.3    36  LEU36       0.0019
     39  CD1       74.3390   32.8630    5.6720 C.3    36  LEU36       0.0001
     40  CD2       72.7070   31.2710    6.8320 C.3    36  LEU36       0.0001
     41  N         69.2340   34.4400    6.5090 N.am   37  PRO37      -0.2718
     42  CA        68.4510   35.6550    6.5340 C.3    37  PRO37       0.1535
     43  C         69.1390   36.7810    5.8010 C.2    37  PRO37       0.2598
     44  O         70.3610   36.8230    5.7520 O.2    37  PRO37      -0.2715
     45  CB        68.3700   36.0040    8.0310 C.3    37  PRO37       0.0310
     46  CG        68.7240   34.7640    8.7560 C.3    37  PRO37       0.0237
     47  CD        69.6420   34.0130    7.8670 C.3    37  PRO37       0.0939
     48  N         68.3540   37.6400    5.1720 N.am   38  VAL38      -0.1964
     49  CA        68.9360   38.7770    4.4680 C.3    38  VAL38       0.1727
     50  C         69.6110   39.6350    5.5090 C.2    38  VAL38       0.2616
     51  O         69.0600   39.8930    6.5890 O.2    38  VAL38      -0.2715
     52  CB        67.8980   39.5950    3.7390 C.3    38  VAL38       0.0290
     53  CG1       68.5010   40.9350    3.2080 C.3    38  VAL38       0.0023
     54  CG2       67.2670   38.7660    2.6400 C.3    38  VAL38       0.0023
     55  N         70.8360   40.0130    5.2100 N.am   39  ASN39      -0.1972
     56  CA        71.6530   40.6700    6.1920 C.3    39  ASN39       0.1688
     57  C         71.1560   42.0940    6.4810 C.2    39  ASN39       0.2292
     58  O         71.3470   43.0130    5.6630 O.2    39  ASN39      -0.2864
     59  CB        73.0750   40.6740    5.6930 C.3    39  ASN39       0.1181
     60  CG        74.0450   41.2230    6.7230 C.2    39  ASN39       0.2629
     61  OD1       73.6880   42.0550    7.5660 O.2    39  ASN39      -0.2716
     62  ND2       75.2760   40.7450    6.6660 N.am   39  ASN39      -0.0877
     63  N         73.6280   45.1250    6.4180 N.3    42  LEU42      -0.1231
     64  CA        74.3140   45.4460    5.1840 C.3    42  LEU42       0.1693
     65  C         73.3760   45.8200    4.0600 C.2    42  LEU42       0.2592
     66  O         73.8280   46.2950    3.0240 O.2    42  LEU42      -0.2718
     67  CB        75.1750   44.2530    4.7290 C.3    42  LEU42       0.0284
     68  CG        76.5610   44.1220    5.3660 C.3    42  LEU42       0.0019
     69  CD1       76.4890   44.0890    6.8940 C.3    42  LEU42       0.0001
     70  CD2       77.2620   42.8860    4.8060 C.3    42  LEU42       0.0001
     71  N         72.0770   45.5820    4.2390 N.am   43  VAL43      -0.1966
     72  CA        71.1320   45.7450    3.1380 C.3    43  VAL43       0.1712
     73  C         70.1470   46.8570    3.4820 C.2    43  VAL43       0.2458
     74  O         69.2260   46.6540    4.3040 O.2    43  VAL43      -0.2730
     75  CB        70.3800   44.4230    2.7840 C.3    43  VAL43       0.0289
     76  CG1       69.5080   44.6240    1.5560 C.3    43  VAL43       0.0023
     77  CG2       71.3700   43.2800    2.5460 C.3    43  VAL43       0.0023
     78  N         70.3710   48.0670    2.9020 N.am   44  PRO44      -0.2727
     79  CA        69.5040   49.2090    3.2160 C.3    44  PRO44       0.1402
     80  C         68.1210   49.0180    2.6280 C.2    44  PRO44       0.2269
     81  O         67.9900   48.5190    1.4900 O.2    44  PRO44      -0.2865
     82  CB        70.2190   50.4030    2.5410 C.3    44  PRO44       0.0296
     83  CG        70.9940   49.7860    1.4300 C.3    44  PRO44       0.0237
     84  CD        71.4330   48.4360    1.9380 C.3    44  PRO44       0.0939
     85  N         65.8390   47.0020    3.8350 N.3    46  TYR46      -0.1241
     86  CA        65.2320   45.6570    4.0050 C.3    46  TYR46       0.1605
     87  C         64.3580   45.5710    5.2180 C.2    46  TYR46       0.2264
     88  O         63.1500   45.2810    5.1290 O.2    46  TYR46      -0.2867
     89  CB        66.2780   44.5180    4.0260 C.3    46  TYR46       0.0534
     90  CG        65.6060   43.2320    3.5810 C.ar   46  TYR46      -0.0201
     91  CD1       65.0150   42.3740    4.5100 C.ar   46  TYR46      -0.0009
     92  CD2       65.4390   42.9620    2.2310 C.ar   46  TYR46      -0.0009
     93  CE1       64.3390   41.2020    4.0950 C.ar   46  TYR46       0.0417
     94  CE2       64.7610   41.8130    1.7830 C.ar   46  TYR46       0.0417
     95  CZ        64.2090   40.9360    2.7090 C.ar   46  TYR46       0.1957
     96  OH        63.5240   39.7990    2.2630 O.3    46  TYR46      -0.2866
     97  N         59.1450   33.6880    1.5090 N.3    81  VAL81      -0.1245
     98  CA        60.5100   33.8820    0.9800 C.3    81  VAL81       0.1561
     99  C         60.4890   34.4860   -0.4420 C.2    81  VAL81       0.2260
    100  O         61.2080   35.4930   -0.7510 O.2    81  VAL81      -0.2867
    101  CB        61.3020   32.5360    0.9470 C.3    81  VAL81       0.0252
    102  CG1       62.6970   32.7750    0.3410 C.3    81  VAL81       0.0019
    103  CG2       61.5120   31.9740    2.3290 C.3    81  VAL81       0.0019
    104  N         61.1590   38.3330   -1.9110 N.3    85  CYS85      -0.1235
    105  CA        62.1610   38.4850   -2.8890 C.3    85  CYS85       0.1677
    106  C         61.6380   39.4080   -4.0430 C.2    85  CYS85       0.2270
    107  O         62.3360   40.2950   -4.5020 O.2    85  CYS85      -0.2867
    108  CB        62.6100   37.1240   -3.3900 C.3    85  CYS85       0.0956
    109  SG        63.8700   37.1800   -4.6850 S.3    85  CYS85      -0.0801
    110  N         61.3770   43.1620   -2.9510 N.3    88  PHE88      -0.1227
    111  CA        62.6190   43.8930   -2.8080 C.3    88  PHE88       0.1736
    112  C         63.5040   43.9410   -4.0380 C.2    88  PHE88       0.2595
    113  O         64.3400   44.8450   -4.1590 O.2    88  PHE88      -0.2718
    114  CB        63.4510   43.3280   -1.6560 C.3    88  PHE88       0.0547
    115  CG        64.3830   44.3440   -1.0370 C.ar   88  PHE88      -0.0202
    116  CD1       63.8910   45.3050   -0.1770 C.ar   88  PHE88      -0.0042
    117  CD2       65.7440   44.3190   -1.2940 C.ar   88  PHE88      -0.0042
    118  CE1       64.7300   46.2350    0.4250 C.ar   88  PHE88      -0.0003
    119  CE2       66.5870   45.2450   -0.7050 C.ar   88  PHE88      -0.0003
    120  CZ        66.0750   46.2080    0.1490 C.ar   88  PHE88      -0.0000
    121  N         63.4040   42.9400   -4.8940 N.am   89  ASN89      -0.1974
    122  CA        64.3380   42.8150   -6.0250 C.3    89  ASN89       0.1688
    123  C         63.6520   42.9830   -7.3830 C.2    89  ASN89       0.2292
    124  O         62.5250   42.5240   -7.5730 O.2    89  ASN89      -0.2864
    125  CB        64.9940   41.4750   -5.9970 C.3    89  ASN89       0.1181
    126  CG        65.8320   41.2630   -4.7550 C.2    89  ASN89       0.2629
    127  OD1       67.0120   41.5900   -4.7300 O.2    89  ASN89      -0.2716
    128  ND2       65.2390   40.6770   -3.7390 N.am   89  ASN89      -0.0877
    129  N         69.2010   37.9210   -8.3330 N.3    95  ILE95      -0.1245
    130  CA        68.4080   37.4650   -7.1720 C.3    95  ILE95       0.1561
    131  C         66.9330   37.2960   -7.5430 C.2    95  ILE95       0.2260
    132  O         66.2950   36.2810   -7.1990 O.2    95  ILE95      -0.2867
    133  CB        68.5310   38.4430   -5.9880 C.3    95  ILE95       0.0252
    134  CG1       69.9690   38.3910   -5.4560 C.3    95  ILE95       0.0019
    135  CG2       67.5010   38.0830   -4.8810 C.3    95  ILE95       0.0019
    136  CD1       70.3290   39.4620   -4.4730 C.3    95  ILE95       0.0001
@<TRIPOS>BOND
     1   129   130    1
     2   124   123    2
     3   131   132    2
     4   131   130    1
     5   123   122    1
     6    12    10   ar
     7    12    14   ar
     8     9    10   ar
     9     9     7   ar
    10   130   133    1
    11    10     8   ar
    12    14    13   ar
    13     7     6   ar
    14   122   125    1
    15   122   121    1
    16   125   126    1
    17   133   134    1
    18   133   135    1
    19   134   136    1
    20     8     6   ar
    21     8    11   ar
    22    13    11   ar
    23     6     5    1
    24   121   112   am
    25   126   127    2
    26   126   128   am
    27   109   108    1
    28   107   106    2
    29    20    21    1
    30    20    19    1
    31    21    15    1
    32   113   112    2
    33   106   105    1
    34   112   111    1
    35    31    32   ar
    36    31    29   ar
    37    32    30   ar
    38     5     2    1
    39     1     2    1
    40   108   105    1
    41    19    16    1
    42   110   111    1
    43    29    27   ar
    44   105   104    1
    45     2     3    1
    46    15     3   am
    47    15    16    1
    48   111   114    1
    49    30    28   ar
    50     3     4    2
    51    16    17    1
    52   114   115    1
    53    27    28   ar
    54    27    26    1
    55   117   115   ar
    56   117   119   ar
    57   115   116   ar
    58    17    22   am
    59    17    18    2
    60   100    99    2
    61   119   120   ar
    62    22    23    1
    63    99    98    1
    64    26    23    1
    65   116   118   ar
    66   120   118   ar
    67    23    24    1
    68   102   101    1
    69   101    98    1
    70   101   103    1
    71    98    97    1
    72    83    84    1
    73    83    82    1
    74    24    25    2
    75    81    80    2
    76    76    75    1
    77    94    92   ar
    78    94    95   ar
    79    84    78    1
    80    92    90   ar
    81    96    95    1
    82    82    79    1
    83    77    75    1
    84    80    79    1
    85    54    52    1
    86    95    93   ar
    87    75    72    1
    88    78    79    1
    89    78    73   am
    90    66    65    2
    91    72    73    1
    92    72    71    1
    93    53    52    1
    94    73    74    2
    95    90    89    1
    96    90    91   ar
    97    52    49    1
    98    85    86    1
    99    86    89    1
   100    86    87    1
   101    33    34    1
   102    65    71   am
   103    65    64    1
   104    93    91   ar
   105    36    35    2
   106    49    48    1
   107    49    50    1
   108    67    64    1
   109    67    68    1
   110    70    68    1
   111    88    87    2
   112    48    43   am
   113    64    63    1
   114    55    50   am
   115    55    56    1
   116    35    34    1
   117    35    41   am
   118    34    37    1
   119    68    69    1
   120    50    51    2
   121    37    38    1
   122    38    39    1
   123    38    40    1
   124    58    57    2
   125    59    56    1
   126    59    60    1
   127    44    43    2
   128    43    42    1
   129    56    57    1
   130    41    42    1
   131    41    47    1
   132    42    45    1
   133    62    60   am
   134    60    61    2
   135    47    46    1
   136    45    46    1
