@<TRIPOS>MOLECULE
tmp/4rvtA00.pdb
 137 128 0 0 0
SMALL
GASTEIGER

@<TRIPOS>ATOM
      1  N        -19.2950   -1.0720  -28.2130 N.3    18  VAL18      -0.1231
      2  CA       -17.9880   -0.8580  -27.5870 C.3    18  VAL18       0.1692
      3  C        -18.1300   -0.0730  -26.2940 C.2    18  VAL18       0.2592
      4  O        -19.1040    0.6630  -26.1030 O.2    18  VAL18      -0.2718
      5  CB       -16.9770   -0.1330  -28.5090 C.3    18  VAL18       0.0266
      6  CG1      -16.4240   -1.0810  -29.5690 C.3    18  VAL18       0.0020
      7  CG2      -17.6020    1.1090  -29.1400 C.3    18  VAL18       0.0020
      8  N        -17.1500   -0.2500  -25.4110 N.am   19  GLY19      -0.1957
      9  CA       -17.1030    0.4410  -24.1230 C.3    19  GLY19       0.1869
     10  C        -18.0400   -0.1050  -23.0650 C.2    19  GLY19       0.2309
     11  O        -18.1190    0.4470  -21.9720 O.2    19  GLY19      -0.2863
     12  N        -20.3800    4.7600  -23.0270 N.3    23  TYR23      -0.1241
     13  CA       -20.7620    5.7250  -24.0670 C.3    23  TYR23       0.1605
     14  C        -22.2170    5.6320  -24.4790 C.2    23  TYR23       0.2264
     15  O        -22.6870    6.4430  -25.2670 O.2    23  TYR23      -0.2867
     16  CB       -19.8750    5.5460  -25.3040 C.3    23  TYR23       0.0534
     17  CG       -18.4100    5.3930  -24.9690 C.ar   23  TYR23      -0.0201
     18  CD1      -17.7770    4.1570  -25.0890 C.ar   23  TYR23      -0.0009
     19  CD2      -17.6650    6.4810  -24.5080 C.ar   23  TYR23      -0.0009
     20  CE1      -16.4370    4.0080  -24.7810 C.ar   23  TYR23       0.0417
     21  CE2      -16.3270    6.3470  -24.1940 C.ar   23  TYR23       0.0417
     22  CZ       -15.7150    5.1100  -24.3260 C.ar   23  TYR23       0.1957
     23  OH       -14.3850    4.9690  -24.0070 O.3    23  TYR23      -0.2866
     24  N        -22.9830    3.0830  -28.5590 N.3    26  VAL26      -0.1245
     25  CA       -21.9010    3.2930  -29.5090 C.3    26  VAL26       0.1561
     26  C        -21.3420    1.9420  -29.9740 C.2    26  VAL26       0.2260
     27  O        -20.8520    1.1360  -29.1730 O.2    26  VAL26      -0.2867
     28  CB       -20.7950    4.2190  -28.9400 C.3    26  VAL26       0.0252
     29  CG1      -19.5540    4.2110  -29.8180 C.3    26  VAL26       0.0019
     30  CG2      -21.3170    5.6420  -28.8140 C.3    26  VAL26       0.0019
     31  N        -18.8850   -0.4280  -32.6040 N.3    28  LYS28      -0.1245
     32  CA       -17.9050   -0.6890  -33.6390 C.3    28  LYS28       0.1561
     33  C        -18.7100   -1.0110  -34.8970 C.2    28  LYS28       0.2260
     34  O        -19.5030   -1.9540  -34.9110 O.2    28  LYS28      -0.2867
     35  CB       -17.0600   -1.9030  -33.2500 C.3    28  LYS28       0.0271
     36  CG       -16.0180   -2.3220  -34.2730 C.3    28  LYS28       0.0035
     37  CD       -15.1850   -3.4830  -33.7500 C.3    28  LYS28       0.0206
     38  CE       -14.1000   -3.8440  -34.7530 C.3    28  LYS28       0.1093
     39  NZ       -13.3300   -5.0750  -34.4100 N.3    28  LYS28      -0.1314
     40  N        -16.6700    4.0200  -35.5450 N.3    39  ALA39      -0.1245
     41  CA       -17.5280    3.9730  -34.3760 C.3    39  ALA39       0.1562
     42  C        -18.8140    4.6750  -34.7370 C.2    39  ALA39       0.2260
     43  O        -18.8000    5.7610  -35.3330 O.2    39  ALA39      -0.2867
     44  CB       -16.8690    4.6450  -33.1960 C.3    39  ALA39       0.0290
     45  N        -22.5260    5.9020  -33.2690 N.3    41  LYS41      -0.1245
     46  CA       -23.4600    6.2070  -32.1870 C.3    41  LYS41       0.1561
     47  C        -24.8790    6.1520  -32.7240 C.2    41  LYS41       0.2260
     48  O        -25.2090    6.8360  -33.7020 O.2    41  LYS41      -0.2867
     49  CB       -23.1820    7.5920  -31.5930 C.3    41  LYS41       0.0271
     50  CG       -23.9420    7.8800  -30.3050 C.3    41  LYS41       0.0035
     51  CD       -24.0150    9.3740  -30.0370 C.3    41  LYS41       0.0206
     52  CE       -24.3690    9.6670  -28.5870 C.3    41  LYS41       0.1093
     53  NZ       -23.9940   11.0760  -28.2670 N.3    41  LYS41      -0.1314
     54  N        -25.9210   18.5210  -32.8040 N.3    52  GLU52      -0.1245
     55  CA       -24.7610   17.7180  -32.4330 C.3    52  GLU52       0.1567
     56  C        -23.9030   17.4680  -33.6780 C.2    52  GLU52       0.2260
     57  O        -22.6700   17.4670  -33.6040 O.2    52  GLU52      -0.2867
     58  CB       -25.2130   16.3910  -31.8130 C.3    52  GLU52       0.0388
     59  CG       -24.0980   15.5590  -31.1890 C.3    52  GLU52       0.1160
     60  CD       -24.6020   14.2970  -30.5000 C.2    52  GLU52       0.3649
     61  OE1      -23.7790   13.5750  -29.8970 O.co2  52  GLU52      -0.2457
     62  OE2      -25.8210   14.0200  -30.5540 O.co2  52  GLU52      -0.2457
     63  N        -11.5710   12.9930  -32.5540 N.3    66  ALA66      -0.1245
     64  CA       -11.9470   11.8870  -33.4390 C.3    66  ALA66       0.1562
     65  C        -12.7840   12.4430  -34.5740 C.2    66  ALA66       0.2260
     66  O        -13.6940   13.2390  -34.3510 O.2    66  ALA66      -0.2867
     67  CB       -12.7140   10.8250  -32.6740 C.3    66  ALA66       0.0290
     68  N        -18.2440    7.9430  -36.8650 N.3    88  MET88      -0.1230
     69  CA       -17.0710    8.6370  -36.3840 C.3    88  MET88       0.1702
     70  C        -15.8510    7.7750  -36.6280 C.2    88  MET88       0.2592
     71  O        -15.9670    6.5570  -36.8260 O.2    88  MET88      -0.2718
     72  CB       -17.1670    8.8110  -34.8650 C.3    88  MET88       0.0401
     73  CG       -18.4250    9.4620  -34.3280 C.3    88  MET88       0.0596
     74  SD       -18.2840   11.2550  -34.3480 S.3    88  MET88      -0.1393
     75  CE       -19.2870   11.6390  -32.9120 C.3    88  MET88       0.0692
     76  N        -14.6830    8.4070  -36.5470 N.am   89  GLU89      -0.1966
     77  CA       -13.4160    7.7130  -36.5320 C.3    89  GLU89       0.1733
     78  C        -13.3790    6.6770  -35.4070 C.2    89  GLU89       0.2616
     79  O        -13.8440    6.9280  -34.2800 O.2    89  GLU89      -0.2715
     80  CB       -12.2800    8.7200  -36.3630 C.3    89  GLU89       0.0429
     81  CG       -10.8670    8.1390  -36.4230 C.3    89  GLU89       0.1163
     82  CD        -9.7860    9.1830  -36.1640 C.2    89  GLU89       0.3649
     83  OE1      -10.1110   10.3920  -36.0360 O.co2  89  GLU89      -0.2457
     84  OE2       -8.5990    8.7890  -36.0930 O.co2  89  GLU89      -0.2457
     85  N        -12.8340    5.5090  -35.7390 N.am   90  PHE90      -0.1960
     86  CA       -12.6630    4.4230  -34.7940 C.3    90  PHE90       0.1771
     87  C        -11.2790    4.5350  -34.1910 C.2    90  PHE90       0.2620
     88  O        -10.2980    4.7320  -34.9050 O.2    90  PHE90      -0.2715
     89  CB       -12.8130    3.0810  -35.4900 C.3    90  PHE90       0.0574
     90  CG       -12.9370    1.9300  -34.5500 C.ar   90  PHE90      -0.0200
     91  CD1      -14.0630    1.7900  -33.7520 C.ar   90  PHE90      -0.0042
     92  CD2      -11.9310    0.9820  -34.4620 C.ar   90  PHE90      -0.0042
     93  CE1      -14.1810    0.7350  -32.8740 C.ar   90  PHE90      -0.0003
     94  CE2      -12.0500   -0.0920  -33.5950 C.ar   90  PHE90      -0.0003
     95  CZ       -13.1760   -0.2140  -32.8000 C.ar   90  PHE90      -0.0000
     96  N        -11.2100    4.4310  -32.8710 N.am   91  CYS91      -0.1954
     97  CA        -9.9490    4.5210  -32.1650 C.3    91  CYS91       0.1843
     98  C         -9.6850    3.1640  -31.5040 C.2    91  CYS91       0.2626
     99  O        -10.1960    2.8850  -30.4170 O.2    91  CYS91      -0.2714
    100  CB        -9.9800    5.6950  -31.1730 C.3    91  CYS91       0.0997
    101  SG       -10.3790    7.2940  -31.9440 S.3    91  CYS91      -0.0797
    102  N         -8.9010    2.3270  -32.1960 N.am   92  GLY92      -0.1940
    103  CA        -8.7270    0.9060  -31.8560 C.3    92  GLY92       0.2014
    104  C         -8.1670    0.5690  -30.4800 C.2    92  GLY92       0.2639
    105  O         -8.7070   -0.2920  -29.7670 O.2    92  GLY92      -0.2714
    106  N         -7.0860    1.2510  -30.1060 N.am   93  ALA93      -0.1963
    107  CA        -6.3840    0.9890  -28.8430 C.3    93  ALA93       0.1728
    108  C         -7.2700    1.1690  -27.5970 C.2    93  ALA93       0.2616
    109  O         -7.0460    0.5330  -26.5720 O.2    93  ALA93      -0.2715
    110  CB        -5.1330    1.8520  -28.7470 C.3    93  ALA93       0.0334
    111  N         -8.2840    2.0180  -27.6910 N.am   94  GLY94      -0.1955
    112  CA        -9.2170    2.1730  -26.5850 C.3    94  GLY94       0.1869
    113  C         -8.9570    3.3950  -25.7260 C.2    94  GLY94       0.2309
    114  O         -8.2600    4.3210  -26.1540 O.2    94  GLY94      -0.2863
    115  N         -9.2300    8.8290  -26.1190 N.3   143  LEU143     -0.1245
    116  CA        -9.0270    7.5740  -26.8420 C.3   143  LEU143      0.1561
    117  C         -7.6920    7.4810  -27.5360 C.2   143  LEU143      0.2260
    118  O         -7.0490    8.5020  -27.8270 O.2   143  LEU143     -0.2867
    119  CB       -10.1540    7.3410  -27.8430 C.3   143  LEU143      0.0270
    120  CG       -11.5370    7.1760  -27.2090 C.3   143  LEU143      0.0019
    121  CD1      -12.5100    6.6050  -28.2210 C.3   143  LEU143      0.0001
    122  CD2      -11.4780    6.2810  -25.9870 C.3   143  LEU143      0.0001
    123  N        -13.2750   12.2650  -27.6500 N.3   153  VAL153     -0.1231
    124  CA       -14.5970   11.9240  -28.1330 C.3   153  VAL153      0.1692
    125  C        -15.6620   12.4970  -27.1910 C.2   153  VAL153      0.2592
    126  O        -15.3640   12.9120  -26.0590 O.2   153  VAL153     -0.2718
    127  CB       -14.7980   10.3990  -28.2380 C.3   153  VAL153      0.0266
    128  CG1      -13.8270    9.7740  -29.2270 C.3   153  VAL153      0.0020
    129  CG2      -14.6610    9.7400  -26.8730 C.3   153  VAL153      0.0020
    130  N        -16.8990   12.5130  -27.6830 N.am  154  ASP154     -0.1974
    131  CA       -18.1080   12.8210  -26.9000 C.3   154  ASP154      0.1709
    132  C        -18.1520   14.2240  -26.2850 C.2   154  ASP154      0.2293
    133  O        -18.1140   14.3810  -25.0690 O.2   154  ASP154     -0.2864
    134  CB       -18.3590   11.7360  -25.8370 C.3   154  ASP154      0.1436
    135  CG       -19.7160   11.8670  -25.1820 C.2   154  ASP154      0.3671
    136  OD1      -20.5460   12.6710  -25.6640 O.co2 154  ASP154     -0.2456
    137  OD2      -19.9540   11.1660  -24.1830 O.co2 154  ASP154     -0.2456
@<TRIPOS>BOND
     1    68    69    1
     2    71    70    2
     3    70    76   am
     4    70    69    1
     5    76    77    1
     6    77    80    1
     7    77    78    1
     8    81    80    1
     9    81    82    1
    10    69    72    1
    11    82    84   ar
    12    82    83   ar
    13    85    78   am
    14    85    86    1
    15    40    41    1
    16    89    86    1
    17    89    90    1
    18    78    79    2
    19    43    42    2
    20    34    33    2
    21    88    87    2
    22    33    32    1
    23    72    73    1
    24    86    87    1
    25    38    39    1
    26    38    37    1
    27    42    41    1
    28    65    66    2
    29    65    64    1
    30    90    92   ar
    31    90    91   ar
    32    92    94   ar
    33    41    44    1
    34    74    73    1
    35    74    75    1
    36    36    37    1
    37    36    35    1
    38    87    96   am
    39    91    93   ar
    40    48    47    2
    41    56    57    2
    42    56    55    1
    43    32    35    1
    44    32    31    1
    45    94    95   ar
    46    64    67    1
    47    64    63    1
    48    45    46    1
    49    93    95   ar
    50    96    97    1
    51    54    55    1
    52    47    46    1
    53    55    58    1
    54   102   103    1
    55   102    98   am
    56    46    49    1
    57    97    98    1
    58    97   100    1
    59   101   100    1
    60   103   104    1
    61    58    59    1
    62    49    50    1
    63    98    99    2
    64    59    60    1
    65    62    60   ar
    66    60    61   ar
    67   104   106   am
    68   104   105    2
    69    50    51    1
    70   106   107    1
    71    51    52    1
    72    26    25    1
    73    26    27    2
    74    29    28    1
    75     6     5    1
    76    25    28    1
    77    25    24    1
    78   128   127    1
    79     7     5    1
    80    28    30    1
    81   107   110    1
    82   107   108    1
    83    52    53    1
    84     5     2    1
    85   127   124    1
    86   127   129    1
    87   121   120    1
    88     1     2    1
    89   124   123    1
    90   124   125    1
    91   119   120    1
    92   119   116    1
    93   118   117    2
    94   111   108   am
    95   111   112    1
    96   130   125   am
    97   130   131    1
    98   108   109    2
    99     2     3    1
   100   117   116    1
   101   120   122    1
   102   125   126    2
   103   131   132    1
   104   131   134    1
   105   116   115    1
   106   112   113    1
   107     3     4    2
   108     3     8   am
   109   132   133    2
   110   114   113    2
   111   134   135    1
   112   136   135   ar
   113     8     9    1
   114    16    17    1
   115    16    13    1
   116    15    14    2
   117   135   137   ar
   118    18    17   ar
   119    18    20   ar
   120    17    19   ar
   121    20    22   ar
   122    19    21   ar
   123    14    13    1
   124    22    21   ar
   125    22    23    1
   126     9    10    1
   127    13    12    1
   128    10    11    2
