@<TRIPOS>MOLECULE
tmp/4rvxC00.pdb
 131 122 0 0 0
SMALL
GASTEIGER

@<TRIPOS>ATOM
      1  N          4.1990   -5.0120   12.3810 N.3     8  ARG8       -0.1245
      2  CA         4.7050   -5.6490   11.1730 C.3     8  ARG8        0.1563
      3  C          4.8560   -7.1580   11.4020 C.2     8  ARG8        0.2260
      4  O          5.4080   -7.5740   12.4210 O.2     8  ARG8       -0.2867
      5  CB         6.0480   -5.0290   10.7700 C.3     8  ARG8        0.0307
      6  CG         6.0090   -3.5160   10.5850 C.3     8  ARG8        0.0489
      7  CD         7.3630   -2.9380   10.1500 C.3     8  ARG8        0.2205
      8  NE         7.2510   -1.5110    9.8670 N.pl3   8  ARG8       -0.0865
      9  CZ         8.1960   -0.7660    9.2960 C.cat   8  ARG8        0.5346
     10  NH1        9.3540   -1.3010    8.9280 N.pl3   8  ARG8        0.1354
     11  NH2        7.9750    0.5250    9.0790 N.pl3   8  ARG8        0.1354
     12  N         10.0990   -9.6850    6.5580 N.3    23  LEU23      -0.1245
     13  CA         8.7050   -9.2830    6.6360 C.3    23  LEU23       0.1561
     14  C          7.7830  -10.1950    5.7970 C.2    23  LEU23       0.2260
     15  O          8.0690  -10.4540    4.6230 O.2    23  LEU23      -0.2867
     16  CB         8.6180   -7.8320    6.1820 C.3    23  LEU23       0.0270
     17  CG         7.2810   -7.1250    6.0640 C.3    23  LEU23       0.0019
     18  CD1        6.8000   -6.7940    7.4450 C.3    23  LEU23       0.0001
     19  CD2        7.4540   -5.8570    5.2370 C.3    23  LEU23       0.0001
     20  N          4.9030  -10.6050    3.4700 N.3    25  ASP25      -0.1239
     21  CA         4.3570   -9.5450    2.6360 C.3    25  ASP25       0.1674
     22  C          3.4240  -10.0290    1.5240 C.2    25  ASP25       0.2266
     23  O          3.8680  -10.3810    0.4300 O.2    25  ASP25      -0.2867
     24  CB         5.5130   -8.7730    2.0440 C.3    25  ASP25       0.1410
     25  CG         5.0880   -7.5290    1.3230 C.2    25  ASP25       0.3668
     26  OD1        3.8680   -7.2360    1.2030 O.co2  25  ASP25      -0.2456
     27  OD2        6.0190   -6.8440    0.8560 O.co2  25  ASP25      -0.2456
     28  N          1.6440   -8.4360   -0.3910 N.3    27  GLY27      -0.1210
     29  CA         1.6850   -7.5690   -1.5640 C.3    27  GLY27       0.1956
     30  C          2.8880   -7.7540   -2.4860 C.2    27  GLY27       0.2612
     31  O          2.9930   -7.1200   -3.5350 O.2    27  GLY27      -0.2717
     32  N          3.8140   -8.6080   -2.0870 N.am   28  ALA28      -0.1965
     33  CA         5.0020   -8.8730   -2.8820 C.3    28  ALA28       0.1728
     34  C          4.8320  -10.1920   -3.6410 C.2    28  ALA28       0.2616
     35  O          4.5620  -11.2210   -3.0350 O.2    28  ALA28      -0.2715
     36  CB         6.2300   -8.9190   -1.9870 C.3    28  ALA28       0.0334
     37  N          4.9680  -10.1540   -4.9630 N.am   29  ASP29      -0.1957
     38  CA         4.8580  -11.3630   -5.7820 C.3    29  ASP29       0.1840
     39  C          5.9670  -12.3440   -5.4480 C.2    29  ASP29       0.2622
     40  O          5.7380  -13.5550   -5.2920 O.2    29  ASP29      -0.2715
     41  CB         4.9250  -11.0280   -7.2760 C.3    29  ASP29       0.1450
     42  CG         3.7270  -10.2280   -7.7590 C.2    29  ASP29       0.3671
     43  OD1        2.6810  -10.2260   -7.0710 O.co2  29  ASP29      -0.2456
     44  OD2        3.8230   -9.6220   -8.8510 O.co2  29  ASP29      -0.2456
     45  N          7.1770  -11.8030   -5.3450 N.am   30  ASP30      -0.1971
     46  CA         8.3800  -12.5980   -5.1400 C.3    30  ASP30       0.1709
     47  C          9.1250  -12.1950   -3.8680 C.2    30  ASP30       0.2293
     48  O          8.9780  -11.0830   -3.3660 O.2    30  ASP30      -0.2864
     49  CB         9.3170  -12.4590   -6.3400 C.3    30  ASP30       0.1436
     50  CG         8.9120  -13.3400   -7.5050 C.2    30  ASP30       0.3671
     51  OD1        9.0330  -14.5760   -7.3770 O.co2  30  ASP30      -0.2456
     52  OD2        8.4850  -12.7990   -8.5490 O.co2  30  ASP30      -0.2456
     53  N         12.2460  -10.9270   -1.9230 N.3    32  VAL32      -0.1245
     54  CA        13.3860  -10.0400   -2.1720 C.3    32  VAL32       0.1561
     55  C         14.1990   -9.8730   -0.8960 C.2    32  VAL32       0.2260
     56  O         13.6510   -9.4430    0.1170 O.2    32  VAL32      -0.2867
     57  CB        12.9550   -8.6350   -2.6360 C.3    32  VAL32       0.0252
     58  CG1       14.1570   -7.8500   -3.1440 C.3    32  VAL32       0.0019
     59  CG2       11.8660   -8.7020   -3.6780 C.3    32  VAL32       0.0019
     60  N         17.2780   -8.9330  -13.0370 N.3    45  ARG45      -0.1245
     61  CA        15.8410   -8.7780  -13.2130 C.3    45  ARG45       0.1563
     62  C         15.3620   -7.4190  -12.7420 C.2    45  ARG45       0.2260
     63  O         15.8330   -6.9020  -11.7310 O.2    45  ARG45      -0.2867
     64  CB        15.0780   -9.8700  -12.4710 C.3    45  ARG45       0.0307
     65  CG        13.5860   -9.6390  -12.4970 C.3    45  ARG45       0.0489
     66  CD        12.8360  -10.8620  -12.0990 C.3    45  ARG45       0.2205
     67  NE        11.4500  -10.5680  -11.7630 N.pl3  45  ARG45      -0.0865
     68  CZ        10.6470  -11.4610  -11.2030 C.cat  45  ARG45       0.5346
     69  NH1       11.1170  -12.6700  -10.9430 N.pl3  45  ARG45       0.1354
     70  NH2        9.3920  -11.1510  -10.9000 N.pl3  45  ARG45       0.1354
     71  N         12.4680   -5.1690  -11.1290 N.3    47  ILE47      -0.1231
     72  CA        11.2360   -5.1550  -10.3620 C.3    47  ILE47       0.1692
     73  C         10.9210   -3.7210  -10.0050 C.2    47  ILE47       0.2593
     74  O         11.8030   -2.8570  -10.0190 O.2    47  ILE47      -0.2718
     75  CB        11.2960   -6.0250   -9.0830 C.3    47  ILE47       0.0266
     76  CG1       12.3430   -5.5090   -8.0980 C.3    47  ILE47       0.0019
     77  CG2       11.5360   -7.4830   -9.4450 C.3    47  ILE47       0.0020
     78  CD1       12.2880   -6.1930   -6.7280 C.3    47  ILE47       0.0001
     79  N          9.6550   -3.4780   -9.7010 N.am   48  GLY48      -0.1942
     80  CA         9.1720   -2.1360   -9.4760 C.3    48  GLY48       0.2014
     81  C          8.2180   -2.0810   -8.3050 C.2    48  GLY48       0.2639
     82  O          7.4560   -3.0200   -8.0470 O.2    48  GLY48      -0.2714
     83  N          8.2640   -0.9660   -7.5970 N.am   49  GLY49      -0.1939
     84  CA         7.4040   -0.7480   -6.4610 C.3    49  GLY49       0.2014
     85  C          7.2520    0.7350   -6.2540 C.2    49  GLY49       0.2638
     86  O          7.3680    1.4960   -7.1990 O.2    49  GLY49      -0.2714
     87  N          7.0220    1.1500   -5.0170 N.am   50  ILE50      -0.1977
     88  CA         6.6260    2.5200   -4.7630 C.3    50  ILE50       0.1596
     89  C          7.6510    3.5490   -5.2460 C.2    50  ILE50       0.2287
     90  O          7.2960    4.4690   -6.0000 O.2    50  ILE50      -0.2864
     91  CB         6.3010    2.6990   -3.2720 C.3    50  ILE50       0.0276
     92  CG1        4.8290    2.3410   -3.0570 C.3    50  ILE50       0.0022
     93  CG2        6.5680    4.1210   -2.7960 C.3    50  ILE50       0.0022
     94  CD1        4.3690    2.4870   -1.6430 C.3    50  ILE50       0.0001
     95  N         15.0180  -13.2590   -4.9880 N.3    76  LEU76      -0.1245
     96  CA        15.6800  -12.1070   -5.5940 C.3    76  LEU76       0.1561
     97  C         16.5180  -11.3950   -4.5380 C.2    76  LEU76       0.2260
     98  O         16.1510  -11.3670   -3.3590 O.2    76  LEU76      -0.2867
     99  CB        14.6640  -11.1410   -6.2030 C.3    76  LEU76       0.0270
    100  CG        13.5430  -11.7720   -7.0270 C.3    76  LEU76       0.0019
    101  CD1       12.6380  -10.7010   -7.5650 C.3    76  LEU76       0.0001
    102  CD2       14.1150  -12.6160   -8.1680 C.3    76  LEU76       0.0001
    103  N         17.1070   -3.6970   -1.5730 N.3    80  THR80      -0.1204
    104  CA        15.8750   -3.4870   -0.8250 C.3    80  THR80       0.1979
    105  C         16.2120   -3.0700    0.6070 C.2    80  THR80       0.2460
    106  O         17.1450   -3.5880    1.1930 O.2    80  THR80      -0.2732
    107  CB        14.9810   -4.7490   -0.8150 C.3    80  THR80       0.1783
    108  OG1       13.9320   -4.5760    0.1420 O.3    80  THR80      -0.2211
    109  CG2       15.7910   -6.0050   -0.4480 C.3    80  THR80       0.0376
    110  N         15.4550   -2.1210    1.1760 N.am   81  PRO81      -0.2717
    111  CA        15.7720   -1.6530    2.5290 C.3    81  PRO81       0.1535
    112  C         15.4360   -2.6690    3.5940 C.2    81  PRO81       0.2599
    113  O         15.7120   -2.4330    4.7700 O.2    81  PRO81      -0.2715
    114  CB        14.9000   -0.4030    2.6860 C.3    81  PRO81       0.0310
    115  CG        13.8010   -0.5760    1.7260 C.3    81  PRO81       0.0237
    116  CD        14.3650   -1.3450    0.5620 C.3    81  PRO81       0.0939
    117  N         14.8490   -3.7880    3.1940 N.am   82  THR82      -0.1951
    118  CA        14.4420   -4.8050    4.1410 C.3    82  THR82       0.1897
    119  C         14.1630   -6.1500    3.4440 C.2    82  THR82       0.2313
    120  O         13.8130   -6.2190    2.2510 O.2    82  THR82      -0.2863
    121  CB        13.1860   -4.3490    4.9470 C.3    82  THR82       0.1794
    122  OG1       12.7610   -5.3990    5.8260 O.3    82  THR82      -0.2208
    123  CG2       12.0480   -4.0060    4.0350 C.3    82  THR82       0.0378
    124  N         12.1890   -9.2270    2.3730 N.3    84  ILE84      -0.1245
    125  CA        10.7720   -9.4440    2.1040 C.3    84  ILE84       0.1561
    126  C         10.4690  -10.8820    1.7130 C.2    84  ILE84       0.2260
    127  O         11.0130  -11.3820    0.7290 O.2    84  ILE84      -0.2867
    128  CB        10.2910   -8.5070    0.9920 C.3    84  ILE84       0.0252
    129  CG1       10.3360   -7.0570    1.4790 C.3    84  ILE84       0.0019
    130  CG2        8.8880   -8.8760    0.5460 C.3    84  ILE84       0.0019
    131  CD1       10.2430   -6.0680    0.3460 C.3    84  ILE84       0.0001
@<TRIPOS>BOND
     1    61    60    1
     2    61    62    1
     3    61    64    1
     4    62    63    2
     5    65    64    1
     6    65    66    1
     7    66    67    1
     8    67    68    2
     9    68    69    1
    10    68    70    1
    11    71    72    1
    12    72    73    1
    13    72    75    1
    14    74    73    2
    15    73    79   am
    16    79    80    1
    17    80    81    1
    18    77    75    1
    19    75    76    1
    20    44    42   ar
    21    52    50   ar
    22    81    82    2
    23    81    83   am
    24   102   100    1
    25    76    78    1
    26    42    41    1
    27    42    43   ar
    28    83    84    1
    29   101   100    1
    30    50    51   ar
    31    50    49    1
    32    41    38    1
    33    86    85    2
    34   100    99    1
    35    84    85    1
    36    49    46    1
    37    85    87   am
    38    99    96    1
    39    90    89    2
    40    38    39    1
    41    38    37    1
    42    96    95    1
    43    96    97    1
    44    39    45   am
    45    39    40    2
    46    45    46    1
    47    89    88    1
    48    46    47    1
    49    87    88    1
    50    37    34   am
    51    88    91    1
    52    97    98    2
    53    47    48    2
    54    59    57    1
    55    34    35    2
    56    34    33    1
    57    31    30    2
    58    91    92    1
    59    91    93    1
    60    58    57    1
    61    92    94    1
    62    33    32    1
    63    33    36    1
    64    57    54    1
    65    30    32   am
    66    30    29    1
    67    54    53    1
    68    54    55    1
    69   103   104    1
    70    29    28    1
    71    55    56    2
    72   104   107    1
    73   104   105    1
    74   107   109    1
    75   107   108    1
    76   131   129    1
    77    23    22    2
    78   130   128    1
    79   116   110    1
    80   116   115    1
    81   105   110   am
    82   105   106    2
    83   127   126    2
    84    27    25   ar
    85   128   129    1
    86   128   125    1
    87   110   111    1
    88    26    25   ar
    89    25    24    1
    90    22    21    1
    91   126   125    1
    92   115   114    1
    93    24    21    1
    94   125   124    1
    95   120   119    2
    96   111   114    1
    97   111   112    1
    98    21    20    1
    99   117   112   am
   100   117   118    1
   101   119   118    1
   102   112   113    2
   103   123   121    1
   104   118   121    1
   105    15    14    2
   106   121   122    1
   107    19    17    1
   108    14    13    1
   109    17    16    1
   110    17    18    1
   111    16    13    1
   112    12    13    1
   113    10     9    1
   114    11     9    1
   115     9     8    2
   116     8     7    1
   117     7     6    1
   118     6     5    1
   119     5     2    1
   120     2     3    1
   121     2     1    1
   122     3     4    2
