@<TRIPOS>MOLECULE
tmp/4rvzA01.pdb
 103 97 0 0 0
SMALL
GASTEIGER

@<TRIPOS>ATOM
      1  N         24.9240    4.9980   37.8240 N.3    53  ARG53      -0.1245
      2  CA        25.1610    5.5040   39.1810 C.3    53  ARG53       0.1563
      3  C         23.8850    6.0080   39.8670 C.2    53  ARG53       0.2260
      4  O         23.1260    6.7870   39.2820 O.2    53  ARG53      -0.2867
      5  CB        26.2010    6.6290   39.1450 C.3    53  ARG53       0.0307
      6  CG        26.5790    7.1880   40.5100 C.3    53  ARG53       0.0489
      7  CD        26.6380    8.7120   40.4880 C.3    53  ARG53       0.2205
      8  NE        25.3110    9.3140   40.5970 N.pl3  53  ARG53      -0.0865
      9  CZ        24.9830   10.4990   40.0920 C.cat  53  ARG53       0.5346
     10  NH1       25.8840   11.2120   39.4260 N.pl3  53  ARG53       0.1354
     11  NH2       23.7500   10.9660   40.2440 N.pl3  53  ARG53       0.1354
     12  N         15.0560   18.3380   46.1240 N.3   158  GLU158     -0.1245
     13  CA        16.2320   18.6480   45.3240 C.3   158  GLU158      0.1567
     14  C         15.8520   19.4780   44.1220 C.2   158  GLU158      0.2260
     15  O         15.0190   19.0870   43.3110 O.2   158  GLU158     -0.2867
     16  CB        16.9910   17.4020   44.8840 C.3   158  GLU158      0.0388
     17  CG        18.3750   17.7290   44.3230 C.3   158  GLU158      0.1160
     18  CD        19.2870   16.5180   44.2670 C.2   158  GLU158      0.3649
     19  OE1       18.8140   15.4240   44.6230 O.co2 158  GLU158     -0.2457
     20  OE2       20.4700   16.6550   43.8840 O.co2 158  GLU158     -0.2457
     21  N         24.0200   19.2680   52.6680 N.3   192  ASP192     -0.1225
     22  CA        24.7330   18.2960   51.8240 C.3   192  ASP192      0.1805
     23  C         24.9710   18.7240   50.3890 C.2   192  ASP192      0.2597
     24  O         24.8310   17.9240   49.4730 O.2   192  ASP192     -0.2718
     25  CB        24.0180   16.9410   51.8180 C.3   192  ASP192      0.1424
     26  CG        24.3600   16.0910   53.0290 C.2   192  ASP192      0.3668
     27  OD1       25.4120   16.3350   53.6610 O.co2 192  ASP192     -0.2456
     28  OD2       23.5770   15.1670   53.3350 O.co2 192  ASP192     -0.2456
     29  N         25.3460   19.9800   50.1970 N.am  193  ASN193     -0.1974
     30  CA        25.5890   20.5120   48.8710 C.3   193  ASN193      0.1688
     31  C         27.0370   20.9190   48.7180 C.2   193  ASN193      0.2292
     32  O         27.4250   21.5330   47.7300 O.2   193  ASN193     -0.2864
     33  CB        24.6800   21.7030   48.6440 C.3   193  ASN193      0.1181
     34  CG        23.2250   21.3150   48.6690 C.2   193  ASN193      0.2629
     35  OD1       22.8390   20.2880   48.0980 O.2   193  ASN193     -0.2716
     36  ND2       22.4030   22.1210   49.3450 N.am  193  ASN193     -0.0877
     37  N         29.7520   19.3540   46.3880 N.3   202  VAL202     -0.1231
     38  CA        29.1900   18.0200   46.3150 C.3   202  VAL202      0.1692
     39  C         28.0510   17.9020   45.2950 C.2   202  VAL202      0.2592
     40  O         27.8600   16.8540   44.6820 O.2   202  VAL202     -0.2718
     41  CB        28.7540   17.5810   47.7440 C.3   202  VAL202      0.0266
     42  CG1       27.7870   16.4230   47.7110 C.3   202  VAL202      0.0020
     43  CG2       29.9800   17.2450   48.5780 C.3   202  VAL202      0.0020
     44  N         27.3230   18.9950   45.0940 N.am  203  CYS203     -0.1970
     45  CA        26.0890   18.9590   44.3170 C.3   203  CYS203      0.1712
     46  C         26.3070   19.0290   42.7890 C.2   203  CYS203      0.2296
     47  O         25.3980   19.3490   42.0260 O.2   203  CYS203     -0.2864
     48  CB        25.1440   20.0640   44.7990 C.3   203  CYS203      0.0983
     49  SG        25.9350   21.6600   45.0210 S.3   203  CYS203     -0.0798
     50  N         22.3560   19.6560   41.3260 N.3   214  GLY214     -0.1225
     51  CA        21.1530   19.2670   42.0360 C.3   214  GLY214      0.1811
     52  C         21.2990   19.6370   43.5070 C.2   214  GLY214      0.2280
     53  O         22.0480   19.0020   44.2510 O.2   214  GLY214     -0.2866
     54  N         20.0670   20.0330   47.3370 N.3   216  ARG216     -0.1245
     55  CA        19.1380   19.4890   48.3350 C.3   216  ARG216      0.1563
     56  C         18.8060   20.4380   49.4990 C.2   216  ARG216      0.2260
     57  O         19.6600   21.1850   49.9930 O.2   216  ARG216     -0.2867
     58  CB        19.6540   18.1700   48.8980 C.3   216  ARG216      0.0307
     59  CG        19.3270   16.9600   48.0800 C.3   216  ARG216      0.0489
     60  CD        20.6090   16.2270   47.7400 C.3   216  ARG216      0.2205
     61  NE        20.3710   14.8440   47.3490 N.pl3 216  ARG216     -0.0865
     62  CZ        21.3350   13.9470   47.1950 C.cat 216  ARG216      0.5346
     63  NH1       22.5990   14.2950   47.3900 N.pl3 216  ARG216      0.1354
     64  NH2       21.0380   12.7040   46.8470 N.pl3 216  ARG216      0.1354
     65  N         30.1600   14.5750   53.8460 N.3   397  PRO397     -0.2102
     66  CA        29.1280   14.7090   52.8070 C.3   397  PRO397      0.1504
     67  C         29.5510   14.2200   51.4070 C.2   397  PRO397      0.2576
     68  O         28.7110   13.7240   50.6640 O.2   397  PRO397     -0.2718
     69  CB        28.8190   16.2130   52.8070 C.3   397  PRO397      0.0282
     70  CG        29.2560   16.6950   54.1410 C.3   397  PRO397      0.0208
     71  CD        30.4440   15.8590   54.5060 C.3   397  PRO397      0.0893
     72  N         30.8300   14.3170   51.0650 N.am  398  SER398     -0.1938
     73  CA        31.2780   13.8310   49.7630 C.3   398  SER398      0.2055
     74  C         31.3020   12.3060   49.6820 C.2   398  SER398      0.2643
     75  O         31.6350   11.7340   48.6390 O.2   398  SER398     -0.2714
     76  CB        32.6470   14.4100   49.3930 C.3   398  SER398      0.2130
     77  OG        33.6160   14.1080   50.3800 O.3   398  SER398     -0.2179
     78  N         30.9420   11.6530   50.7820 N.am  399  ALA399     -0.1963
     79  CA        30.8670   10.2040   50.8180 C.3   399  ALA399      0.1728
     80  C         29.4640    9.7520   51.1630 C.2   399  ALA399      0.2616
     81  O         29.2300    8.5650   51.3720 O.2   399  ALA399     -0.2715
     82  CB        31.8530    9.6470   51.8150 C.3   399  ALA399      0.0334
     83  N         28.5390   10.7060   51.2320 N.am  400  ARG400     -0.1977
     84  CA        27.1450   10.4250   51.5810 C.3   400  ARG400      0.1597
     85  C         26.4150    9.7150   50.4430 C.2   400  ARG400      0.2287
     86  O         26.4570   10.1690   49.2860 O.2   400  ARG400     -0.2864
     87  CB        26.4090   11.7250   51.9450 C.3   400  ARG400      0.0334
     88  CG        24.9570   11.5500   52.3860 C.3   400  ARG400      0.0492
     89  CD        24.7120   12.1870   53.7530 C.3   400  ARG400      0.2205
     90  NE        25.7630   11.8070   54.6980 N.pl3 400  ARG400     -0.0865
     91  CZ        26.5860   12.6570   55.3050 C.cat 400  ARG400      0.5346
     92  NH1       26.4820   13.9650   55.1100 N.pl3 400  ARG400      0.1354
     93  NH2       27.5140   12.1900   56.1170 N.pl3 400  ARG400      0.1354
     94  N         22.9020    8.5320   48.5800 N.3   402  HIS402     -0.1241
     95  CA        21.6380    9.2290   48.3510 C.3   402  HIS402      0.1621
     96  C         20.5870    9.0590   49.4650 C.2   402  HIS402      0.2264
     97  O         19.9470   10.0270   49.8640 O.2   402  HIS402     -0.2867
     98  CB        21.0630    8.8280   46.9900 C.3   402  HIS402      0.0745
     99  CG        22.0380    8.9650   45.8610 C.ar  402  HIS402      0.0817
    100  ND1       22.2150   10.1430   45.1650 N.ar  402  HIS402     -0.2268
    101  CD2       22.8950    8.0720   45.3110 C.ar  402  HIS402      0.1154
    102  CE1       23.1340    9.9670   44.2330 C.ar  402  HIS402      0.1986
    103  NE2       23.5620    8.7200   44.2980 N.ar  402  HIS402     -0.2212
@<TRIPOS>BOND
     1     1     2    1
     2     5     2    1
     3     5     6    1
     4     2     3    1
     5     4     3    2
     6    10     9    1
     7     9    11    1
     8     9     8    2
     9     7     6    1
    10     7     8    1
    11    50    51    1
    12    47    46    2
    13    51    52    1
    14    46    45    1
    15    15    14    2
    16    52    53    2
    17    20    18   ar
    18    14    13    1
    19   102   103   ar
    20   102   100   ar
    21    18    17    1
    22    18    19   ar
    23   103   101   ar
    24    45    48    1
    25    45    44    1
    26    17    16    1
    27    40    39    2
    28    48    49    1
    29    16    13    1
    30    44    39   am
    31   100    99   ar
    32    39    38    1
    33   101    99   ar
    34    13    12    1
    35    99    98    1
    36    38    37    1
    37    38    41    1
    38    64    62    1
    39    98    95    1
    40    62    61    2
    41    62    63    1
    42    54    55    1
    43    61    60    1
    44    42    41    1
    45    32    31    2
    46    60    59    1
    47    41    43    1
    48    59    58    1
    49    35    34    2
    50    55    58    1
    51    55    56    1
    52    95    94    1
    53    95    96    1
    54    75    74    2
    55    33    34    1
    56    33    30    1
    57    34    36   am
    58    31    30    1
    59    30    29    1
    60    86    85    2
    61    76    73    1
    62    76    77    1
    63    96    97    2
    64    24    23    2
    65    56    57    2
    66    74    73    1
    67    74    78   am
    68    73    72    1
    69    29    23   am
    70    23    22    1
    71    85    84    1
    72    68    67    2
    73    78    79    1
    74    79    80    1
    75    79    82    1
    76    72    67   am
    77    80    83   am
    78    80    81    2
    79    83    84    1
    80    67    66    1
    81    84    87    1
    82    25    22    1
    83    25    26    1
    84    22    21    1
    85    87    88    1
    86    88    89    1
    87    69    66    1
    88    69    70    1
    89    66    65    1
    90    26    28   ar
    91    26    27   ar
    92    89    90    1
    93    65    71    1
    94    70    71    1
    95    90    91    2
    96    92    91    1
    97    91    93    1
