@<TRIPOS>MOLECULE
tmp/4rw3A02.pdb
 136 125 0 0 0
SMALL
GASTEIGER

@<TRIPOS>ATOM
      1  N          7.6310    8.1230    9.7060 N.3    11  HIS11      -0.1241
      2  CA         7.2160    7.1750    8.6810 C.3    11  HIS11       0.1621
      3  C          7.8580    7.4590    7.3260 C.2    11  HIS11       0.2264
      4  O          7.9030    8.5970    6.8800 O.2    11  HIS11      -0.2867
      5  CB         5.6970    7.2030    8.5770 C.3    11  HIS11       0.0745
      6  CG         5.1280    6.3000    7.5250 C.ar   11  HIS11       0.0817
      7  ND1        4.3200    6.7670    6.5090 N.ar   11  HIS11      -0.2268
      8  CD2        5.2550    4.9700    7.3230 C.ar   11  HIS11       0.1154
      9  CE1        3.9560    5.7570    5.7390 C.ar   11  HIS11       0.1986
     10  NE2        4.5080    4.6560    6.2140 N.ar   11  HIS11      -0.2212
     11  N         11.3170    4.9140   10.3980 N.3    31  GLU31      -0.1245
     12  CA        11.0010    3.7310    9.6290 C.3    31  GLU31       0.1567
     13  C         11.4250    3.9910    8.1790 C.2    31  GLU31       0.2260
     14  O         11.1680    5.0680    7.6090 O.2    31  GLU31      -0.2867
     15  CB         9.5120    3.4210    9.7410 C.3    31  GLU31       0.0388
     16  CG         9.0900    2.1550    9.0060 C.3    31  GLU31       0.1160
     17  CD         8.5160    2.4490    7.6440 C.2    31  GLU31       0.3649
     18  OE1        8.2290    3.6290    7.3600 O.co2  31  GLU31      -0.2457
     19  OE2        8.3580    1.5070    6.8370 O.co2  31  GLU31      -0.2457
     20  N         11.9710    2.0120    4.2200 N.3    33  ASP33      -0.1239
     21  CA        11.6200    0.8770    3.3610 C.3    33  ASP33       0.1674
     22  C         12.8450    0.3460    2.6650 C.2    33  ASP33       0.2266
     23  O         13.7380    1.1180    2.3170 O.2    33  ASP33      -0.2867
     24  CB        10.5710    1.3250    2.3590 C.3    33  ASP33       0.1410
     25  CG         9.3870    1.9240    3.0530 C.2    33  ASP33       0.3668
     26  OD1        8.7080    1.1600    3.7560 O.co2  33  ASP33      -0.2456
     27  OD2        9.1760    3.1550    2.9750 O.co2  33  ASP33      -0.2456
     28  N          9.9490    3.2390   -1.4680 N.3    47  HIS47      -0.1241
     29  CA         8.5910    2.7650   -1.2040 C.3    47  HIS47       0.1621
     30  C          7.8250    2.6080   -2.5330 C.2    47  HIS47       0.2264
     31  O          7.3450    1.5280   -2.8690 O.2    47  HIS47      -0.2867
     32  CB         7.8630    3.7500   -0.2740 C.3    47  HIS47       0.0745
     33  CG         6.5680    3.2270    0.2790 C.ar   47  HIS47       0.0817
     34  ND1        5.4390    3.0470   -0.4970 N.ar   47  HIS47      -0.2268
     35  CD2        6.2140    2.8750    1.5410 C.ar   47  HIS47       0.1154
     36  CE1        4.4560    2.5820    0.2550 C.ar   47  HIS47       0.1986
     37  NE2        4.8950    2.4840    1.4990 N.ar   47  HIS47      -0.2212
     38  N          1.3060    6.4670    1.6470 N.3    52  ASP52      -0.1239
     39  CA         0.4760    7.2870    2.5190 C.3    52  ASP52       0.1674
     40  C          0.0630    8.6190    1.9000 C.2    52  ASP52       0.2266
     41  O          0.8280    9.2440    1.1520 O.2    52  ASP52      -0.2867
     42  CB         1.1830    7.5440    3.8490 C.3    52  ASP52       0.1410
     43  CG         0.7440    6.5900    4.9410 C.2    52  ASP52       0.3668
     44  OD1        0.1970    5.5140    4.6350 O.co2  52  ASP52      -0.2456
     45  OD2        0.9320    6.9330    6.1250 O.co2  52  ASP52      -0.2456
     46  N         13.4640    1.1520   12.2680 N.3    89  VAL89      -0.1245
     47  CA        12.6740    0.0250   11.7920 C.3    89  VAL89       0.1561
     48  C         12.9120   -0.0730   10.2750 C.2    89  VAL89       0.2260
     49  O         12.6030    0.8550    9.5180 O.2    89  VAL89      -0.2867
     50  CB        11.1780    0.2750   12.0620 C.3    89  VAL89       0.0252
     51  CG1       10.2940   -0.8420   11.4910 C.3    89  VAL89       0.0019
     52  CG2       10.9400    0.4570   13.5610 C.3    89  VAL89       0.0019
     53  N         11.6360   -1.6840    7.0720 N.3    91  ASP91      -0.1239
     54  CA        10.4380   -2.2840    6.4990 C.3    91  ASP91       0.1674
     55  C         10.9180   -3.0370    5.2750 C.2    91  ASP91       0.2266
     56  O         11.1390   -2.4440    4.2050 O.2    91  ASP91      -0.2867
     57  CB         9.4540   -1.1820    6.1060 C.3    91  ASP91       0.1410
     58  CG         8.1510   -1.7050    5.5500 C.2    91  ASP91       0.3668
     59  OD1        7.9980   -2.9360    5.3700 O.co2  91  ASP91      -0.2456
     60  OD2        7.2730   -0.8560    5.2720 O.co2  91  ASP91      -0.2456
     61  N         10.7640   -4.9950    2.2420 N.3    93  LYS93      -0.1245
     62  CA         9.7420   -5.2050    1.2340 C.3    93  LYS93       0.1561
     63  C         10.0630   -6.5090    0.5090 C.2    93  LYS93       0.2260
     64  O         10.5280   -6.5150   -0.6210 O.2    93  LYS93      -0.2867
     65  CB         9.6910   -3.9920    0.2890 C.3    93  LYS93       0.0271
     66  CG         9.3610   -2.6650    0.9900 C.3    93  LYS93       0.0035
     67  CD         7.8880   -2.6330    1.4080 C.3    93  LYS93       0.0206
     68  CE         7.4840   -1.3160    2.0820 C.3    93  LYS93       0.1093
     69  NZ         6.0570   -1.3700    2.5200 N.3    93  LYS93      -0.1314
     70  N         11.6190   -5.5100   10.3020 N.3   132  SER132     -0.1217
     71  CA        10.1710   -5.6900   10.1540 C.3   132  SER132      0.1889
     72  C          9.8430   -6.4790    8.8620 C.2   132  SER132      0.2288
     73  O         10.1440   -6.0430    7.7450 O.2   132  SER132     -0.2866
     74  CB         9.4720   -4.3350   10.1900 C.3   132  SER132      0.2089
     75  OG         8.0640   -4.4810   10.0500 O.3   132  SER132     -0.2183
     76  N          9.7290   -7.6140   14.0270 N.3   164  ASP164     -0.1239
     77  CA         8.3350   -7.2140   13.8220 C.3   164  ASP164      0.1674
     78  C          7.7800   -8.0100   12.6410 C.2   164  ASP164      0.2266
     79  O          8.4590   -8.1990   11.6190 O.2   164  ASP164     -0.2867
     80  CB         8.2220   -5.7080   13.5600 C.3   164  ASP164      0.1410
     81  CG         6.7950   -5.2550   13.2210 C.2   164  ASP164      0.3668
     82  OD1        5.8140   -5.7690   13.8140 O.co2 164  ASP164     -0.2456
     83  OD2        6.6530   -4.3600   12.3620 O.co2 164  ASP164     -0.2456
     84  N          4.7180   -7.3530   10.2420 N.3   166  SER166     -0.1217
     85  CA         3.8720   -6.1650   10.0090 C.3   166  SER166      0.1889
     86  C          2.5760   -6.4010    9.2470 C.2   166  SER166      0.2288
     87  O          1.8490   -5.4340    8.9430 O.2   166  SER166     -0.2866
     88  CB         4.6800   -5.0930    9.2780 C.3   166  SER166      0.2089
     89  OG         5.0870   -5.5900    8.0100 O.3   166  SER166     -0.2183
     90  N          3.5610   -4.4860   15.4510 N.3   190  SER190     -0.1217
     91  CA         2.8980   -3.4660   14.6670 C.3   190  SER190      0.1889
     92  C          1.4180   -3.7860   14.5470 C.2   190  SER190      0.2288
     93  O          1.0150   -4.9550   14.5230 O.2   190  SER190     -0.2866
     94  CB         3.4730   -3.4620   13.2590 C.3   190  SER190      0.2089
     95  OG         3.4330   -4.7800   12.7260 O.3   190  SER190     -0.2183
     96  N         -2.7390    2.3130    6.4470 N.3   194  THR194     -0.1218
     97  CA        -2.3660    3.5840    5.8450 C.3   194  THR194      0.1862
     98  C         -3.1680    4.7480    6.4490 C.2   194  THR194      0.2287
     99  O         -4.3170    4.5700    6.8680 O.2   194  THR194     -0.2866
    100  CB        -2.5730    3.5590    4.3170 C.3   194  THR194      0.1770
    101  OG1       -2.2720    4.8510    3.7830 O.3   194  THR194     -0.2211
    102  CG2       -4.0310    3.1480    3.9450 C.3   194  THR194      0.0375
    103  N          3.3680   -1.0120   18.6030 N.3   222  TYR222     -0.1241
    104  CA         3.2690    0.2730   17.9290 C.3   222  TYR222      0.1605
    105  C          2.1290    0.3080   16.9390 C.2   222  TYR222      0.2264
    106  O          1.7700   -0.7140   16.3590 O.2   222  TYR222     -0.2867
    107  CB         4.6110    0.6720   17.2960 C.3   222  TYR222      0.0534
    108  CG         4.9840    0.0050   15.9830 C.ar  222  TYR222     -0.0201
    109  CD1        5.7440   -1.1590   15.9630 C.ar  222  TYR222     -0.0009
    110  CD2        4.6160    0.5820   14.7610 C.ar  222  TYR222     -0.0009
    111  CE1        6.1280   -1.7370   14.7630 C.ar  222  TYR222      0.0417
    112  CE2        4.9890    0.0040   13.5510 C.ar  222  TYR222      0.0417
    113  CZ         5.7490   -1.1420   13.5670 C.ar  222  TYR222      0.1957
    114  OH         6.1060   -1.7060   12.3690 O.3   222  TYR222     -0.2866
    115  N          0.2820    2.3780   13.6330 N.3   224  TRP224     -0.1241
    116  CA         0.6490    3.1370   12.4250 C.3   224  TRP224      0.1605
    117  C         -0.5690    3.2790   11.4880 C.2   224  TRP224      0.2264
    118  O         -1.5230    2.5280   11.6290 O.2   224  TRP224     -0.2867
    119  CB         1.7940    2.4080   11.6850 C.3   224  TRP224      0.0550
    120  CG         1.4150    1.0440   11.1390 C.ar  224  TRP224      0.0003
    121  CD1        1.5330   -0.1530   11.7710 C.ar  224  TRP224      0.0946
    122  CD2        0.8680    0.7650    9.8400 C.ar  224  TRP224      0.0152
    123  NE1        1.0810   -1.1690   10.9550 N.ar  224  TRP224     -0.2442
    124  CE2        0.6700   -0.6360    9.7640 C.ar  224  TRP224      0.0810
    125  CE3        0.5580    1.5610    8.7220 C.ar  224  TRP224      0.0012
    126  CZ2        0.1500   -1.2690    8.6120 C.ar  224  TRP224      0.0191
    127  CZ3        0.0480    0.9360    7.5710 C.ar  224  TRP224      0.0001
    128  CH2       -0.1430   -0.4740    7.5290 C.ar  224  TRP224      0.0015
    129  N          3.7980    5.4400   14.9520 N.3   244  MET244     -0.1245
    130  CA         4.3840    5.7400   13.6580 C.3   244  MET244      0.1570
    131  C          3.5380    6.7920   12.9600 C.2   244  MET244      0.2261
    132  O          2.3140    6.6570   12.8780 O.2   244  MET244     -0.2867
    133  CB         4.4760    4.4580   12.8190 C.3   244  MET244      0.0387
    134  CG         5.1530    4.6350   11.4690 C.3   244  MET244      0.0595
    135  SD         5.5200    3.0230   10.7420 S.3   244  MET244     -0.1393
    136  CE         6.7800    2.4220   11.8650 C.3   244  MET244      0.0692
@<TRIPOS>BOND
     1    31    30    2
     2    30    29    1
     3    28    29    1
     4    29    32    1
     5    64    63    2
     6    34    36   ar
     7    34    33   ar
     8    32    33    1
     9    36    37   ar
    10    33    35   ar
    11    65    66    1
    12    65    62    1
    13    63    62    1
    14    66    67    1
    15    41    40    2
    16    62    61    1
    17    67    68    1
    18    37    35   ar
    19    38    39    1
    20    40    39    1
    21    68    69    1
    22    23    22    2
    23    24    25    1
    24    24    21    1
    25    39    42    1
    26    22    21    1
    27    27    25   ar
    28    25    26   ar
    29    21    20    1
    30   101   100    1
    31    42    43    1
    32   102   100    1
    33    56    55    2
    34   100    97    1
    35    44    43   ar
    36    43    45   ar
    37    60    58   ar
    38    55    54    1
    39    59    58   ar
    40    58    57    1
    41     9    10   ar
    42     9     7   ar
    43    97    96    1
    44    97    98    1
    45    57    54    1
    46    10     8   ar
    47    98    99    2
    48    54    53    1
    49     7     6   ar
    50    19    17   ar
    51     4     3    2
    52     8     6   ar
    53     3     2    1
    54    18    17   ar
    55     6     5    1
    56   128   127   ar
    57   128   126   ar
    58   127   125   ar
    59    14    13    2
    60    17    16    1
    61    73    72    2
    62    89    88    1
    63    13    12    1
    64     5     2    1
    65   126   124   ar
    66     2     1    1
    67   125   122   ar
    68    72    71    1
    69    87    86    2
    70    16    15    1
    71    86    85    1
    72    88    85    1
    73    49    48    2
    74    12    15    1
    75    12    11    1
    76   124   122   ar
    77   124   123   ar
    78   122   120   ar
    79    85    84    1
    80    75    74    1
    81    71    74    1
    82    71    70    1
    83    48    47    1
    84   135   134    1
    85   135   136    1
    86   123   121   ar
    87   120   119    1
    88   120   121   ar
    89   134   133    1
    90   117   118    2
    91   117   116    1
    92    51    50    1
    93    79    78    2
    94   119   116    1
    95    47    50    1
    96    47    46    1
    97    50    52    1
    98    83    81   ar
    99   114   113    1
   100   116   115    1
   101    78    77    1
   102    95    94    1
   103   133   130    1
   104   132   131    2
   105   131   130    1
   106    81    80    1
   107    81    82   ar
   108    94    91    1
   109   112   113   ar
   110   112   110   ar
   111    80    77    1
   112   113   111   ar
   113   130   129    1
   114    77    76    1
   115    93    92    2
   116    92    91    1
   117    91    90    1
   118   110   108   ar
   119   111   109   ar
   120   109   108   ar
   121   108   107    1
   122   106   105    2
   123   105   104    1
   124   107   104    1
   125   104   103    1
