@<TRIPOS>MOLECULE
tmp/4rw3A03.pdb
 88 84 0 0 0
SMALL
GASTEIGER

@<TRIPOS>ATOM
      1  N         -2.0830  -14.9140   17.4810 N.3   172  GLY172     -0.1225
      2  CA        -1.7100  -16.3160   17.7010 C.3   172  GLY172      0.1811
      3  C         -0.8410  -16.8620   16.5760 C.2   172  GLY172      0.2280
      4  O          0.1260  -17.5840   16.8330 O.2   172  GLY172     -0.2866
      5  N          2.6320  -15.4230   16.9400 N.3   175  GLY175     -0.1210
      6  CA         3.3670  -16.1360   17.9780 C.3   175  GLY175      0.1956
      7  C          3.9420  -17.4550   17.4890 C.2   175  GLY175      0.2611
      8  O          5.0860  -17.8020   17.8050 O.2   175  GLY175     -0.2717
      9  N          3.1460  -18.1900   16.7200 N.am  176  LYS176     -0.1979
     10  CA         3.6020  -19.4440   16.1330 C.3   176  LYS176      0.1596
     11  C          4.7750  -19.2090   15.1850 C.2   176  LYS176      0.2287
     12  O          5.6640  -20.0580   15.0800 O.2   176  LYS176     -0.2864
     13  CB         2.4620  -20.1330   15.3830 C.3   176  LYS176      0.0298
     14  CG         1.3830  -20.7150   16.2790 C.3   176  LYS176      0.0038
     15  CD         0.2260  -21.2470   15.4370 C.3   176  LYS176      0.0206
     16  CE        -1.0190  -21.5140   16.2680 C.3   176  LYS176      0.1093
     17  NZ        -0.7610  -22.4890   17.3620 N.3   176  LYS176     -0.1314
     18  N          7.1110  -16.8750   15.4260 N.3   178  TYR178     -0.1227
     19  CA         8.2730  -16.6750   16.2890 C.3   178  TYR178      0.1736
     20  C          8.7440  -17.9830   16.9010 C.2   178  TYR178      0.2595
     21  O          9.9540  -18.2200   17.0040 O.2   178  TYR178     -0.2718
     22  CB         7.9630  -15.6460   17.3800 C.3   178  TYR178      0.0548
     23  CG         7.9820  -14.2090   16.8770 C.ar  178  TYR178     -0.0200
     24  CD1        9.1330  -13.6730   16.2700 C.ar  178  TYR178     -0.0009
     25  CD2        6.8670  -13.3870   17.0230 C.ar  178  TYR178     -0.0009
     26  CE1        9.1550  -12.3620   15.8090 C.ar  178  TYR178      0.0417
     27  CE2        6.8770  -12.0660   16.5760 C.ar  178  TYR178      0.0417
     28  CZ         8.0210  -11.5580   15.9740 C.ar  178  TYR178      0.1957
     29  OH         8.0520  -10.2540   15.5190 O.3   178  TYR178     -0.2866
     30  N          7.7840  -18.8360   17.2760 N.am  179  LYS179     -0.1980
     31  CA         8.0940  -20.1790   17.7980 C.3   179  LYS179      0.1596
     32  C          8.8880  -21.0010   16.7730 C.2   179  LYS179      0.2287
     33  O          9.9110  -21.6100   17.1140 O.2   179  LYS179     -0.2864
     34  CB         6.8020  -20.9070   18.2010 C.3   179  LYS179      0.0298
     35  CG         7.0850  -21.9660   19.2740 C.3   179  LYS179      0.0038
     36  CD         5.8830  -22.0770   20.2060 C.3   179  LYS179      0.0206
     37  CE         5.3780  -23.5050   20.4020 C.3   179  LYS179      0.1093
     38  NZ         4.0920  -23.6270   21.1650 N.3   179  LYS179     -0.1314
     39  N         12.5880  -17.5460   18.1640 N.3   183  ILE183     -0.1231
     40  CA        12.7950  -16.1980   18.6970 C.3   183  ILE183      0.1692
     41  C         11.9980  -16.0860   19.9740 C.2   183  ILE183      0.2593
     42  O         10.8060  -16.4390   20.0070 O.2   183  ILE183     -0.2718
     43  CB        12.3190  -15.1110   17.6900 C.3   183  ILE183      0.0266
     44  CG1       13.2050  -15.0950   16.4280 C.3   183  ILE183      0.0019
     45  CG2       12.2190  -13.7330   18.3450 C.3   183  ILE183      0.0020
     46  CD1       14.6140  -14.5830   16.6510 C.3   183  ILE183      0.0001
     47  N         12.6570  -15.5760   21.0190 N.am  184  THR184     -0.1939
     48  CA        12.0790  -15.5360   22.3510 C.3   184  THR184      0.2028
     49  C         12.2840  -14.2220   23.0930 C.2   184  THR184      0.2642
     50  O         12.4240  -14.2230   24.3130 O.2   184  THR184     -0.2714
     51  CB        12.6740  -16.6500   23.2200 C.3   184  THR184      0.1808
     52  OG1       14.0970  -16.4810   23.2920 O.3   184  THR184     -0.2208
     53  CG2       12.3480  -18.0280   22.6420 C.3   184  THR184      0.0379
     54  N         12.2910  -13.1090   22.3650 N.am  185  GLY185     -0.1954
     55  CA        12.4370  -11.7820   22.9430 C.3   185  GLY185      0.1869
     56  C         12.7570  -10.7730   21.8390 C.2   185  GLY185      0.2309
     57  O         12.9120  -11.1490   20.6770 O.2   185  GLY185     -0.2863
     58  N         10.7570   -8.4910   20.7150 N.3   187  ILE187     -0.1245
     59  CA         9.6170   -8.5220   19.7970 C.3   187  ILE187      0.1561
     60  C          8.7740   -7.2490   19.8690 C.2   187  ILE187      0.2260
     61  O          8.2220   -6.9400   20.9250 O.2   187  ILE187     -0.2867
     62  CB         8.7430   -9.7980   20.0240 C.3   187  ILE187      0.0252
     63  CG1        9.4740  -11.0590   19.5210 C.3   187  ILE187      0.0019
     64  CG2        7.4250   -9.6760   19.2700 C.3   187  ILE187      0.0019
     65  CD1        8.8850  -12.3860   20.0050 C.3   187  ILE187      0.0001
     66  N          2.2820  -14.5290   30.3840 N.3   215  ASN215     -0.1225
     67  CA         2.9890  -15.3880   29.4400 C.3   215  ASN215      0.1785
     68  C          2.8500  -14.9750   27.9670 C.2   215  ASN215      0.2598
     69  O          2.9140  -15.8170   27.0850 O.2   215  ASN215     -0.2718
     70  CB         2.6320  -16.8680   29.6550 C.3   215  ASN215      0.1169
     71  CG         1.1410  -17.1430   29.5390 C.2   215  ASN215      0.2627
     72  OD1        0.4660  -16.6550   28.6250 O.2   215  ASN215     -0.2716
     73  ND2        0.6200  -17.9460   30.4650 N.am  215  ASN215     -0.0877
     74  N          2.6530  -13.6820   27.7170 N.am  216  GLY216     -0.1942
     75  CA         2.6090  -13.1660   26.3520 C.3   216  GLY216      0.2014
     76  C          4.0090  -13.1050   25.7530 C.2   216  GLY216      0.2638
     77  O          5.0080  -13.2530   26.4670 O.2   216  GLY216     -0.2714
     78  N          4.0830  -12.8770   24.4450 N.am  217  PHE217     -0.1973
     79  CA         5.3580  -12.9140   23.7270 C.3   217  PHE217      0.1639
     80  C          5.7980  -11.5430   23.1980 C.2   217  PHE217      0.2290
     81  O          6.9610  -11.3640   22.8120 O.2   217  PHE217     -0.2864
     82  CB         5.3200  -13.9490   22.5960 C.3   217  PHE217      0.0560
     83  CG         4.4000  -13.5960   21.4610 C.ar  217  PHE217     -0.0200
     84  CD1        4.8530  -12.8350   20.3820 C.ar  217  PHE217     -0.0042
     85  CD2        3.0840  -14.0280   21.4610 C.ar  217  PHE217     -0.0042
     86  CE1        4.0090  -12.5140   19.3320 C.ar  217  PHE217     -0.0003
     87  CE2        2.2300  -13.7080   20.4120 C.ar  217  PHE217     -0.0003
     88  CZ         2.6850  -12.9470   19.3470 C.ar  217  PHE217     -0.0000
@<TRIPOS>BOND
     1    12    11    2
     2    11    10    1
     3    13    10    1
     4    13    14    1
     5    18    19    1
     6    15    16    1
     7    15    14    1
     8    29    28    1
     9    26    28   ar
    10    26    24   ar
    11    28    27   ar
    12    10     9    1
    13    16    17    1
    14    24    23   ar
    15    19    20    1
    16    19    22    1
    17    44    46    1
    18    44    43    1
    19    27    25   ar
    20     3     4    2
    21     3     2    1
    22     9     7   am
    23    32    33    2
    24    32    31    1
    25    23    25   ar
    26    23    22    1
    27    20    21    2
    28    20    30   am
    29     5     6    1
    30    30    31    1
    31     1     2    1
    32     7     8    2
    33     7     6    1
    34    43    45    1
    35    43    40    1
    36    31    34    1
    37    39    40    1
    38    34    35    1
    39    40    41    1
    40    64    62    1
    41    35    36    1
    42    86    88   ar
    43    86    84   ar
    44    88    87   ar
    45    63    65    1
    46    63    62    1
    47    59    60    1
    48    59    62    1
    49    59    58    1
    50    60    61    2
    51    41    42    2
    52    41    47   am
    53    36    37    1
    54    84    83   ar
    55    37    38    1
    56    87    85   ar
    57    57    56    2
    58    47    48    1
    59    83    85   ar
    60    83    82    1
    61    56    55    1
    62    48    49    1
    63    48    51    1
    64    54    55    1
    65    54    49   am
    66    82    79    1
    67    53    51    1
    68    81    80    2
    69    49    50    2
    70    80    79    1
    71    51    52    1
    72    79    78    1
    73    78    76   am
    74    76    75    1
    75    76    77    2
    76    75    74    1
    77    69    68    2
    78    74    68   am
    79    68    67    1
    80    72    71    2
    81    67    70    1
    82    67    66    1
    83    71    70    1
    84    71    73   am
