@<TRIPOS>MOLECULE
tmp/4rw5A02.pdb
 139 128 0 0 0
SMALL
GASTEIGER

@<TRIPOS>ATOM
      1  N          7.5810    8.2720    9.6420 N.3    11  ALA11      -0.1231
      2  CA         7.2700    7.3230    8.6330 C.3    11  ALA11       0.1694
      3  C          7.9620    7.5620    7.2940 C.2    11  ALA11       0.2591
      4  O          8.1160    8.6830    6.8430 O.2    11  ALA11      -0.2718
      5  CB         5.7770    7.3670    8.3710 C.3    11  ALA11       0.0304
      6  N          8.3160    6.4550    6.6150 N.am   12  MET12      -0.1979
      7  CA         8.7740    6.5320    5.2000 C.3    12  MET12       0.1605
      8  C          9.9170    7.4830    5.0550 C.2    12  MET12       0.2287
      9  O          9.9110    8.4360    4.2340 O.2    12  MET12      -0.2864
     10  CB         7.5780    6.7490    4.1900 C.3    12  MET12       0.0413
     11  CG         8.0520    6.3850    2.7930 C.3    12  MET12       0.0598
     12  SD         6.6820    6.7400    1.6450 S.3    12  MET12      -0.1393
     13  CE         6.4700    8.4710    1.9190 C.3    12  MET12       0.0692
     14  N         11.0960    4.9440   10.4090 N.3    31  GLU31      -0.1245
     15  CA        10.8500    3.7280    9.6450 C.3    31  GLU31       0.1567
     16  C         11.2980    3.9830    8.2000 C.2    31  GLU31       0.2260
     17  O         11.0620    5.0990    7.6380 O.2    31  GLU31      -0.2867
     18  CB         9.3280    3.5050    9.6060 C.3    31  GLU31       0.0388
     19  CG         8.9690    2.2130    8.9120 C.3    31  GLU31       0.1160
     20  CD         8.3010    2.4720    7.5330 C.2    31  GLU31       0.3649
     21  OE1        8.1400    3.6240    7.1300 O.co2  31  GLU31      -0.2457
     22  OE2        7.9520    1.4870    6.8070 O.co2  31  GLU31      -0.2457
     23  N         11.7630    2.0680    4.1840 N.3    33  ASP33      -0.1239
     24  CA        11.3970    0.9320    3.3260 C.3    33  ASP33       0.1674
     25  C         12.6110    0.4160    2.6040 C.2    33  ASP33       0.2266
     26  O         13.4390    1.2380    2.1960 O.2    33  ASP33      -0.2867
     27  CB        10.3650    1.4220    2.3120 C.3    33  ASP33       0.1410
     28  CG         9.1640    1.9640    3.0270 C.2    33  ASP33       0.3668
     29  OD1        8.5050    1.1630    3.7740 O.co2  33  ASP33      -0.2456
     30  OD2        8.8420    3.1830    2.8900 O.co2  33  ASP33      -0.2456
     31  N          9.8720    3.3220   -1.5690 N.3    47  HIS47      -0.1241
     32  CA         8.5340    2.7830   -1.4030 C.3    47  HIS47       0.1621
     33  C          7.8260    2.7170   -2.7530 C.2    47  HIS47       0.2264
     34  O          7.3150    1.6740   -3.1550 O.2    47  HIS47      -0.2867
     35  CB         7.7500    3.6770   -0.4260 C.3    47  HIS47       0.0745
     36  CG         6.4010    3.1130   -0.0530 C.ar   47  HIS47       0.0817
     37  ND1        5.2870    3.2430   -0.8650 N.ar   47  HIS47      -0.2268
     38  CD2        5.9800    2.4600    1.0590 C.ar   47  HIS47       0.1154
     39  CE1        4.2580    2.6080   -0.2970 C.ar   47  HIS47       0.1986
     40  NE2        4.6480    2.1590    0.8930 N.ar   47  HIS47      -0.2212
     41  N          1.3580    7.0110    1.5460 N.3    52  ASP52      -0.1239
     42  CA         0.4860    7.8160    2.4080 C.3    52  ASP52       0.1674
     43  C          0.1030    9.1420    1.7740 C.2    52  ASP52       0.2266
     44  O          0.9100    9.7860    1.1220 O.2    52  ASP52      -0.2867
     45  CB         1.1540    8.1770    3.7670 C.3    52  ASP52       0.1410
     46  CG         0.8710    7.1530    4.8680 C.2    52  ASP52       0.3668
     47  OD1        0.4420    6.0500    4.5240 O.co2  52  ASP52      -0.2456
     48  OD2        1.1540    7.4710    6.0450 O.co2  52  ASP52      -0.2456
     49  N         13.2500    1.1990   12.2710 N.3    89  VAL89      -0.1245
     50  CA        12.5060    0.0170   11.7740 C.3    89  VAL89       0.1561
     51  C         12.7570   -0.0270   10.2510 C.2    89  VAL89       0.2260
     52  O         12.4830    0.9350    9.4860 O.2    89  VAL89      -0.2867
     53  CB        11.0120    0.2120   11.9510 C.3    89  VAL89       0.0252
     54  CG1       10.2030   -0.9250   11.2610 C.3    89  VAL89       0.0019
     55  CG2       10.6940    0.2340   13.4780 C.3    89  VAL89       0.0019
     56  N         11.3940   -1.6250    7.0460 N.3    91  ASP91      -0.1239
     57  CA        10.2050   -2.2820    6.4740 C.3    91  ASP91       0.1674
     58  C         10.6320   -2.9990    5.2420 C.2    91  ASP91       0.2266
     59  O         10.8950   -2.4000    4.1880 O.2    91  ASP91      -0.2867
     60  CB         9.2170   -1.1810    6.1110 C.3    91  ASP91       0.1410
     61  CG         7.9460   -1.7010    5.4980 C.2    91  ASP91       0.3668
     62  OD1        7.7970   -2.9300    5.2360 O.co2  91  ASP91      -0.2456
     63  OD2        7.0240   -0.8300    5.2800 O.co2  91  ASP91      -0.2456
     64  N         10.7870   -5.0530    2.1320 N.3    93  LYS93      -0.1245
     65  CA         9.7140   -5.2570    1.1040 C.3    93  LYS93       0.1561
     66  C         10.0320   -6.5750    0.3990 C.2    93  LYS93       0.2260
     67  O         10.5070   -6.6560   -0.7250 O.2    93  LYS93      -0.2867
     68  CB         9.7000   -4.1100    0.0940 C.3    93  LYS93       0.0271
     69  CG         9.4090   -2.7870    0.8070 C.3    93  LYS93       0.0035
     70  CD         7.9170   -2.7060    1.1820 C.3    93  LYS93       0.0206
     71  CE         7.5630   -1.3950    1.8960 C.3    93  LYS93       0.1093
     72  NZ         6.0680   -1.2430    2.1330 N.3    93  LYS93      -0.1314
     73  N         11.4620   -5.5600   10.2000 N.3   132  SER132     -0.1217
     74  CA        10.0190   -5.8070   10.0750 C.3   132  SER132      0.1889
     75  C          9.7190   -6.5320    8.7570 C.2   132  SER132      0.2288
     76  O         10.0470   -6.0580    7.6490 O.2   132  SER132     -0.2866
     77  CB         9.3460   -4.4370   10.1270 C.3   132  SER132      0.2089
     78  OG         7.9700   -4.6050   10.0560 O.3   132  SER132     -0.2183
     79  N          9.7880   -7.6820   13.9560 N.3   164  ASP164     -0.1239
     80  CA         8.3820   -7.3700   13.8040 C.3   164  ASP164      0.1674
     81  C          7.8110   -8.0980   12.5880 C.2   164  ASP164      0.2266
     82  O          8.5430   -8.4010   11.6020 O.2   164  ASP164     -0.2867
     83  CB         8.1980   -5.8170   13.6100 C.3   164  ASP164      0.1410
     84  CG         6.7440   -5.4120   13.3120 C.2   164  ASP164      0.3668
     85  OD1        5.8510   -5.8680   14.0570 O.co2 164  ASP164     -0.2456
     86  OD2        6.5210   -4.5600   12.4330 O.co2 164  ASP164     -0.2456
     87  N          4.6530   -7.3830   10.0560 N.3   166  SER166     -0.1217
     88  CA         3.8830   -6.1320    9.8100 C.3   166  SER166      0.1889
     89  C          2.5670   -6.3640    9.0720 C.2   166  SER166      0.2288
     90  O          1.8470   -5.3940    8.7610 O.2   166  SER166     -0.2866
     91  CB         4.7740   -5.1380    9.0470 C.3   166  SER166      0.2089
     92  OG         5.1020   -5.7070    7.7880 O.3   166  SER166     -0.2183
     93  N          3.7610   -4.3060   15.2170 N.3   190  SER190     -0.1217
     94  CA         3.0480   -3.2380   14.4990 C.3   190  SER190      0.1889
     95  C          1.5810   -3.5690   14.3310 C.2   190  SER190      0.2288
     96  O          1.1810   -4.7350   14.3040 O.2   190  SER190     -0.2866
     97  CB         3.6560   -3.0260   13.0860 C.3   190  SER190      0.2089
     98  OG         3.7990   -4.2980   12.4370 O.3   190  SER190     -0.2183
     99  N          3.3990   -0.9370   18.4440 N.3   222  TYR222     -0.1241
    100  CA         3.3940    0.3550   17.8010 C.3   222  TYR222      0.1605
    101  C          2.3270    0.4610   16.7570 C.2   222  TYR222      0.2264
    102  O          2.0520   -0.4930   16.1130 O.2   222  TYR222     -0.2867
    103  CB         4.7800    0.7500   17.2270 C.3   222  TYR222      0.0534
    104  CG         5.3780   -0.0370   16.0890 C.ar  222  TYR222     -0.0201
    105  CD1        5.6970   -1.3400   16.2150 C.ar  222  TYR222     -0.0009
    106  CD2        5.7290    0.5880   14.9430 C.ar  222  TYR222     -0.0009
    107  CE1        6.2710   -2.0290   15.1970 C.ar  222  TYR222      0.0417
    108  CE2        6.3200   -0.0820   13.9180 C.ar  222  TYR222      0.0417
    109  CZ         6.5820   -1.3870   14.0460 C.ar  222  TYR222      0.1957
    110  OH         7.1660   -2.0370   13.0250 O.3   222  TYR222     -0.2866
    111  N          0.4340    2.5470   13.4210 N.3   224  TRP224     -0.1227
    112  CA         0.8760    3.4170   12.2850 C.3   224  TRP224      0.1737
    113  C         -0.3180    3.5350   11.3150 C.2   224  TRP224      0.2596
    114  O         -1.2180    2.7270   11.3850 O.2   224  TRP224     -0.2718
    115  CB         2.0230    2.7370   11.5360 C.3   224  TRP224      0.0564
    116  CG         1.7070    1.3550   10.9680 C.ar  224  TRP224      0.0003
    117  CD1        1.7630    0.1430   11.6290 C.ar  224  TRP224      0.0946
    118  CD2        1.3240    1.0830    9.6280 C.ar  224  TRP224      0.0152
    119  NE1        1.4320   -0.8760   10.7540 N.ar  224  TRP224     -0.2442
    120  CE2        1.1440   -0.3280    9.5230 C.ar  224  TRP224      0.0810
    121  CE3        1.0850    1.8860    8.4900 C.ar  224  TRP224      0.0012
    122  CZ2        0.7280   -0.9570    8.3140 C.ar  224  TRP224      0.0191
    123  CZ3        0.7380    1.2750    7.3320 C.ar  224  TRP224      0.0001
    124  CH2        0.5700   -0.1400    7.2230 C.ar  224  TRP224      0.0015
    125  N         -0.3590    4.5960   10.4870 N.am  225  THR225     -0.1953
    126  CA         0.4700    5.7770   10.5690 C.3   225  THR225      0.1897
    127  C         -0.4880    6.8380   11.0680 C.2   225  THR225      0.2313
    128  O         -1.5770    6.9800   10.5430 O.2   225  THR225     -0.2863
    129  CB         1.0460    6.1540    9.1750 C.3   225  THR225      0.1794
    130  OG1        1.9860    5.1420    8.8280 O.3   225  THR225     -0.2208
    131  CG2        1.7420    7.4840    9.1440 C.3   225  THR225      0.0378
    132  N          3.8900    5.6750   14.8040 N.3   244  MET244     -0.1245
    133  CA         4.4920    6.0770   13.5420 C.3   244  MET244      0.1570
    134  C          3.6020    7.1750   12.9610 C.2   244  MET244      0.2261
    135  O          2.3770    6.9800   12.8570 O.2   244  MET244     -0.2867
    136  CB         4.6060    4.8610   12.6320 C.3   244  MET244      0.0387
    137  CG         5.6400    5.1240   11.5460 C.3   244  MET244      0.0595
    138  SD         5.5600    3.7680   10.3050 S.3   244  MET244     -0.1393
    139  CE         5.8560    2.4290   11.2700 C.3   244  MET244      0.0692
@<TRIPOS>BOND
     1    34    33    2
     2    33    32    1
     3    31    32    1
     4    32    35    1
     5    37    39   ar
     6    37    36   ar
     7    67    66    2
     8    35    36    1
     9    39    40   ar
    10    36    38   ar
    11    68    69    1
    12    68    65    1
    13    66    65    1
    14    69    70    1
    15    40    38   ar
    16    65    64    1
    17    44    43    2
    18    70    71    1
    19    41    42    1
    20    12    13    1
    21    12    11    1
    22    43    42    1
    23    71    72    1
    24    26    25    2
    25    27    28    1
    26    27    24    1
    27    42    45    1
    28    25    24    1
    29    11    10    1
    30    30    28   ar
    31    28    29   ar
    32    24    23    1
    33    45    46    1
    34    59    58    2
    35    10     7    1
    36     9     8    2
    37    47    46   ar
    38    46    48   ar
    39     8     7    1
    40     7     6    1
    41    62    61   ar
    42    58    57    1
    43    63    61   ar
    44    61    60    1
    45    60    57    1
    46    57    56    1
    47     6     3   am
    48    22    20   ar
    49     4     3    2
    50    21    20   ar
    51   124   123   ar
    52   124   122   ar
    53     3     2    1
    54   123   121   ar
    55    20    19    1
    56    17    16    2
    57    76    75    2
    58    92    91    1
    59    16    15    1
    60   122   120   ar
    61     5     2    1
    62   121   118   ar
    63     2     1    1
    64    75    74    1
    65    90    89    2
    66   130   129    1
    67    19    18    1
    68    91    88    1
    69    89    88    1
    70   131   129    1
    71   129   126    1
    72    52    51    2
    73   120   118   ar
    74   120   119   ar
    75    18    15    1
    76   118   116   ar
    77    15    14    1
    78    88    87    1
    79    78    77    1
    80    74    77    1
    81    74    73    1
    82    51    50    1
    83   138   139    1
    84   138   137    1
    85   125   126    1
    86   125   113   am
    87   128   127    2
    88   126   127    1
    89   119   117   ar
    90   116   115    1
    91   116   117   ar
    92    54    53    1
    93   113   114    2
    94   113   112    1
    95   115   112    1
    96   137   136    1
    97    82    81    2
    98    50    53    1
    99    50    49    1
   100    53    55    1
   101   112   111    1
   102    86    84   ar
   103    98    97    1
   104    81    80    1
   105   136   133    1
   106   135   134    2
   107   134   133    1
   108   110   109    1
   109    97    94    1
   110    84    83    1
   111    84    85   ar
   112   133   132    1
   113    83    80    1
   114    80    79    1
   115   108   109   ar
   116   108   106   ar
   117   109   107   ar
   118    96    95    2
   119    95    94    1
   120    94    93    1
   121   106   104   ar
   122   107   105   ar
   123   104   105   ar
   124   104   103    1
   125   102   101    2
   126   101   100    1
   127   103   100    1
   128   100    99    1
