@<TRIPOS>MOLECULE
tmp/4rw6A00.pdb
 213 210 0 0 0
SMALL
GASTEIGER

@<TRIPOS>ATOM
      1  N        207.1040  -29.2030   37.0560 N.3    86  PRO86      -0.2116
      2  CA       207.7020  -29.6500   35.7950 C.3    86  PRO86       0.1372
      3  C        206.7260  -30.5120   35.0140 C.2    86  PRO86       0.2244
      4  O        206.1120  -31.4060   35.5920 O.2    86  PRO86      -0.2868
      5  CB       208.8930  -30.4940   36.2560 C.3    86  PRO86       0.0268
      6  CG       209.2330  -29.9600   37.6010 C.3    86  PRO86       0.0207
      7  CD       207.9190  -29.5920   38.2200 C.3    86  PRO86       0.0892
      8  N        210.3200  -33.4860   30.1430 N.3    91  LEU91      -0.1231
      9  CA       211.3840  -34.3430   30.6490 C.3    91  LEU91       0.1693
     10  C        211.9960  -35.1510   29.5140 C.2    91  LEU91       0.2592
     11  O        211.2810  -35.7520   28.7120 O.2    91  LEU91      -0.2718
     12  CB       210.8390  -35.2800   31.7250 C.3    91  LEU91       0.0284
     13  CG       210.0790  -34.5980   32.8650 C.3    91  LEU91       0.0019
     14  CD1      209.5350  -35.6240   33.8480 C.3    91  LEU91       0.0001
     15  CD2      210.9710  -33.5920   33.5700 C.3    91  LEU91       0.0001
     16  N        213.3210  -35.1550   29.4440 N.am   92  LYS92      -0.1966
     17  CA       214.0280  -35.8490   28.3770 C.3    92  LYS92       0.1728
     18  C        214.1620  -37.3370   28.6820 C.2    92  LYS92       0.2616
     19  O        214.3030  -37.7300   29.8410 O.2    92  LYS92      -0.2715
     20  CB       215.4050  -35.2230   28.1600 C.3    92  LYS92       0.0311
     21  CG       215.3560  -33.7300   27.8770 C.3    92  LYS92       0.0038
     22  CD       216.7460  -33.1490   27.6750 C.3    92  LYS92       0.0206
     23  CE       216.6760  -31.6570   27.4000 C.3    92  LYS92       0.1093
     24  NZ       218.0170  -31.0610   27.1460 N.3    92  LYS92      -0.1314
     25  N        214.1100  -38.1580   27.6380 N.am   93  LYS93      -0.1963
     26  CA       214.2370  -39.6020   27.7940 C.3    93  LYS93       0.1728
     27  C        215.6280  -39.9690   28.2980 C.2    93  LYS93       0.2616
     28  O        216.6370  -39.5500   27.7280 O.2    93  LYS93      -0.2715
     29  CB       213.9480  -40.3200   26.4730 C.3    93  LYS93       0.0311
     30  CG       213.7050  -41.8020   26.5640 C.3    93  LYS93       0.0038
     31  CD       213.2320  -42.3220   25.2040 C.3    93  LYS93       0.0206
     32  CE       212.0700  -41.4710   24.6730 C.3    93  LYS93       0.1093
     33  NZ       211.5140  -41.9250   23.3670 N.3    93  LYS93      -0.1314
     34  N        215.6710  -40.7520   29.3700 N.am   94  LYS94      -0.1963
     35  CA       216.9320  -41.1470   29.9810 C.3    94  LYS94       0.1728
     36  C        216.9480  -42.6500   30.2420 C.2    94  LYS94       0.2616
     37  O        215.9230  -43.2350   30.5950 O.2    94  LYS94      -0.2715
     38  CB       217.1480  -40.3770   31.2860 C.3    94  LYS94       0.0311
     39  CG       218.3940  -39.5080   31.3020 C.3    94  LYS94       0.0038
     40  CD       218.3920  -38.4780   30.1860 C.3    94  LYS94       0.0206
     41  CE       219.6710  -37.6570   30.2030 C.3    94  LYS94       0.1093
     42  NZ       219.7360  -36.6800   29.0830 N.3    94  LYS94      -0.1314
     43  N        218.1110  -43.2710   30.0660 N.am   95  LYS95      -0.1963
     44  CA       218.2410  -44.7140   30.2480 C.3    95  LYS95       0.1728
     45  C        217.9380  -45.1400   31.6800 C.2    95  LYS95       0.2617
     46  O        217.3690  -46.2070   31.9080 O.2    95  LYS95      -0.2715
     47  CB       219.6340  -45.1950   29.8340 C.3    95  LYS95       0.0311
     48  CG       219.9330  -45.0250   28.3530 C.3    95  LYS95       0.0038
     49  CD       221.2090  -45.7540   27.9590 C.3    95  LYS95       0.0206
     50  CE       221.5530  -45.5160   26.4990 C.3    95  LYS95       0.1093
     51  NZ       222.8250  -46.1840   26.1130 N.3    95  LYS95      -0.1314
     52  N        218.3180  -44.3050   32.6430 N.am   96  SER96      -0.1936
     53  CA       218.0190  -44.5900   34.0440 C.3    96  SER96       0.2055
     54  C        217.5690  -43.3360   34.7930 C.2    96  SER96       0.2642
     55  O        218.0690  -42.2410   34.5420 O.2    96  SER96      -0.2714
     56  CB       219.2290  -45.2190   34.7370 C.3    96  SER96       0.2130
     57  OG       219.5940  -46.4400   34.1170 O.3    96  SER96      -0.2179
     58  N        216.6170  -43.5050   35.7050 N.am   97  VAL97      -0.1977
     59  CA       216.1040  -42.3960   36.5050 C.3    97  VAL97       0.1596
     60  C        215.9020  -42.8260   37.9540 C.2    97  VAL97       0.2287
     61  O        215.2550  -43.8380   38.2240 O.2    97  VAL97      -0.2864
     62  CB       214.7780  -41.8440   35.9260 C.3    97  VAL97       0.0276
     63  CG1      213.9800  -41.1040   36.9910 C.3    97  VAL97       0.0022
     64  CG2      215.0550  -40.9400   34.7360 C.3    97  VAL97       0.0022
     65  N        214.7440  -41.6990   41.9590 N.3    99  VAL99      -0.1245
     66  CA       214.0770  -40.7680   42.8600 C.3    99  VAL99       0.1561
     67  C        214.6740  -40.8650   44.2600 C.2    99  VAL99       0.2260
     68  O        214.8810  -41.9610   44.7810 O.2    99  VAL99      -0.2867
     69  CB       212.5670  -41.0530   42.9380 C.3    99  VAL99       0.0252
     70  CG1      211.8860  -40.0880   43.8960 C.3    99  VAL99       0.0019
     71  CG2      211.9450  -40.9640   41.5560 C.3    99  VAL99       0.0019
     72  N        222.0860  -35.8290   35.0210 N.3   170  VAL170     -0.1245
     73  CA       221.2500  -34.6450   35.1770 C.3   170  VAL170      0.1561
     74  C        220.3850  -34.7510   36.4300 C.2   170  VAL170      0.2260
     75  O        219.7180  -35.7620   36.6530 O.2   170  VAL170     -0.2867
     76  CB       220.3550  -34.4170   33.9410 C.3   170  VAL170      0.0252
     77  CG1      219.4620  -33.2030   34.1410 C.3   170  VAL170      0.0019
     78  CG2      221.2020  -34.2570   32.6870 C.3   170  VAL170      0.0019
     79  N        217.3320  -33.0870   38.8240 N.3   172  CYS172     -0.1235
     80  CA       216.1880  -32.1960   38.9530 C.3   172  CYS172      0.1677
     81  C        215.8020  -32.0740   40.4200 C.2   172  CYS172      0.2270
     82  O        215.6970  -33.0730   41.1310 O.2   172  CYS172     -0.2867
     83  CB       214.9990  -32.7170   38.1440 C.3   172  CYS172      0.0956
     84  SG       215.2760  -32.8140   36.3600 S.3   172  CYS172     -0.0801
     85  N        212.8780  -30.6400   42.9220 N.3   174  TYR174     -0.1241
     86  CA       211.5160  -30.1240   42.9250 C.3   174  TYR174      0.1605
     87  C        211.1450  -29.4470   44.2420 C.2   174  TYR174      0.2264
     88  O        211.1620  -28.2190   44.3330 O.2   174  TYR174     -0.2867
     89  CB       210.5270  -31.2400   42.5900 C.3   174  TYR174      0.0534
     90  CG       209.0820  -30.8070   42.6380 C.ar  174  TYR174     -0.0201
     91  CD1      208.6450  -29.7030   41.9190 C.ar  174  TYR174     -0.0009
     92  CD2      208.1530  -31.5100   43.3920 C.ar  174  TYR174     -0.0009
     93  CE1      207.3250  -29.3050   41.9590 C.ar  174  TYR174      0.0417
     94  CE2      206.8310  -31.1210   43.4360 C.ar  174  TYR174      0.0417
     95  CZ       206.4220  -30.0180   42.7180 C.ar  174  TYR174      0.1957
     96  OH       205.1050  -29.6270   42.7600 O.3   174  TYR174     -0.2866
     97  N        212.2350  -33.5660   47.0220 N.3   177  ASP177     -0.1239
     98  CA       212.7390  -34.7080   46.2700 C.3   177  ASP177      0.1674
     99  C        213.8020  -34.3350   45.2410 C.2   177  ASP177      0.2266
    100  O        213.8960  -33.1870   44.8050 O.2   177  ASP177     -0.2867
    101  CB       211.5880  -35.4390   45.5730 C.3   177  ASP177      0.1410
    102  CG       210.5370  -35.9380   46.5450 C.2   177  ASP177      0.3668
    103  OD1      210.8810  -36.1910   47.7180 O.co2 177  ASP177     -0.2456
    104  OD2      209.3660  -36.0790   46.1310 O.co2 177  ASP177     -0.2456
    105  N        215.4140  -35.9340   41.4750 N.3   179  TYR179     -0.1227
    106  CA       215.2200  -36.8970   40.4020 C.3   179  TYR179      0.1736
    107  C        216.4330  -36.8790   39.4840 C.2   179  TYR179      0.2595
    108  O        216.6790  -35.8940   38.7950 O.2   179  TYR179     -0.2718
    109  CB       213.9530  -36.5610   39.6160 C.3   179  TYR179      0.0548
    110  CG       212.7870  -36.1690   40.4940 C.ar  179  TYR179     -0.0200
    111  CD1      212.1850  -37.0940   41.3360 C.ar  179  TYR179     -0.0009
    112  CD2      212.2890  -34.8720   40.4830 C.ar  179  TYR179     -0.0009
    113  CE1      211.1190  -36.7400   42.1420 C.ar  179  TYR179      0.0417
    114  CE2      211.2210  -34.5090   41.2830 C.ar  179  TYR179      0.0417
    115  CZ       210.6410  -35.4470   42.1110 C.ar  179  TYR179      0.1957
    116  OH       209.5800  -35.0930   42.9110 O.3   179  TYR179     -0.2866
    117  N        217.1830  -37.9760   39.4660 N.am  180  VAL180     -0.1966
    118  CA       218.4470  -38.0100   38.7430 C.3   180  VAL180      0.1727
    119  C        218.3970  -38.9410   37.5420 C.2   180  VAL180      0.2616
    120  O        218.3260  -40.1630   37.6890 O.2   180  VAL180     -0.2715
    121  CB       219.5920  -38.4580   39.6580 C.3   180  VAL180      0.0290
    122  CG1      220.9320  -38.1460   39.0120 C.3   180  VAL180      0.0023
    123  CG2      219.4760  -37.7800   41.0110 C.3   180  VAL180      0.0023
    124  N        218.4150  -38.3540   36.3510 N.am  181  GLY181     -0.1955
    125  CA       218.4810  -39.1280   35.1270 C.3   181  GLY181      0.1869
    126  C        219.8960  -39.2630   34.5990 C.2   181  GLY181      0.2309
    127  O        220.7450  -38.4030   34.8440 O.2   181  GLY181     -0.2863
    128  N        211.0610  -45.8800   46.0250 N.3   209  LYS209     -0.1245
    129  CA       210.0730  -45.8960   44.9530 C.3   209  LYS209      0.1561
    130  C        210.6950  -46.3080   43.6220 C.2   209  LYS209      0.2260
    131  O        211.7770  -45.8460   43.2580 O.2   209  LYS209     -0.2867
    132  CB       209.3920  -44.5300   44.8280 C.3   209  LYS209      0.0271
    133  CG       208.4840  -44.1850   45.9990 C.3   209  LYS209      0.0035
    134  CD       207.3860  -45.2300   46.1610 C.3   209  LYS209      0.0206
    135  CE       206.5090  -44.9410   47.3690 C.3   209  LYS209      0.1093
    136  NZ       205.4510  -45.9760   47.5410 N.3   209  LYS209     -0.1314
    137  N        209.7800  -47.2930   39.2800 N.3   211  PRO211     -0.2116
    138  CA       208.8100  -47.0340   38.2070 C.3   211  PRO211      0.1372
    139  C        207.7440  -48.1250   38.0930 C.2   211  PRO211      0.2244
    140  O        208.0330  -49.2860   38.3840 O.2   211  PRO211     -0.2868
    141  CB       209.6820  -46.9970   36.9420 C.3   211  PRO211      0.0268
    142  CG       210.9640  -47.6590   37.3240 C.3   211  PRO211      0.0207
    143  CD       211.1600  -47.3410   38.7690 C.3   211  PRO211      0.0892
    144  N        206.3180  -44.2360   38.4360 N.3   213  PHE213     -0.1227
    145  CA       206.1770  -43.2980   39.5450 C.3   213  PHE213      0.1736
    146  C        204.8270  -42.5950   39.4990 C.2   213  PHE213      0.2595
    147  O        204.4180  -42.1020   38.4480 O.2   213  PHE213     -0.2718
    148  CB       207.2830  -42.2400   39.5070 C.3   213  PHE213      0.0547
    149  CG       208.6650  -42.8030   39.3360 C.ar  213  PHE213     -0.0202
    150  CD1      209.3240  -42.6940   38.1230 C.ar  213  PHE213     -0.0042
    151  CD2      209.3090  -43.4310   40.3880 C.ar  213  PHE213     -0.0042
    152  CE1      210.5990  -43.2030   37.9610 C.ar  213  PHE213     -0.0003
    153  CE2      210.5840  -43.9440   40.2320 C.ar  213  PHE213     -0.0003
    154  CZ       211.2290  -43.8270   39.0170 C.ar  213  PHE213     -0.0000
    155  N        204.1360  -42.5430   40.6340 N.am  214  LEU214     -0.1966
    156  CA       202.9360  -41.7210   40.7310 C.3   214  LEU214      0.1728
    157  C        203.3470  -40.3700   41.3050 C.2   214  LEU214      0.2616
    158  O        203.6620  -40.2560   42.4890 O.2   214  LEU214     -0.2715
    159  CB       201.8970  -42.3820   41.6370 C.3   214  LEU214      0.0311
    160  CG       201.5070  -43.8300   41.3290 C.3   214  LEU214      0.0022
    161  CD1      200.4120  -44.2960   42.2780 C.3   214  LEU214      0.0001
    162  CD2      201.0720  -43.9910   39.8790 C.3   214  LEU214      0.0001
    163  N        203.3320  -39.3460   40.4590 N.am  215  TRP215     -0.1974
    164  CA       203.8920  -38.0530   40.8260 C.3   215  TRP215      0.1640
    165  C        203.0340  -36.8820   40.3620 C.2   215  TRP215      0.2290
    166  O        202.8190  -36.7020   39.1640 O.2   215  TRP215     -0.2864
    167  CB       205.3060  -37.9360   40.2580 C.3   215  TRP215      0.0576
    168  CG       205.9400  -36.6030   40.4560 C.ar  215  TRP215      0.0006
    169  CD1      206.5790  -36.1550   41.5750 C.ar  215  TRP215      0.0946
    170  CD2      206.0150  -35.5430   39.4990 C.ar  215  TRP215      0.0152
    171  NE1      207.0430  -34.8780   41.3760 N.ar  215  TRP215     -0.2442
    172  CE2      206.7100  -34.4790   40.1080 C.ar  215  TRP215      0.0810
    173  CE3      205.5600  -35.3880   38.1860 C.ar  215  TRP215      0.0012
    174  CZ2      206.9580  -33.2760   39.4510 C.ar  215  TRP215      0.0191
    175  CZ3      205.8090  -34.1950   37.5350 C.ar  215  TRP215      0.0001
    176  CH2      206.5010  -33.1540   38.1680 C.ar  215  TRP215      0.0015
    177  N        204.3680  -41.7110   35.5750 N.3   220  LEU220     -0.1231
    178  CA       205.5780  -41.6690   34.7690 C.3   220  LEU220      0.1693
    179  C        206.1690  -43.0680   34.6230 C.2   220  LEU220      0.2592
    180  O        206.6560  -43.6530   35.5940 O.2   220  LEU220     -0.2718
    181  CB       206.6050  -40.7300   35.4030 C.3   220  LEU220      0.0284
    182  CG       206.1260  -39.3110   35.7150 C.3   220  LEU220      0.0019
    183  CD1      207.1620  -38.5730   36.5400 C.3   220  LEU220      0.0001
    184  CD2      205.8300  -38.5490   34.4380 C.3   220  LEU220      0.0001
    185  N        206.1180  -43.5980   33.4050 N.am  221  HIS221     -0.1962
    186  CA       206.6970  -44.8990   33.1060 C.3   221  HIS221      0.1772
    187  C        208.0690  -44.6640   32.4770 C.2   221  HIS221      0.2462
    188  O        208.4370  -43.5160   32.2290 O.2   221  HIS221     -0.2730
    189  CB       205.7730  -45.6590   32.1500 C.3   221  HIS221      0.0785
    190  CG       204.4060  -45.9120   32.7070 C.ar  221  HIS221      0.0821
    191  ND1      203.9570  -47.1730   33.0370 N.ar  221  HIS221     -0.2267
    192  CD2      203.3900  -45.0640   32.9990 C.ar  221  HIS221      0.1154
    193  CE1      202.7240  -47.0920   33.5040 C.ar  221  HIS221      0.1986
    194  NE2      202.3570  -45.8230   33.4920 N.ar  221  HIS221     -0.2212
    195  N        208.8400  -45.7370   32.2280 N.am  222  PRO222     -0.2727
    196  CA       210.1500  -45.4990   31.6090 C.3   222  PRO222      0.1402
    197  C        210.1020  -44.8740   30.2140 C.2   222  PRO222      0.2269
    198  O        210.8260  -43.9130   29.9590 O.2   222  PRO222     -0.2865
    199  CB       210.7540  -46.9030   31.5330 C.3   222  PRO222      0.0296
    200  CG       210.1570  -47.6130   32.6900 C.3   222  PRO222      0.0237
    201  CD       208.7480  -47.0950   32.7990 C.3   222  PRO222      0.0939
    202  N        208.2960  -38.8970   25.9620 N.3   304  TYR304     -0.1241
    203  CA       209.2010  -37.8970   26.5180 C.3   304  TYR304      0.1605
    204  C        209.8920  -37.1100   25.4150 C.2   304  TYR304      0.2264
    205  O        209.7380  -37.4160   24.2340 O.2   304  TYR304     -0.2867
    206  CB       210.2270  -38.5450   27.4520 C.3   304  TYR304      0.0534
    207  CG       209.6060  -39.1810   28.6740 C.ar  304  TYR304     -0.0201
    208  CD1      209.7160  -40.5470   28.9050 C.ar  304  TYR304     -0.0009
    209  CD2      208.8960  -38.4160   29.5910 C.ar  304  TYR304     -0.0009
    210  CE1      209.1450  -41.1310   30.0220 C.ar  304  TYR304      0.0417
    211  CE2      208.3180  -38.9900   30.7090 C.ar  304  TYR304      0.0417
    212  CZ       208.4460  -40.3480   30.9190 C.ar  304  TYR304      0.1957
    213  OH       207.8760  -40.9220   32.0330 O.3   304  TYR304     -0.2866
@<TRIPOS>BOND
     1    33    32    1
     2   205   204    2
     3    32    31    1
     4    31    30    1
     5   204   203    1
     6   202   203    1
     7    51    50    1
     8    29    30    1
     9    29    26    1
    10    50    49    1
    11   203   206    1
    12    24    23    1
    13    23    22    1
    14   206   207    1
    15    25    26    1
    16    25    18   am
    17    22    21    1
    18    28    27    2
    19    26    27    1
    20    21    20    1
    21    49    48    1
    22    20    17    1
    23    27    34   am
    24    48    47    1
    25    17    18    1
    26    17    16    1
    27   207   208   ar
    28   207   209   ar
    29    18    19    2
    30    11    10    2
    31   208   210   ar
    32    42    41    1
    33    34    35    1
    34    16    10   am
    35    10     9    1
    36   209   211   ar
    37    47    44    1
    38   198   197    2
    39    35    36    1
    40    35    38    1
    41   210   212   ar
    42    43    36   am
    43    43    44    1
    44     8     9    1
    45    40    41    1
    46    40    39    1
    47   197   196    1
    48    36    37    2
    49    44    45    1
    50     9    12    1
    51   211   212   ar
    52   212   213    1
    53    38    39    1
    54   199   196    1
    55   199   200    1
    56   196   195    1
    57    45    46    2
    58    45    52   am
    59    12    13    1
    60   189   190    1
    61   189   186    1
    62   195   187   am
    63   195   201    1
    64   188   187    2
    65   187   186    1
    66    52    53    1
    67    78    76    1
    68   200   201    1
    69   190   192   ar
    70   190   191   ar
    71    13    15    1
    72    13    14    1
    73   192   194   ar
    74   191   193   ar
    75   186   185    1
    76   185   179   am
    77   194   193   ar
    78    76    77    1
    79    76    73    1
    80    53    56    1
    81    53    54    1
    82    57    56    1
    83   184   182    1
    84    55    54    2
    85   126   127    2
    86   126   125    1
    87   179   178    1
    88   179   180    2
    89    64    62    1
    90   178   181    1
    91   178   177    1
    92    54    58   am
    93     3     4    2
    94     3     2    1
    95    72    73    1
    96   125   124    1
    97    73    74    1
    98   181   182    1
    99    58    59    1
   100   182   183    1
   101     2     5    1
   102     2     1    1
   103    62    59    1
   104    62    63    1
   105     5     6    1
   106   124   119   am
   107    84    83    1
   108    74    75    2
   109    59    60    1
   110   141   142    1
   111   141   138    1
   112     1     7    1
   113   142   143    1
   114   175   176   ar
   115   175   173   ar
   116   119   120    2
   117   119   118    1
   118     6     7    1
   119    60    61    2
   120   152   150   ar
   121   152   154   ar
   122   139   138    1
   123   139   140    2
   124   150   149   ar
   125    83    80    1
   126   176   174   ar
   127   173   170   ar
   128   138   137    1
   129   144   145    1
   130   147   146    2
   131   118   117    1
   132   118   121    1
   133   143   137    1
   134   108   107    2
   135    79    80    1
   136    80    81    1
   137   122   121    1
   138   154   153   ar
   139   166   165    2
   140   149   148    1
   141   149   151   ar
   142   174   172   ar
   143   117   107   am
   144   107   106    1
   145   170   172   ar
   146   170   168   ar
   147   146   145    1
   148   146   155   am
   149   148   145    1
   150   109   106    1
   151   109   110    1
   152   121   123    1
   153   162   160    1
   154   172   171   ar
   155   153   151   ar
   156   167   168    1
   157   167   164    1
   158   165   164    1
   159   106   105    1
   160    81    82    2
   161   168   169   ar
   162   163   164    1
   163   163   157   am
   164   112   110   ar
   165   112   114   ar
   166   110   111   ar
   167   155   156    1
   168   156   157    1
   169   156   159    1
   170   114   115   ar
   171   157   158    2
   172   160   159    1
   173   160   161    1
   174   111   113   ar
   175   171   169   ar
   176    71    69    1
   177    91    93   ar
   178    91    90   ar
   179    65    66    1
   180    93    95   ar
   181   115   113   ar
   182   115   116    1
   183    89    90    1
   184    89    86    1
   185    90    92   ar
   186    95    96    1
   187    95    94   ar
   188    66    69    1
   189    66    67    1
   190    85    86    1
   191    86    87    1
   192    69    70    1
   193   131   130    2
   194    92    94   ar
   195   130   129    1
   196    87    88    2
   197    67    68    2
   198   100    99    2
   199   132   129    1
   200   132   133    1
   201   129   128    1
   202    99    98    1
   203   101    98    1
   204   101   102    1
   205   133   134    1
   206   104   102   ar
   207   134   135    1
   208    98    97    1
   209   102   103   ar
   210   135   136    1
