@<TRIPOS>MOLECULE
tmp/4rw8A00.pdb
 147 141 0 0 0
SMALL
GASTEIGER

@<TRIPOS>ATOM
      1  N        238.3740  -15.0870  126.2160 N.3    96  PRO96      -0.2116
      2  CA       237.5060  -15.8710  125.3320 C.3    96  PRO96       0.1372
      3  C        236.6390  -16.8610  126.1000 C.2    96  PRO96       0.2244
      4  O        237.0970  -17.4580  127.0740 O.2    96  PRO96      -0.2868
      5  CB       238.5000  -16.6180  124.4330 C.3    96  PRO96       0.0268
      6  CG       239.8020  -16.5720  125.1640 C.3    96  PRO96       0.0207
      7  CD       239.7990  -15.2730  125.8930 C.3    96  PRO96       0.0892
      8  N        234.9320  -21.3020  121.2970 N.3   101  LEU101     -0.1231
      9  CA       236.0850  -21.9970  120.7390 C.3   101  LEU101      0.1693
     10  C        235.6310  -23.0650  119.7480 C.2   101  LEU101      0.2591
     11  O        234.5040  -23.5580  119.8260 O.2   101  LEU101     -0.2718
     12  CB       236.9300  -22.6220  121.8500 C.3   101  LEU101      0.0284
     13  CG       237.5770  -21.6480  122.8360 C.3   101  LEU101      0.0019
     14  CD1      238.3100  -22.4020  123.9370 C.3   101  LEU101      0.0001
     15  CD2      238.5210  -20.7060  122.1110 C.3   101  LEU101      0.0001
     16  N        236.5100  -23.4130  118.8140 N.am  102  LYS102     -0.1980
     17  CA       236.1880  -24.3970  117.7870 C.3   102  LYS102      0.1596
     18  C        237.0790  -25.6290  117.8990 C.2   102  LYS102      0.2287
     19  O        238.2590  -25.5210  118.2280 O.2   102  LYS102     -0.2864
     20  CB       236.2990  -23.7720  116.3950 C.3   102  LYS102      0.0298
     21  CG       235.1170  -22.8850  116.0320 C.3   102  LYS102      0.0038
     22  CD       235.4410  -21.9400  114.8870 C.3   102  LYS102      0.0206
     23  CE       236.3070  -20.7830  115.3550 C.3   102  LYS102      0.1093
     24  NZ       236.4790  -19.7600  114.2890 N.3   102  LYS102     -0.1314
     25  N        239.5670  -28.5170  117.6720 N.3   104  LYS104     -0.1245
     26  CA       240.8520  -28.7770  117.0410 C.3   104  LYS104      0.1561
     27  C        241.3280  -30.1570  117.4770 C.2   104  LYS104      0.2260
     28  O        241.1790  -30.5290  118.6420 O.2   104  LYS104     -0.2867
     29  CB       241.8740  -27.7090  117.4390 C.3   104  LYS104      0.0271
     30  CG       241.5290  -26.2900  116.9890 C.3   104  LYS104      0.0035
     31  CD       242.1030  -25.9650  115.6120 C.3   104  LYS104      0.0206
     32  CE       241.1270  -26.2940  114.4890 C.3   104  LYS104      0.1093
     33  NZ       239.8900  -25.4680  114.5580 N.3   104  LYS104     -0.1314
     34  N        245.6310  -29.9090  120.8980 N.3   107  VAL107     -0.1245
     35  CA       245.8170  -28.6490  121.6140 C.3   107  VAL107      0.1561
     36  C        247.0000  -28.7330  122.5790 C.2   107  VAL107      0.2260
     37  O        247.1040  -29.6730  123.3680 O.2   107  VAL107     -0.2867
     38  CB       244.5490  -28.2530  122.4060 C.3   107  VAL107      0.0252
     39  CG1      244.7940  -26.9850  123.2080 C.3   107  VAL107      0.0019
     40  CG2      243.3640  -28.0720  121.4700 C.3   107  VAL107      0.0019
     41  N        249.6250  -26.4910  125.3570 N.3   109  VAL109     -0.1245
     42  CA       249.8290  -25.3110  126.1880 C.3   109  VAL109      0.1561
     43  C        251.3140  -25.0940  126.4480 C.2   109  VAL109      0.2260
     44  O        251.9900  -25.9670  126.9900 O.2   109  VAL109     -0.2867
     45  CB       249.0950  -25.4390  127.5370 C.3   109  VAL109      0.0252
     46  CG1      249.4260  -24.2610  128.4430 C.3   109  VAL109      0.0019
     47  CG2      247.5960  -25.5470  127.3150 C.3   109  VAL109      0.0019
     48  N        246.4150  -22.5900  114.6040 N.3   180  VAL180     -0.1245
     49  CA       245.9290  -21.4000  115.2890 C.3   180  VAL180      0.1561
     50  C        246.6050  -21.2180  116.6460 C.2   180  VAL180      0.2260
     51  O        246.6530  -22.1420  117.4590 O.2   180  VAL180     -0.2867
     52  CB       244.3930  -21.4330  115.4520 C.3   180  VAL180      0.0252
     53  CG1      243.9380  -22.7930  115.9490 C.3   180  VAL180      0.0019
     54  CG2      243.9230  -20.3230  116.3790 C.3   180  VAL180      0.0019
     55  N        246.7160  -18.8870  120.1380 N.3   182  TYR182     -0.1241
     56  CA       246.1240  -17.8980  121.0270 C.3   182  TYR182      0.1605
     57  C        247.1680  -17.4720  122.0480 C.2   182  TYR182      0.2264
     58  O        248.0160  -18.2670  122.4410 O.2   182  TYR182     -0.2867
     59  CB       244.8960  -18.4720  121.7340 C.3   182  TYR182      0.0534
     60  CG       243.7130  -18.6870  120.8200 C.ar  182  TYR182     -0.0201
     61  CD1      242.7390  -19.6290  121.1220 C.ar  182  TYR182     -0.0009
     62  CD2      243.5670  -17.9450  119.6560 C.ar  182  TYR182     -0.0009
     63  CE1      241.6540  -19.8280  120.2880 C.ar  182  TYR182      0.0417
     64  CE2      242.4850  -18.1360  118.8160 C.ar  182  TYR182      0.0417
     65  CZ       241.5330  -19.0790  119.1370 C.ar  182  TYR182      0.1957
     66  OH       240.4550  -19.2720  118.3030 O.3   182  TYR182     -0.2866
     67  N        251.2320  -17.3270  128.6940 N.3   187  ASP187     -0.1239
     68  CA       250.9210  -18.6000  128.0570 C.3   187  ASP187      0.1674
     69  C        250.5710  -18.4680  126.5780 C.2   187  ASP187      0.2266
     70  O        249.9620  -17.4840  126.1480 O.2   187  ASP187     -0.2867
     71  CB       249.7700  -19.3000  128.7870 C.3   187  ASP187      0.1410
     72  CG       250.0650  -19.5410  130.2520 C.2   187  ASP187      0.3668
     73  OD1      251.2570  -19.6140  130.6180 O.co2 187  ASP187     -0.2456
     74  OD2      249.1010  -19.6610  131.0380 O.co2 187  ASP187     -0.2456
     75  N        248.6770  -20.8590  123.5260 N.3   189  TYR189     -0.1227
     76  CA       247.8410  -22.0330  123.3290 C.3   189  TYR189      0.1736
     77  C        247.7400  -22.3300  121.8430 C.2   189  TYR189      0.2595
     78  O        247.1380  -21.5730  121.0870 O.2   189  TYR189     -0.2718
     79  CB       246.4470  -21.8030  123.9150 C.3   189  TYR189      0.0548
     80  CG       246.4570  -21.3130  125.3470 C.ar  189  TYR189     -0.0200
     81  CD1      247.2490  -21.9280  126.3070 C.ar  189  TYR189     -0.0009
     82  CD2      245.6880  -20.2240  125.7330 C.ar  189  TYR189     -0.0009
     83  CE1      247.2650  -21.4790  127.6150 C.ar  189  TYR189      0.0417
     84  CE2      245.6970  -19.7680  127.0380 C.ar  189  TYR189      0.0417
     85  CZ       246.4880  -20.3980  127.9740 C.ar  189  TYR189      0.1957
     86  OH       246.5020  -19.9470  129.2740 O.3   189  TYR189     -0.2866
     87  N        248.3190  -23.4490  121.4300 N.am  190  VAL190     -0.1966
     88  CA       248.3630  -23.8010  120.0200 C.3   190  VAL190      0.1727
     89  C        247.3590  -24.9090  119.7500 C.2   190  VAL190      0.2616
     90  O        247.0850  -25.7270  120.6220 O.2   190  VAL190     -0.2715
     91  CB       249.7760  -24.2650  119.6090 C.3   190  VAL190      0.0290
     92  CG1      249.9190  -24.2810  118.0910 C.3   190  VAL190      0.0023
     93  CG2      250.8330  -23.3720  120.2480 C.3   190  VAL190      0.0023
     94  N        246.7900  -24.9270  118.5510 N.am  191  GLY191     -0.1955
     95  CA       245.9150  -26.0190  118.1760 C.3   191  GLY191      0.1869
     96  C        245.8930  -26.2560  116.6830 C.2   191  GLY191      0.2309
     97  O        246.1170  -25.3360  115.8970 O.2   191  GLY191     -0.2863
     98  N        251.2760  -29.5350  130.7270 N.3   224  LYS224     -0.1245
     99  CA       249.9920  -30.1310  131.0720 C.3   224  LYS224      0.1561
    100  C        249.3430  -30.8930  129.9180 C.2   224  LYS224      0.2260
    101  O        249.6740  -30.6900  128.7500 O.2   224  LYS224     -0.2867
    102  CB       249.0350  -29.0390  131.5570 C.3   224  LYS224      0.0271
    103  CG       249.6770  -28.0220  132.4870 C.3   224  LYS224      0.0035
    104  CD       248.8490  -26.7500  132.5730 C.3   224  LYS224      0.0206
    105  CE       249.5400  -25.6970  133.4260 C.3   224  LYS224      0.1093
    106  NZ       248.7940  -24.4080  133.4380 N.3   224  LYS224     -0.1314
    107  N        244.2200  -28.8410  131.5280 N.3   228  PHE228     -0.1227
    108  CA       243.4750  -27.7560  130.8340 C.3   228  PHE228      0.1736
    109  C        242.6770  -26.7940  131.7220 C.2   228  PHE228      0.2595
    110  O        241.9790  -25.9220  131.2010 O.2   228  PHE228     -0.2718
    111  CB       242.6810  -28.1560  129.5730 C.3   228  PHE228      0.0547
    112  CG       243.5350  -28.4520  128.3760 C.ar  228  PHE228     -0.0202
    113  CD1      244.9090  -28.2990  128.4290 C.ar  228  PHE228     -0.0042
    114  CD2      242.9550  -28.8710  127.1870 C.ar  228  PHE228     -0.0042
    115  CE1      245.6910  -28.5710  127.3230 C.ar  228  PHE228     -0.0003
    116  CE2      243.7320  -29.1440  126.0790 C.ar  228  PHE228     -0.0003
    117  CZ       245.1020  -28.9930  126.1460 C.ar  228  PHE228     -0.0000
    118  N        242.7400  -26.9740  133.0410 N.am  229  LEU229     -0.1966
    119  CA       242.0660  -26.0460  133.9450 C.3   229  LEU229      0.1728
    120  C        242.5750  -24.6420  133.6400 C.2   229  LEU229      0.2616
    121  O        243.7660  -24.3600  133.7740 O.2   229  LEU229     -0.2715
    122  CB       242.3940  -26.3740  135.4090 C.3   229  LEU229      0.0311
    123  CG       241.9320  -27.6700  136.0860 C.3   229  LEU229      0.0022
    124  CD1      242.6870  -28.8870  135.5700 C.3   229  LEU229      0.0001
    125  CD2      242.1020  -27.5500  137.5970 C.3   229  LEU229      0.0001
    126  N        241.6620  -23.7600  133.2470 N.am  230  TRP230     -0.1974
    127  CA       242.0330  -22.4130  132.8310 C.3   230  TRP230      0.1640
    128  C        240.9860  -21.3820  133.2390 C.2   230  TRP230      0.2290
    129  O        239.8180  -21.5120  132.8750 O.2   230  TRP230     -0.2864
    130  CB       242.2550  -22.3920  131.3150 C.3   230  TRP230      0.0576
    131  CG       242.4450  -21.0300  130.7310 C.ar  230  TRP230      0.0006
    132  CD1      243.5320  -20.2180  130.8760 C.ar  230  TRP230      0.0946
    133  CD2      241.5300  -20.3310  129.8790 C.ar  230  TRP230      0.0152
    134  NE1      243.3440  -19.0480  130.1780 N.ar  230  TRP230     -0.2442
    135  CE2      242.1250  -19.0940  129.5580 C.ar  230  TRP230      0.0810
    136  CE3      240.2660  -20.6280  129.3650 C.ar  230  TRP230      0.0012
    137  CZ2      241.4940  -18.1550  128.7430 C.ar  230  TRP230      0.0191
    138  CZ3      239.6430  -19.6950  128.5570 C.ar  230  TRP230      0.0001
    139  CH2      240.2570  -18.4740  128.2540 C.ar  230  TRP230      0.0015
    140  N        238.5410  -27.4210  130.4180 N.3   235  LEU235     -0.1245
    141  CA       238.4920  -27.6270  128.9780 C.3   235  LEU235      0.1561
    142  C        238.9150  -29.0460  128.6260 C.2   235  LEU235      0.2260
    143  O        240.0660  -29.4240  128.8180 O.2   235  LEU235     -0.2867
    144  CB       239.3990  -26.6220  128.2660 C.3   235  LEU235      0.0270
    145  CG       239.1480  -25.1370  128.5460 C.3   235  LEU235      0.0019
    146  CD1      240.2490  -24.2870  127.9330 C.3   235  LEU235      0.0001
    147  CD2      237.7850  -24.7060  128.0260 C.3   235  LEU235      0.0001
@<TRIPOS>BOND
     1    24    23    1
     2    32    33    1
     3    32    31    1
     4    48    49    1
     5    22    23    1
     6    22    21    1
     7    49    52    1
     8    49    50    1
     9    52    53    1
    10    52    54    1
    11    31    30    1
    12    97    96    2
    13    21    20    1
    14    20    17    1
    15    50    51    2
    16    96    95    1
    17    30    29    1
    18    26    29    1
    19    26    27    1
    20    26    25    1
    21    27    28    2
    22    17    18    1
    23    17    16    1
    24    18    19    2
    25    92    91    1
    26    95    94    1
    27    66    65    1
    28    94    89   am
    29    16    10   am
    30    64    65   ar
    31    64    62   ar
    32    65    63   ar
    33    91    88    1
    34    91    93    1
    35    62    60   ar
    36    10    11    2
    37    10     9    1
    38    89    88    1
    39    89    90    2
    40    88    87    1
    41    55    56    1
    42    63    61   ar
    43     9     8    1
    44     9    12    1
    45    60    61   ar
    46    60    59    1
    47    34    35    1
    48    56    59    1
    49    56    57    1
    50    78    77    2
    51    87    77   am
    52    40    38    1
    53    35    38    1
    54    35    36    1
    55    77    76    1
    56    12    13    1
    57    57    58    2
    58    15    13    1
    59    38    39    1
    60    36    37    2
    61    13    14    1
    62    76    75    1
    63    76    79    1
    64    79    80    1
    65     5     6    1
    66     5     2    1
    67     6     7    1
    68     2     3    1
    69     2     1    1
    70    80    82   ar
    71    80    81   ar
    72    41    42    1
    73    82    84   ar
    74     7     1    1
    75   116   117   ar
    76   116   114   ar
    77     3     4    2
    78   117   115   ar
    79    70    69    2
    80    42    43    1
    81    42    45    1
    82    81    83   ar
    83    43    44    2
    84    69    68    1
    85    84    85   ar
    86   114   112   ar
    87    47    45    1
    88   115   113   ar
    89    45    46    1
    90    83    85   ar
    91   146   145    1
    92    85    86    1
    93   147   145    1
    94    68    67    1
    95    68    71    1
    96   139   138   ar
    97   139   137   ar
    98   144   145    1
    99   144   141    1
   100   112   113   ar
   101   112   111    1
   102   138   136   ar
   103   142   143    2
   104   142   141    1
   105   137   135   ar
   106   101   100    2
   107    71    72    1
   108   141   140    1
   109   136   133   ar
   110   135   133   ar
   111   135   134   ar
   112   111   108    1
   113   133   131   ar
   114   100    99    1
   115   134   132   ar
   116    72    73   ar
   117    72    74   ar
   118    98    99    1
   119   131   132   ar
   120   131   130    1
   121   108   107    1
   122   108   109    1
   123    99   102    1
   124   110   109    2
   125   130   127    1
   126   102   103    1
   127   109   118   am
   128   103   104    1
   129   104   105    1
   130   127   128    1
   131   127   126    1
   132   129   128    2
   133   118   119    1
   134   126   120   am
   135   105   106    1
   136   120   121    2
   137   120   119    1
   138   119   122    1
   139   122   123    1
   140   124   123    1
   141   123   125    1
