@<TRIPOS>MOLECULE
tmp/4rwaB00.pdb
 220 213 0 0 0
SMALL
GASTEIGER

@<TRIPOS>ATOM
      1  N        -48.5590  -25.5940   -3.7840 N.3   172  GLN172     -0.1245
      2  CA       -49.2580  -25.5820   -2.5070 C.3   172  GLN172      0.1566
      3  C        -49.5860  -24.1480   -2.0950 C.2   172  GLN172      0.2260
      4  O        -50.6790  -23.8820   -1.6100 O.2   172  GLN172     -0.2867
      5  CB       -48.4400  -26.2760   -1.4220 C.3   172  GLN172      0.0367
      6  CG       -47.8440  -27.6020   -1.8610 C.3   172  GLN172      0.0905
      7  CD       -47.8480  -28.6480   -0.7650 C.2   172  GLN172      0.2608
      8  OE1      -48.8920  -28.9380   -0.1810 O.2   172  GLN172     -0.2717
      9  NE2      -46.6870  -29.2420   -0.5010 N.am  172  GLN172     -0.0878
     10  N        -52.5000  -23.0300   -4.0190 N.3   175  LYS175     -0.1231
     11  CA       -53.6800  -23.7070   -3.4930 C.3   175  LYS175      0.1693
     12  C        -54.2090  -22.9880   -2.2490 C.2   175  LYS175      0.2592
     13  O        -55.4070  -22.8130   -2.0980 O.2   175  LYS175     -0.2718
     14  CB       -53.3840  -25.1760   -3.1920 C.3   175  LYS175      0.0285
     15  CG       -54.5570  -25.9510   -2.5870 C.3   175  LYS175      0.0035
     16  CD       -54.5310  -26.0410   -1.0580 C.3   175  LYS175      0.0206
     17  CE       -53.2360  -26.6500   -0.5040 C.3   175  LYS175      0.1093
     18  NZ       -52.7730  -27.9200   -1.1550 N.3   175  LYS175     -0.1314
     19  N        -53.3130  -22.5510   -1.3780 N.am  176  TYR176     -0.1976
     20  CA       -53.7160  -21.8590   -0.1640 C.3   176  TYR176      0.1639
     21  C        -54.3100  -20.4920   -0.4410 C.2   176  TYR176      0.2290
     22  O        -55.3760  -20.1740    0.0690 O.2   176  TYR176     -0.2864
     23  CB       -52.5380  -21.7130    0.7960 C.3   176  TYR176      0.0560
     24  CG       -52.1820  -22.9940    1.5040 C.ar  176  TYR176     -0.0198
     25  CD1      -53.1460  -23.7100    2.2100 C.ar  176  TYR176     -0.0009
     26  CD2      -50.8850  -23.4860    1.4850 C.ar  176  TYR176     -0.0009
     27  CE1      -52.8270  -24.8800    2.8650 C.ar  176  TYR176      0.0417
     28  CE2      -50.5580  -24.6580    2.1400 C.ar  176  TYR176      0.0417
     29  CZ       -51.5320  -25.3460    2.8290 C.ar  176  TYR176      0.1957
     30  OH       -51.2120  -26.5050    3.4850 O.3   176  TYR176     -0.2866
     31  N        -47.7100  -34.3550   -6.9820 N.3   191  VAL191     -0.1231
     32  CA       -47.3090  -33.5800   -5.8100 C.3   191  VAL191      0.1692
     33  C        -47.3990  -34.3910   -4.5140 C.2   191  VAL191      0.2591
     34  O        -46.4770  -34.3570   -3.6940 O.2   191  VAL191     -0.2718
     35  CB       -48.1360  -32.2690   -5.7070 C.3   191  VAL191      0.0266
     36  CG1      -48.0340  -31.6440   -4.3240 C.3   191  VAL191      0.0020
     37  CG2      -47.6800  -31.2750   -6.7630 C.3   191  VAL191      0.0020
     38  N        -48.4960  -35.1240   -4.3300 N.am  192  LEU192     -0.1980
     39  CA       -48.6740  -35.9190   -3.1090 C.3   192  LEU192      0.1596
     40  C        -47.6570  -37.0660   -3.0120 C.2   192  LEU192      0.2287
     41  O        -46.9330  -37.1700   -2.0230 O.2   192  LEU192     -0.2864
     42  CB       -50.1080  -36.4560   -2.9930 C.3   192  LEU192      0.0297
     43  CG       -51.2440  -35.4280   -3.0260 C.3   192  LEU192      0.0022
     44  CD1      -52.5190  -36.0640   -2.5260 C.3   192  LEU192      0.0001
     45  CD2      -50.9440  -34.1960   -2.1990 C.3   192  LEU192      0.0001
     46  N        -44.4840  -36.0140   -2.0230 N.3   195  ASP195     -0.1225
     47  CA       -44.4390  -35.6850   -0.6000 C.3   195  ASP195      0.1805
     48  C        -44.1540  -36.9200    0.2460 C.2   195  ASP195      0.2597
     49  O        -43.5010  -36.8310    1.2720 O.2   195  ASP195     -0.2718
     50  CB       -45.7500  -35.0220   -0.1600 C.3   195  ASP195      0.1424
     51  CG       -45.6360  -34.3290    1.1840 C.2   195  ASP195      0.3668
     52  OD1      -46.2600  -34.8250    2.1390 O.co2 195  ASP195     -0.2456
     53  OD2      -44.9360  -33.2970    1.2910 O.co2 195  ASP195     -0.2456
     54  N        -44.6390  -38.0700   -0.1910 N.am  196  TYR196     -0.1976
     55  CA       -44.3540  -39.3070    0.5060 C.3   196  TYR196      0.1639
     56  C        -42.9470  -39.8050    0.1830 C.2   196  TYR196      0.2290
     57  O        -42.2060  -40.1830    1.0880 O.2   196  TYR196     -0.2864
     58  CB       -45.4000  -40.3770    0.1780 C.3   196  TYR196      0.0560
     59  CG       -46.6600  -40.3160    1.0440 C.ar  196  TYR196     -0.0198
     60  CD1      -47.8990  -39.9330    0.5270 C.ar  196  TYR196     -0.0009
     61  CD2      -46.6020  -40.6530    2.3880 C.ar  196  TYR196     -0.0009
     62  CE1      -49.0320  -39.8960    1.3320 C.ar  196  TYR196      0.0417
     63  CE2      -47.7260  -40.6120    3.2000 C.ar  196  TYR196      0.0417
     64  CZ       -48.9380  -40.2360    2.6690 C.ar  196  TYR196      0.1957
     65  OH       -50.0430  -40.1920    3.4820 O.3   196  TYR196     -0.2866
     66  N        -40.3710  -38.1810    2.3910 N.3   199  MET199     -0.1245
     67  CA       -40.2390  -38.6430    3.7740 C.3   199  MET199      0.1570
     68  C        -39.4510  -39.9340    3.8950 C.2   199  MET199      0.2261
     69  O        -38.5240  -40.0230    4.7020 O.2   199  MET199     -0.2867
     70  CB       -41.6030  -38.8380    4.4170 C.3   199  MET199      0.0387
     71  CG       -42.2790  -37.5350    4.7920 C.3   199  MET199      0.0595
     72  SD       -43.6990  -37.8050    5.8580 S.3   199  MET199     -0.1393
     73  CE       -44.6930  -38.8650    4.8080 C.3   199  MET199      0.0692
     74  N        -57.3380  -31.6810   -3.9810 N.3   265  CYS265     -0.1221
     75  CA       -56.4600  -32.8110   -4.2630 C.3   265  CYS265      0.1808
     76  C        -56.3920  -33.6350   -2.9790 C.2   265  CYS265      0.2601
     77  O        -56.3250  -33.0670   -1.8930 O.2   265  CYS265     -0.2717
     78  CB       -55.0900  -32.2790   -4.7190 C.3   265  CYS265      0.0970
     79  SG       -53.7430  -33.4730   -4.9200 S.3   265  CYS265     -0.0800
     80  N        -56.4610  -34.9610   -3.0860 N.am  266  MET266     -0.1965
     81  CA       -56.5890  -35.8040   -1.8870 C.3   266  MET266      0.1736
     82  C        -56.4380  -37.3090   -2.1280 C.2   266  MET266      0.2616
     83  O        -56.4430  -37.7820   -3.2620 O.2   266  MET266     -0.2715
     84  CB       -57.9440  -35.5590   -1.2120 C.3   266  MET266      0.0427
     85  CG       -59.1290  -35.7090   -2.1520 C.3   266  MET266      0.0599
     86  SD       -60.5740  -36.4060   -1.3290 S.3   266  MET266     -0.1393
     87  CE       -61.5600  -36.8830   -2.7460 C.3   266  MET266      0.0692
     88  N        -56.3080  -38.0430   -1.0260 N.am  267  LEU267     -0.1977
     89  CA       -56.1360  -39.4870   -1.0460 C.3   267  LEU267      0.1596
     90  C        -57.4610  -40.1940   -0.9400 C.2   267  LEU267      0.2287
     91  O        -58.3450  -39.7290   -0.2340 O.2   267  LEU267     -0.2864
     92  CB       -55.2790  -39.8970    0.1400 C.3   267  LEU267      0.0297
     93  CG       -53.8180  -39.4120   -0.0010 C.3   267  LEU267      0.0022
     94  CD1      -53.0730  -39.2320    1.3160 C.3   267  LEU267      0.0001
     95  CD2      -53.0690  -40.3870   -0.8880 C.3   267  LEU267      0.0001
     96  N        -51.2340  -43.7580    8.3090 N.3   281  LYS281     -0.1245
     97  CA       -50.6930  -42.7280    9.2080 C.3   281  LYS281      0.1561
     98  C        -49.8810  -43.3020   10.3600 C.2   281  LYS281      0.2260
     99  O        -48.9880  -42.6370   10.8770 O.2   281  LYS281     -0.2867
    100  CB       -51.8030  -41.8420    9.7700 C.3   281  LYS281      0.0271
    101  CG       -52.2750  -40.7820    8.8000 C.3   281  LYS281      0.0035
    102  CD       -53.4100  -39.9610    9.3820 C.3   281  LYS281      0.0206
    103  CE       -54.5830  -39.9140    8.4200 C.3   281  LYS281      0.1093
    104  NZ       -55.8480  -39.3420    8.9590 N.3   281  LYS281     -0.1314
    105  N        -46.5030  -44.8050    8.4870 N.3   284  VAL284     -0.1245
    106  CA       -45.6100  -43.6870    8.2100 C.3   284  VAL284      0.1561
    107  C        -44.9040  -43.2090    9.4900 C.2   284  VAL284      0.2260
    108  O        -43.7410  -42.8280    9.4400 O.2   284  VAL284     -0.2867
    109  CB       -46.3540  -42.5210    7.5280 C.3   284  VAL284      0.0252
    110  CG1      -47.3330  -41.8670    8.4810 C.3   284  VAL284      0.0019
    111  CG2      -45.3760  -41.4910    6.9900 C.3   284  VAL284      0.0019
    112  N        -39.0550  -32.5250   11.6940 N.3   333  TRP333     -0.1241
    113  CA       -40.1840  -33.4070   11.4520 C.3   333  TRP333      0.1605
    114  C        -40.8430  -33.9240   12.7250 C.2   333  TRP333      0.2264
    115  O        -42.0030  -34.3320   12.6970 O.2   333  TRP333     -0.2867
    116  CB       -39.7310  -34.5930   10.6130 C.3   333  TRP333      0.0550
    117  CG       -39.3530  -34.2420    9.2200 C.ar  333  TRP333      0.0003
    118  CD1      -38.0920  -34.0680    8.7320 C.ar  333  TRP333      0.0946
    119  CD2      -40.2410  -34.0420    8.1190 C.ar  333  TRP333      0.0152
    120  NE1      -38.1400  -33.7660    7.3930 N.ar  333  TRP333     -0.2442
    121  CE2      -39.4500  -33.7450    6.9920 C.ar  333  TRP333      0.0810
    122  CE3      -41.6280  -34.0850    7.9750 C.ar  333  TRP333      0.0012
    123  CZ2      -39.9980  -33.4880    5.7410 C.ar  333  TRP333      0.0191
    124  CZ3      -42.1700  -33.8380    6.7300 C.ar  333  TRP333      0.0001
    125  CH2      -41.3550  -33.5410    5.6290 C.ar  333  TRP333      0.0015
    126  N        -44.2490  -32.0420   13.5190 N.3   336  ILE336     -0.1231
    127  CA       -45.3910  -32.3770   12.6620 C.3   336  ILE336      0.1692
    128  C        -45.8090  -33.8530   12.7620 C.2   336  ILE336      0.2592
    129  O        -46.9920  -34.1660   12.6580 O.2   336  ILE336     -0.2718
    130  CB       -45.1500  -31.9710   11.1810 C.3   336  ILE336      0.0266
    131  CG1      -46.4290  -32.1220   10.3410 C.3   336  ILE336      0.0019
    132  CG2      -44.0300  -32.7860   10.5440 C.3   336  ILE336      0.0020
    133  CD1      -47.6090  -31.3060   10.8320 C.3   336  ILE336      0.0001
    134  N        -44.8580  -34.7590   12.9670 N.am  337  HIS337     -0.1976
    135  CA       -45.2100  -36.1740   13.0840 C.3   337  HIS337      0.1656
    136  C        -45.9770  -36.4440   14.3580 C.2   337  HIS337      0.2291
    137  O        -46.8290  -37.3310   14.3940 O.2   337  HIS337     -0.2864
    138  CB       -43.9830  -37.0760   13.0120 C.3   337  HIS337      0.0771
    139  CG       -43.7340  -37.6320   11.6470 C.ar  337  HIS337      0.0820
    140  ND1      -42.5680  -37.4000   10.9490 N.ar  337  HIS337     -0.2267
    141  CD2      -44.5100  -38.3960   10.8430 C.ar  337  HIS337      0.1154
    142  CE1      -42.6320  -38.0050    9.7770 C.ar  337  HIS337      0.1986
    143  NE2      -43.8020  -38.6140    9.6850 N.ar  337  HIS337     -0.2212
    144  N        -49.6600  -34.6700   13.8360 N.3   340  VAL340     -0.1245
    145  CA       -50.5230  -35.4960   12.9880 C.3   340  VAL340      0.1561
    146  C        -51.0850  -36.7330   13.6930 C.2   340  VAL340      0.2260
    147  O        -52.1830  -37.1770   13.3770 O.2   340  VAL340     -0.2867
    148  CB       -49.7740  -35.9200   11.6970 C.3   340  VAL340      0.0252
    149  CG1      -48.7010  -36.9690   11.9700 C.3   340  VAL340      0.0019
    150  CG2      -50.7420  -36.4130   10.6350 C.3   340  VAL340      0.0019
    151  N        -53.6340  -35.1980   16.0510 N.3   343  TRP343     -0.1227
    152  CA       -54.7360  -34.7940   15.1670 C.3   343  TRP343      0.1737
    153  C        -55.6570  -35.9510   14.7430 C.2   343  TRP343      0.2596
    154  O        -56.8710  -35.7580   14.6210 O.2   343  TRP343     -0.2718
    155  CB       -54.1490  -34.1190   13.9200 C.3   343  TRP343      0.0564
    156  CG       -55.1430  -33.4790   12.9730 C.ar  343  TRP343      0.0003
    157  CD1      -55.9190  -34.1090   12.0420 C.ar  343  TRP343      0.0946
    158  CD2      -55.4130  -32.0770   12.8320 C.ar  343  TRP343      0.0152
    159  NE1      -56.6680  -33.1910   11.3470 N.ar  343  TRP343     -0.2442
    160  CE2      -56.3770  -31.9370   11.8120 C.ar  343  TRP343      0.0810
    161  CE3      -54.9380  -30.9250   13.4760 C.ar  343  TRP343      0.0012
    162  CZ2      -56.8780  -30.6970   11.4220 C.ar  343  TRP343      0.0191
    163  CZ3      -55.4430  -29.6880   13.0880 C.ar  343  TRP343      0.0001
    164  CH2      -56.4020  -29.5870   12.0710 C.ar  343  TRP343      0.0015
    165  N        -55.0900  -37.1420   14.5270 N.am  344  THR344     -0.1953
    166  CA       -55.8610  -38.2870   14.0200 C.3   344  THR344      0.1897
    167  C        -56.1340  -39.3400   15.0780 C.2   344  THR344      0.2313
    168  O        -56.4660  -40.4740   14.7500 O.2   344  THR344     -0.2863
    169  CB       -55.1720  -38.9720   12.8190 C.3   344  THR344      0.1794
    170  OG1      -53.9840  -39.6420   13.2550 O.3   344  THR344     -0.2208
    171  CG2      -54.8230  -37.9450   11.7590 C.3   344  THR344      0.0378
    172  N        -59.9980  -28.1870   16.5060 N.3   350  ARG350     -0.1245
    173  CA       -59.2360  -28.1750   15.2520 C.3   350  ARG350      0.1563
    174  C        -59.4460  -26.9070   14.3970 C.2   350  ARG350      0.2260
    175  O        -58.8240  -26.7710   13.3400 O.2   350  ARG350     -0.2867
    176  CB       -59.5170  -29.4620   14.4370 C.3   350  ARG350      0.0307
    177  CG       -60.1460  -30.6280   15.2030 C.3   350  ARG350      0.0489
    178  CD       -59.3250  -31.9270   15.2070 C.3   350  ARG350      0.2205
    179  NE       -59.3970  -32.6550   13.9360 N.pl3 350  ARG350     -0.0865
    180  CZ       -59.5000  -33.9830   13.8130 C.cat 350  ARG350      0.5346
    181  NH1      -59.5480  -34.7820   14.8830 N.pl3 350  ARG350      0.1354
    182  NH2      -59.5700  -34.5230   12.5980 N.pl3 350  ARG350      0.1354
    183  N        -50.0350  -25.7240   13.6500 N.3   359  LEU359     -0.1231
    184  CA       -49.9400  -26.8610   12.7420 C.3   359  LEU359      0.1693
    185  C        -49.2930  -26.4230   11.4290 C.2   359  LEU359      0.2592
    186  O        -48.2020  -26.8770   11.1070 O.2   359  LEU359     -0.2718
    187  CB       -51.3180  -27.4660   12.4780 C.3   359  LEU359      0.0284
    188  CG       -51.3660  -28.5610   11.4110 C.3   359  LEU359      0.0019
    189  CD1      -51.0320  -29.9130   12.0140 C.3   359  LEU359      0.0001
    190  CD2      -52.7290  -28.5890   10.7400 C.3   359  LEU359      0.0001
    191  N        -49.9470  -25.5230   10.6980 N.am  360  HIS360     -0.1976
    192  CA       -49.3980  -25.0210    9.4330 C.3   360  HIS360      0.1656
    193  C        -48.0030  -24.4450    9.5760 C.2   360  HIS360      0.2291
    194  O        -47.1360  -24.6610    8.7280 O.2   360  HIS360     -0.2864
    195  CB       -50.3170  -23.9640    8.8290 C.3   360  HIS360      0.0771
    196  CG       -51.4470  -24.5540    8.0540 C.ar  360  HIS360      0.0820
    197  ND1      -51.4050  -24.7430    6.6900 N.ar  360  HIS360     -0.2267
    198  CD2      -52.6350  -25.0510    8.4670 C.ar  360  HIS360      0.1154
    199  CE1      -52.5300  -25.3080    6.2930 C.ar  360  HIS360      0.1986
    200  NE2      -53.2940  -25.5040    7.3520 N.ar  360  HIS360     -0.2212
    201  N        -45.8580  -27.5730    9.8650 N.3   363  ILE363     -0.1245
    202  CA       -45.7480  -28.2850    8.5870 C.3   363  ILE363      0.1561
    203  C        -44.6570  -27.5690    7.8030 C.2   363  ILE363      0.2260
    204  O        -43.7670  -28.2000    7.2340 O.2   363  ILE363     -0.2867
    205  CB       -47.0430  -28.2240    7.7490 C.3   363  ILE363      0.0252
    206  CG1      -48.1650  -29.0250    8.4190 C.3   363  ILE363      0.0019
    207  CG2      -46.7910  -28.7630    6.3430 C.3   363  ILE363      0.0019
    208  CD1      -49.5500  -28.7450    7.8710 C.3   363  ILE363      0.0001
    209  N        -41.0410  -28.8200    5.7280 N.3   367  TYR367     -0.1241
    210  CA       -40.4930  -28.4100    4.4360 C.3   367  TYR367      0.1605
    211  C        -39.2470  -27.5290    4.5420 C.2   367  TYR367      0.2264
    212  O        -38.4400  -27.4980    3.6140 O.2   367  TYR367     -0.2867
    213  CB       -41.5480  -27.6790    3.6110 C.3   367  TYR367      0.0534
    214  CG       -42.6880  -28.5540    3.1360 C.ar  367  TYR367     -0.0201
    215  CD1      -42.4410  -29.7270    2.4360 C.ar  367  TYR367     -0.0009
    216  CD2      -44.0180  -28.1850    3.3580 C.ar  367  TYR367     -0.0009
    217  CE1      -43.4820  -30.5220    1.9950 C.ar  367  TYR367      0.0417
    218  CE2      -45.0660  -28.9690    2.9140 C.ar  367  TYR367      0.0417
    219  CZ       -44.7960  -30.1400    2.2360 C.ar  367  TYR367      0.1957
    220  OH       -45.8310  -30.9350    1.8010 O.3   367  TYR367     -0.2866
@<TRIPOS>BOND
     1    31    32    1
     2    37    35    1
     3    32    35    1
     4    32    33    1
     5    35    36    1
     6    79    78    1
     7    78    75    1
     8    33    38   am
     9    33    34    2
    10    38    39    1
    11    75    74    1
    12    75    76    1
    13    10    11    1
    14     1     2    1
    15    11    14    1
    16    11    12    1
    17    83    82    2
    18    14    15    1
    19    39    40    1
    20    39    42    1
    21    80    76   am
    22    80    81    1
    23    43    42    1
    24    43    44    1
    25    43    45    1
    26    40    41    2
    27    76    77    2
    28    87    86    1
    29    15    16    1
    30     2     3    1
    31     2     5    1
    32    12    13    2
    33    12    19   am
    34    85    86    1
    35    85    84    1
    36    82    81    1
    37    82    88   am
    38     3     4    2
    39    46    47    1
    40    81    84    1
    41     6     5    1
    42     6     7    1
    43    19    20    1
    44    18    17    1
    45    16    17    1
    46    89    88    1
    47    89    90    1
    48    89    92    1
    49    90    91    2
    50    95    93    1
    51     7     9   am
    52     7     8    2
    53    47    50    1
    54    47    48    1
    55    21    20    1
    56    21    22    2
    57    54    48   am
    58    54    55    1
    59    20    23    1
    60    50    51    1
    61    93    92    1
    62    93    94    1
    63    58    55    1
    64    58    59    1
    65    56    55    1
    66    56    57    2
    67    48    49    2
    68    60    59   ar
    69    60    62   ar
    70    23    24    1
    71    59    61   ar
    72    51    53   ar
    73    51    52   ar
    74    62    64   ar
    75    26    24   ar
    76    26    28   ar
    77    24    25   ar
    78   220   219    1
    79   217   219   ar
    80   217   215   ar
    81    28    29   ar
    82    25    27   ar
    83   219   218   ar
    84    61    63   ar
    85    66    67    1
    86   215   214   ar
    87    64    63   ar
    88    64    65    1
    89    29    27   ar
    90    29    30    1
    91   218   216   ar
    92   214   216   ar
    93   214   213    1
    94   213   210    1
    95   212   211    2
    96    67    68    1
    97    67    70    1
    98    68    69    2
    99    70    71    1
   100   210   211    1
   101   210   209    1
   102    71    72    1
   103    73    72    1
   104   125   123   ar
   105   125   124   ar
   106   123   121   ar
   107   199   197   ar
   108   199   200   ar
   109   207   205    1
   110   197   196   ar
   111   124   122   ar
   112   111   109    1
   113   121   120   ar
   114   121   119   ar
   115   204   203    2
   116   200   198   ar
   117   120   118   ar
   118   109   106    1
   119   109   110    1
   120   205   206    1
   121   205   202    1
   122   203   202    1
   123   208   206    1
   124   122   119   ar
   125   196   198   ar
   126   196   195    1
   127   119   117   ar
   128   106   105    1
   129   106   107    1
   130    96    97    1
   131   103   104    1
   132   103   102    1
   133   202   201    1
   134   194   193    2
   135   118   117   ar
   136   101   102    1
   137   101   100    1
   138   195   192    1
   139    97   100    1
   140    97    98    1
   141   117   116    1
   142   192   193    1
   143   192   191    1
   144   108   107    2
   145   143   142   ar
   146   143   141   ar
   147   142   140   ar
   148   131   133    1
   149   131   130    1
   150    98    99    2
   151   132   130    1
   152   116   113    1
   153   150   148    1
   154   191   185   am
   155   190   188    1
   156   141   139   ar
   157   140   139   ar
   158   186   185    2
   159   130   127    1
   160   159   160   ar
   161   159   157   ar
   162   188   189    1
   163   188   187    1
   164   162   160   ar
   165   162   164   ar
   166   185   184    1
   167   113   112    1
   168   113   114    1
   169   139   138    1
   170   148   149    1
   171   148   145    1
   172   171   169    1
   173   160   158   ar
   174   157   156   ar
   175   164   163   ar
   176   187   184    1
   177   182   180    1
   178   129   128    2
   179   127   128    1
   180   127   126    1
   181   115   114    2
   182   184   183    1
   183   128   134   am
   184   169   170    1
   185   169   166    1
   186   158   156   ar
   187   158   161   ar
   188   134   135    1
   189   156   155    1
   190   145   146    1
   191   145   144    1
   192   138   135    1
   193   135   136    1
   194   163   161   ar
   195   175   174    2
   196   147   146    2
   197   180   179    2
   198   180   181    1
   199   155   152    1
   200   179   178    1
   201   166   165    1
   202   166   167    1
   203   136   137    2
   204   174   173    1
   205   176   177    1
   206   176   173    1
   207   165   153   am
   208   154   153    2
   209   153   152    1
   210   168   167    2
   211   152   151    1
   212   177   178    1
   213   173   172    1
