@<TRIPOS>MOLECULE
tmp/4rwdB03.pdb
 66 60 0 0 0
SMALL
GASTEIGER

@<TRIPOS>ATOM
      1  N        -18.9800    3.4300    6.3620 N.3   110  SER110     -0.1217
      2  CA       -19.3510    2.2210    7.0850 C.3   110  SER110      0.1889
      3  C        -20.7420    1.7270    6.6710 C.2   110  SER110      0.2288
      4  O        -21.4980    2.4410    6.0080 O.2   110  SER110     -0.2866
      5  CB       -19.3410    2.5030    8.5800 C.3   110  SER110      0.2089
      6  OG       -20.3040    3.4900    8.9090 O.3   110  SER110     -0.2183
      7  N        -23.2610    1.3730    8.6130 N.3   112  SER112     -0.1202
      8  CA       -24.2280    2.2580    9.2790 C.3   112  SER112      0.2020
      9  C        -24.4580    3.4890    8.4450 C.2   112  SER112      0.2619
     10  O        -25.5880    3.9540    8.3160 O.2   112  SER112     -0.2717
     11  CB       -23.7440    2.7020   10.6620 C.3   112  SER112      0.2103
     12  OG       -23.5420    1.5890   11.5080 O.3   112  SER112     -0.2182
     13  N        -23.3770    4.0180    7.8850 N.am  113  SER113     -0.1951
     14  CA       -23.4600    5.2030    7.0410 C.3   113  SER113      0.1924
     15  C        -24.2950    4.9200    5.8010 C.2   113  SER113      0.2314
     16  O        -25.1960    5.6780    5.4760 O.2   113  SER113     -0.2863
     17  CB       -22.0610    5.6880    6.6630 C.3   113  SER113      0.2116
     18  OG       -22.0960    6.5190    5.5200 O.3   113  SER113     -0.2180
     19  N        -26.4690    2.5250    5.5610 N.3   115  ALA115     -0.1231
     20  CA       -27.8140    2.2670    6.0750 C.3   115  ALA115      0.1694
     21  C        -28.6110    3.5560    6.1710 C.2   115  ALA115      0.2591
     22  O        -29.7940    3.6000    5.8000 O.2   115  ALA115     -0.2718
     23  CB       -27.7540    1.6050    7.4380 C.3   115  ALA115      0.0304
     24  N        -27.9510    4.6010    6.6680 N.am  116  LEU116     -0.1980
     25  CA       -28.5680    5.9200    6.7820 C.3   116  LEU116      0.1596
     26  C        -28.9530    6.4740    5.4130 C.2   116  LEU116      0.2287
     27  O        -30.0350    7.0310    5.2510 O.2   116  LEU116     -0.2864
     28  CB       -27.6390    6.9020    7.5040 C.3   116  LEU116      0.0297
     29  CG       -28.2750    8.2630    7.8420 C.3   116  LEU116      0.0022
     30  CD1      -29.4390    8.1140    8.8090 C.3   116  LEU116      0.0001
     31  CD2      -27.2350    9.2300    8.4020 C.3   116  LEU116      0.0001
     32  N        -32.0890    4.5320    4.1920 N.3   119  ALA119     -0.1245
     33  CA       -33.2940    4.9270    4.9230 C.3   119  ALA119      0.1562
     34  C        -33.7930    6.3050    4.4880 C.2   119  ALA119      0.2260
     35  O        -34.9880    6.5000    4.2760 O.2   119  ALA119     -0.2867
     36  CB       -33.0320    4.9100    6.4170 C.3   119  ALA119      0.0290
     37  N        -20.0840   13.8940   15.1020 N.3   360  ARG360     -0.1245
     38  CA       -19.8160   12.6060   14.4560 C.3   360  ARG360      0.1563
     39  C        -20.4340   11.4240   15.2150 C.2   360  ARG360      0.2260
     40  O        -20.2710   10.2790   14.8090 O.2   360  ARG360     -0.2867
     41  CB       -18.3060   12.4040   14.2850 C.3   360  ARG360      0.0307
     42  CG       -18.0710   11.4120   13.1460 C.3   360  ARG360      0.0489
     43  CD       -16.5920   11.2320   12.9040 C.3   360  ARG360      0.2205
     44  NE       -15.8560   12.4680   13.0150 N.pl3 360  ARG360     -0.0865
     45  CZ       -15.5710   13.0900   11.9000 C.cat 360  ARG360      0.5346
     46  NH1      -15.9490   12.5700   10.7420 N.pl3 360  ARG360      0.1354
     47  NH2      -14.8920   14.2120   11.9630 N.pl3 360  ARG360      0.1354
     48  N        -23.0370    8.7680   15.9720 N.3   362  PRO362     -0.2116
     49  CA       -24.0830    8.0670   15.2180 C.3   362  PRO362      0.1372
     50  C        -25.5290    8.4810   15.5250 C.2   362  PRO362      0.2244
     51  O        -26.3420    8.5960   14.6110 O.2   362  PRO362     -0.2868
     52  CB       -23.8670    6.6100   15.6290 C.3   362  PRO362      0.0268
     53  CG       -22.4000    6.5110   15.8040 C.3   362  PRO362      0.0207
     54  CD       -21.9430    7.8430   16.3330 C.3   362  PRO362      0.0892
     55  N        -26.3080   12.2210   14.4480 N.3   365  VAL365     -0.1231
     56  CA       -26.4040   12.2990   12.9890 C.3   365  VAL365      0.1692
     57  C        -27.7070   11.6710   12.4850 C.2   365  VAL365      0.2591
     58  O        -28.3060   12.1570   11.5220 O.2   365  VAL365     -0.2718
     59  CB       -25.1720   11.6540   12.3070 C.3   365  VAL365      0.0266
     60  CG1      -25.3500   11.5640   10.7980 C.3   365  VAL365      0.0020
     61  CG2      -23.9220   12.4540   12.6300 C.3   365  VAL365      0.0020
     62  N        -28.1320   10.5900   13.1350 N.am  366  ALA366     -0.1980
     63  CA       -29.3740    9.9140   12.7760 C.3   366  ALA366      0.1597
     64  C        -30.5550   10.8100   13.0910 C.2   366  ALA366      0.2287
     65  O        -31.4440   10.9840   12.2660 O.2   366  ALA366     -0.2864
     66  CB       -29.4990    8.5960   13.5280 C.3   366  ALA366      0.0319
@<TRIPOS>BOND
     1    32    33    1
     2    35    34    2
     3    34    33    1
     4    33    36    1
     5    27    26    2
     6    26    25    1
     7    16    15    2
     8    18    17    1
     9    19    20    1
    10    22    21    2
    11    15    14    1
    12     4     3    2
    13    20    21    1
    14    20    23    1
    15    21    24   am
    16     1     2    1
    17    17    14    1
    18    24    25    1
    19     3     2    1
    20    25    28    1
    21    14    13    1
    22     2     5    1
    23    28    29    1
    24    29    31    1
    25    29    30    1
    26    13     9   am
    27    10     9    2
    28     9     8    1
    29     5     6    1
    30     7     8    1
    31     8    11    1
    32    11    12    1
    33    46    45    1
    34    60    59    1
    35    58    57    2
    36    45    47    1
    37    45    44    2
    38    65    64    2
    39    59    61    1
    40    59    56    1
    41    57    56    1
    42    57    62   am
    43    63    64    1
    44    63    62    1
    45    63    66    1
    46    43    44    1
    47    43    42    1
    48    56    55    1
    49    42    41    1
    50    41    38    1
    51    38    37    1
    52    38    39    1
    53    51    50    2
    54    40    39    2
    55    49    50    1
    56    49    52    1
    57    49    48    1
    58    52    53    1
    59    53    54    1
    60    48    54    1
