@<TRIPOS>MOLECULE
tmp/4rwdB04.pdb
 98 93 0 0 0
SMALL
GASTEIGER

@<TRIPOS>ATOM
      1  N        -57.5300   23.8760   -7.9370 N.3   142  ILE142     -0.1231
      2  CA       -57.7860   25.2990   -7.7080 C.3   142  ILE142      0.1692
      3  C        -57.9850   26.0740   -9.0240 C.2   142  ILE142      0.2591
      4  O        -58.8590   26.9320   -9.1120 O.2   142  ILE142     -0.2718
      5  CB       -56.6630   25.9400   -6.8680 C.3   142  ILE142      0.0266
      6  CG1      -56.6420   25.3330   -5.4620 C.3   142  ILE142      0.0019
      7  CG2      -56.8570   27.4480   -6.7660 C.3   142  ILE142      0.0020
      8  CD1      -55.3080   25.4660   -4.7630 C.3   142  ILE142      0.0001
      9  N        -57.1910   25.7560  -10.0430 N.am  143  VAL143     -0.1980
     10  CA       -57.2880   26.4230  -11.3440 C.3   143  VAL143      0.1595
     11  C        -58.5320   25.9650  -12.1060 C.2   143  VAL143      0.2287
     12  O        -59.2770   26.7830  -12.6420 O.2   143  VAL143     -0.2864
     13  CB       -56.0340   26.1510  -12.2130 C.3   143  VAL143      0.0276
     14  CG1      -56.2090   26.7070  -13.6200 C.3   143  VAL143      0.0022
     15  CG2      -54.7920   26.7510  -11.5770 C.3   143  VAL143      0.0022
     16  N        -62.1030   29.1570   -6.6440 N.3   149  LYS149     -0.1245
     17  CA       -61.5230   30.4990   -6.6260 C.3   149  LYS149      0.1561
     18  C        -61.9640   31.2980   -5.3940 C.2   149  LYS149      0.2260
     19  O        -62.9630   32.0160   -5.4220 O.2   149  LYS149     -0.2867
     20  CB       -61.8710   31.2550   -7.9070 C.3   149  LYS149      0.0271
     21  CG       -61.3360   30.5950   -9.1670 C.3   149  LYS149      0.0035
     22  CD       -61.2940   31.5700  -10.3370 C.3   149  LYS149      0.0206
     23  CE       -60.0300   32.4250  -10.3260 C.3   149  LYS149      0.1093
     24  NZ       -58.7960   31.6570  -10.6480 N.3   149  LYS149     -0.1314
     25  N        -56.4480   30.6010   -2.7990 N.3   154  ILE154     -0.1245
     26  CA       -55.3290   31.1790   -3.5500 C.3   154  ILE154      0.1561
     27  C        -54.0580   31.1060   -2.7010 C.2   154  ILE154      0.2260
     28  O        -52.9850   30.7970   -3.2110 O.2   154  ILE154     -0.2867
     29  CB       -55.5890   32.6430   -3.9800 C.3   154  ILE154      0.0252
     30  CG1      -56.8240   32.7430   -4.8920 C.3   154  ILE154      0.0019
     31  CG2      -54.3650   33.2290   -4.6830 C.3   154  ILE154      0.0019
     32  CD1      -56.7650   31.8790   -6.1300 C.3   154  ILE154      0.0001
     33  N        -52.8910   27.6220   -2.8610 N.3   157  PHE157     -0.1227
     34  CA       -52.1610   27.4300   -4.1210 C.3   157  PHE157      0.1736
     35  C        -50.6630   27.7270   -3.9530 C.2   157  PHE157      0.2595
     36  O        -49.8220   26.9990   -4.4650 O.2   157  PHE157     -0.2718
     37  CB       -52.7450   28.3100   -5.2330 C.3   157  PHE157      0.0547
     38  CG       -52.1280   28.0690   -6.5740 C.ar  157  PHE157     -0.0202
     39  CD1      -50.9210   28.6760   -6.9180 C.ar  157  PHE157     -0.0042
     40  CD2      -52.7400   27.2260   -7.4920 C.ar  157  PHE157     -0.0042
     41  CE1      -50.3420   28.4430   -8.1530 C.ar  157  PHE157     -0.0003
     42  CE2      -52.1650   26.9900   -8.7310 C.ar  157  PHE157     -0.0003
     43  CZ       -50.9660   27.5980   -9.0630 C.ar  157  PHE157     -0.0000
     44  N        -50.3490   28.7930   -3.2280 N.am  158  ASN158     -0.1974
     45  CA       -48.9670   29.1900   -2.9770 C.3   158  ASN158      0.1688
     46  C        -48.2070   28.1520   -2.1450 C.2   158  ASN158      0.2292
     47  O        -47.0220   27.9090   -2.3780 O.2   158  ASN158     -0.2864
     48  CB       -48.9260   30.5530   -2.2680 C.3   158  ASN158      0.1181
     49  CG       -47.8180   31.4400   -2.7810 C.2   158  ASN158      0.2629
     50  OD1      -47.5670   31.5010   -3.9830 O.2   158  ASN158     -0.2716
     51  ND2      -47.1600   32.1510   -1.8780 N.am  158  ASN158     -0.0877
     52  N        -47.5130   25.1590   -4.4220 N.3   161  LEU161     -0.1245
     53  CA       -46.4210   25.4790   -5.3440 C.3   161  LEU161      0.1561
     54  C        -45.0600   25.3290   -4.6680 C.2   161  LEU161      0.2260
     55  O        -44.1430   24.7210   -5.2290 O.2   161  LEU161     -0.2867
     56  CB       -46.5670   26.9030   -5.8930 C.3   161  LEU161      0.0270
     57  CG       -45.4610   27.4140   -6.8360 C.3   161  LEU161      0.0019
     58  CD1      -45.3230   26.5240   -8.0630 C.3   161  LEU161      0.0001
     59  CD2      -45.7240   28.8580   -7.2520 C.3   161  LEU161      0.0001
     60  N        -53.8590   36.6910   -4.7740 N.3   234  LYS234     -0.1245
     61  CA       -52.8530   36.4570   -5.8070 C.3   234  LYS234      0.1561
     62  C        -51.7460   37.4930   -5.7040 C.2   234  LYS234      0.2260
     63  O        -50.5720   37.1620   -5.7340 O.2   234  LYS234     -0.2867
     64  CB       -53.4950   36.5130   -7.1970 C.3   234  LYS234      0.0271
     65  CG       -52.6380   35.9830   -8.3380 C.3   234  LYS234      0.0035
     66  CD       -53.2510   36.3450   -9.6870 C.3   234  LYS234      0.0206
     67  CE       -54.4510   35.4660   -9.9930 C.3   234  LYS234      0.1093
     68  NZ       -55.1880   35.9320  -11.2030 N.3   234  LYS234     -0.1314
     69  N        -49.5520   36.7980   -2.8360 N.3   237  ASN237     -0.1225
     70  CA       -48.7210   35.6480   -3.1750 C.3   237  ASN237      0.1785
     71  C        -47.4570   36.0760   -3.9070 C.2   237  ASN237      0.2597
     72  O        -46.3500   35.6580   -3.5670 O.2   237  ASN237     -0.2718
     73  CB       -49.4900   34.6520   -4.0550 C.3   237  ASN237      0.1169
     74  CG       -50.4310   33.7610   -3.2660 C.2   237  ASN237      0.2627
     75  OD1      -50.4050   33.7250   -2.0300 O.2   237  ASN237     -0.2716
     76  ND2      -51.2570   33.0070   -3.9900 N.am  237  ASN237     -0.0877
     77  N        -47.6300   36.9070   -4.9230 N.am  238  ILE238     -0.1980
     78  CA       -46.5050   37.3900   -5.7110 C.3   238  ILE238      0.1595
     79  C        -45.5180   38.1410   -4.8050 C.2   238  ILE238      0.2287
     80  O        -44.3250   37.8560   -4.8140 O.2   238  ILE238     -0.2864
     81  CB       -47.0140   38.2480   -6.8960 C.3   238  ILE238      0.0276
     82  CG1      -47.6610   37.3290   -7.9420 C.3   238  ILE238      0.0022
     83  CG2      -45.8910   39.0670   -7.5310 C.3   238  ILE238      0.0022
     84  CD1      -48.6530   38.0220   -8.8550 C.3   238  ILE238      0.0001
     85  N        -43.3220   35.8870   -2.8520 N.3   241  TRP241     -0.1241
     86  CA       -42.1990   35.3810   -3.6380 C.3   241  TRP241      0.1605
     87  C        -41.1260   36.4430   -3.8580 C.2   241  TRP241      0.2264
     88  O        -39.9440   36.1460   -3.7800 O.2   241  TRP241     -0.2867
     89  CB       -42.6750   34.7930   -4.9740 C.3   241  TRP241      0.0550
     90  CG       -43.2740   33.4400   -4.8100 C.ar  241  TRP241      0.0003
     91  CD1      -44.5820   33.1460   -4.5990 C.ar  241  TRP241      0.0946
     92  CD2      -42.5710   32.1900   -4.7980 C.ar  241  TRP241      0.0152
     93  NE1      -44.7460   31.7890   -4.4680 N.ar  241  TRP241     -0.2442
     94  CE2      -43.5270   31.1790   -4.5940 C.ar  241  TRP241      0.0810
     95  CE3      -41.2210   31.8300   -4.9460 C.ar  241  TRP241      0.0012
     96  CZ2      -43.1870   29.8350   -4.5340 C.ar  241  TRP241      0.0191
     97  CZ3      -40.8810   30.4900   -4.8970 C.ar  241  TRP241      0.0001
     98  CH2      -41.8610   29.5090   -4.6890 C.ar  241  TRP241      0.0015
@<TRIPOS>BOND
     1    14    13    1
     2    12    11    2
     3    13    15    1
     4    13    10    1
     5    11    10    1
     6    10     9    1
     7    68    67    1
     8    24    23    1
     9    22    23    1
    10    22    21    1
    11     9     3   am
    12    67    66    1
    13    66    65    1
    14    21    20    1
    15     4     3    2
    16    43    42   ar
    17    43    41   ar
    18     3     2    1
    19    84    82    1
    20    42    40   ar
    21    65    64    1
    22    41    39   ar
    23    58    57    1
    24    82    81    1
    25     1     2    1
    26    20    17    1
    27     2     5    1
    28    83    81    1
    29    40    38   ar
    30    59    57    1
    31    64    61    1
    32    39    38   ar
    33    81    78    1
    34     5     7    1
    35     5     6    1
    36    57    56    1
    37    16    17    1
    38    17    18    1
    39    38    37    1
    40    32    30    1
    41    56    53    1
    42    61    62    1
    43    61    60    1
    44    63    62    2
    45    78    77    1
    46    78    79    1
    47     6     8    1
    48    19    18    2
    49    53    54    1
    50    53    52    1
    51    37    34    1
    52    55    54    2
    53    89    90    1
    54    89    86    1
    55    95    97   ar
    56    95    92   ar
    57    77    71   am
    58    97    98   ar
    59    30    29    1
    60    80    79    2
    61    90    92   ar
    62    90    91   ar
    63    92    94   ar
    64    98    96   ar
    65    31    29    1
    66    91    93   ar
    67    94    96   ar
    68    94    93   ar
    69    36    35    2
    70    34    35    1
    71    34    33    1
    72    73    74    1
    73    73    70    1
    74    76    74   am
    75    50    49    2
    76    29    26    1
    77    35    44   am
    78    71    72    2
    79    71    70    1
    80    87    88    2
    81    87    86    1
    82    86    85    1
    83    26    25    1
    84    26    27    1
    85    74    75    2
    86    44    45    1
    87    28    27    2
    88    70    69    1
    89    45    48    1
    90    45    46    1
    91    49    48    1
    92    49    51   am
    93    47    46    2
