@<TRIPOS>MOLECULE
tmp/4rwdA02.pdb
 73 68 0 0 0
SMALL
GASTEIGER

@<TRIPOS>ATOM
      1  N        -47.3630   -3.9460   35.9480 N.3   339  VAL339     -0.1231
      2  CA       -46.4770   -4.2430   34.8190 C.3   339  VAL339      0.1692
      3  C        -45.9050   -2.9460   34.2370 C.2   339  VAL339      0.2591
      4  O        -44.7010   -2.8430   33.9880 O.2   339  VAL339     -0.2718
      5  CB       -47.2010   -5.0390   33.7050 C.3   339  VAL339      0.0266
      6  CG1      -46.3100   -5.1770   32.4780 C.3   339  VAL339      0.0020
      7  CG2      -47.6160   -6.4180   34.1990 C.3   339  VAL339      0.0020
      8  N        -46.7750   -1.9660   34.0190 N.am  340  VAL340     -0.1980
      9  CA       -46.3550   -0.6560   33.5320 C.3   340  VAL340      0.1595
     10  C        -45.2860   -0.0530   34.4470 C.2   340  VAL340      0.2287
     11  O        -44.2540    0.4120   33.9740 O.2   340  VAL340     -0.2864
     12  CB       -47.5580    0.3130   33.4190 C.3   340  VAL340      0.0276
     13  CG1      -47.0980    1.7550   33.2430 C.3   340  VAL340      0.0022
     14  CG2      -48.4660   -0.1000   32.2660 C.3   340  VAL340      0.0022
     15  N        -41.9600   -2.7820   34.5520 N.3   343  ALA343     -0.1231
     16  CA       -41.2730   -3.2360   33.3370 C.3   343  ALA343      0.1679
     17  C        -40.0400   -2.3960   32.9820 C.2   343  ALA343      0.2434
     18  O        -38.9940   -2.9550   32.6340 O.2   343  ALA343     -0.2733
     19  CB       -42.2320   -3.2980   32.1560 C.3   343  ALA343      0.0304
     20  N        -40.1460   -1.0580   33.0750 N.am  344  PRO344     -0.2729
     21  CA       -38.9950   -0.2380   32.6760 C.3   344  PRO344      0.1401
     22  C        -37.7140   -0.5580   33.4580 C.2   344  PRO344      0.2269
     23  O        -36.6840   -0.8510   32.8560 O.2   344  PRO344     -0.2865
     24  CB       -39.4620    1.2020   32.9480 C.3   344  PRO344      0.0296
     25  CG       -40.9490    1.1340   32.9730 C.3   344  PRO344      0.0237
     26  CD       -41.2890   -0.2330   33.4950 C.3   344  PRO344      0.0939
     27  N        -36.3090   -4.1270   32.6380 N.3   347  ILE347     -0.1231
     28  CA       -35.5950   -4.1340   31.3670 C.3   347  ILE347      0.1692
     29  C        -34.2420   -3.4200   31.5310 C.2   347  ILE347      0.2592
     30  O        -33.2140   -3.9230   31.0730 O.2   347  ILE347     -0.2718
     31  CB       -36.4360   -3.5060   30.2190 C.3   347  ILE347      0.0266
     32  CG1      -37.6470   -4.3910   29.9030 C.3   347  ILE347      0.0019
     33  CG2      -35.6060   -3.3420   28.9500 C.3   347  ILE347      0.0020
     34  CD1      -38.7020   -3.7170   29.0480 C.3   347  ILE347      0.0001
     35  N        -34.2510   -2.2690   32.2050 N.am  348  PHE348     -0.1976
     36  CA       -33.0430   -1.4600   32.3870 C.3   348  PHE348      0.1639
     37  C        -31.9450   -2.2550   33.0750 C.2   348  PHE348      0.2290
     38  O        -30.7850   -2.1730   32.6940 O.2   348  PHE348     -0.2864
     39  CB       -33.3370   -0.2010   33.2190 C.3   348  PHE348      0.0560
     40  CG       -32.6480    1.0430   32.7190 C.ar  348  PHE348     -0.0200
     41  CD1      -31.3000    1.0390   32.3830 C.ar  348  PHE348     -0.0042
     42  CD2      -33.3550    2.2320   32.5980 C.ar  348  PHE348     -0.0042
     43  CE1      -30.6770    2.1880   31.9220 C.ar  348  PHE348     -0.0003
     44  CE2      -32.7350    3.3830   32.1420 C.ar  348  PHE348     -0.0003
     45  CZ       -31.3950    3.3610   31.8040 C.ar  348  PHE348     -0.0000
     46  N        -30.3120   -4.7300   30.7130 N.3   351  VAL351     -0.1245
     47  CA       -29.4960   -3.9640   29.7630 C.3   351  VAL351      0.1561
     48  C        -28.2230   -3.4360   30.4370 C.2   351  VAL351      0.2260
     49  O        -27.1220   -3.5760   29.9110 O.2   351  VAL351     -0.2867
     50  CB       -30.3110   -2.7970   29.1510 C.3   351  VAL351      0.0252
     51  CG1      -29.4150   -1.7960   28.4350 C.3   351  VAL351      0.0019
     52  CG2      -31.3690   -3.3390   28.2010 C.3   351  VAL351      0.0019
     53  N        -22.9920   -0.1720   27.9970 N.3   357  ILE357     -0.1245
     54  CA       -23.5540    1.1710   27.9050 C.3   357  ILE357      0.1561
     55  C        -22.7510    2.1040   28.7980 C.2   357  ILE357      0.2260
     56  O        -22.0650    1.6610   29.7240 O.2   357  ILE357     -0.2867
     57  CB       -25.0470    1.2180   28.3040 C.3   357  ILE357      0.0252
     58  CG1      -25.2590    0.7030   29.7330 C.3   357  ILE357      0.0019
     59  CG2      -25.8830    0.4120   27.3210 C.3   357  ILE357      0.0019
     60  CD1      -26.6350    1.0050   30.2790 C.3   357  ILE357      0.0001
     61  N        -28.4550    8.5600   31.1880 N.3   364  VAL364     -0.1245
     62  CA       -28.6810    7.1640   31.5360 C.3   364  VAL364      0.1561
     63  C        -28.9270    7.0200   33.0440 C.2   364  VAL364      0.2260
     64  O        -29.8350    6.3060   33.4640 O.2   364  VAL364     -0.2867
     65  CB       -27.5000    6.2740   31.0830 C.3   364  VAL364      0.0252
     66  CG1      -27.5970    4.8770   31.6840 C.3   364  VAL364      0.0019
     67  CG2      -27.4580    6.1860   29.5640 C.3   364  VAL364      0.0019
     68  N        -36.6450    5.2470   36.6530 N.3   371  CYS371     -0.1235
     69  CA       -37.2410    3.9190   36.5150 C.3   371  CYS371      0.1677
     70  C        -37.3050    3.1800   37.8540 C.2   371  CYS371      0.2270
     71  O        -38.3000    2.5210   38.1400 O.2   371  CYS371     -0.2867
     72  CB       -36.4840    3.0860   35.4700 C.3   371  CYS371      0.0956
     73  SG       -36.7440    3.5930   33.7510 S.3   371  CYS371     -0.0801
@<TRIPOS>BOND
     1    59    57    1
     2    54    53    1
     3    54    57    1
     4    54    55    1
     5    52    50    1
     6    57    58    1
     7    51    50    1
     8    55    56    2
     9    33    31    1
    10    34    32    1
    11    50    47    1
    12    67    65    1
    13    58    60    1
    14    47    48    1
    15    47    46    1
    16    32    31    1
    17    49    48    2
    18    31    28    1
    19    30    29    2
    20    65    62    1
    21    65    66    1
    22    61    62    1
    23    28    29    1
    24    28    27    1
    25    29    35   am
    26    62    63    1
    27    45    43   ar
    28    45    44   ar
    29    43    41   ar
    30    44    42   ar
    31    19    16    1
    32    35    36    1
    33    14    12    1
    34    41    40   ar
    35    36    37    1
    36    36    39    1
    37     6     5    1
    38    42    40   ar
    39    18    17    2
    40    21    24    1
    41    21    20    1
    42    21    22    1
    43    38    37    2
    44    40    39    1
    45    23    22    2
    46    24    25    1
    47    25    26    1
    48    17    20   am
    49    17    16    1
    50    63    64    2
    51    20    26    1
    52    13    12    1
    53    16    15    1
    54    12     9    1
    55     9     8    1
    56     9    10    1
    57     5     7    1
    58     5     2    1
    59    73    72    1
    60    11    10    2
    61     4     3    2
    62     8     3   am
    63     3     2    1
    64     2     1    1
    65    72    69    1
    66    69    68    1
    67    69    70    1
    68    70    71    2
