@<TRIPOS>MOLECULE
tmp/4rwdB05.pdb
 89 84 0 0 0
SMALL
GASTEIGER

@<TRIPOS>ATOM
      1  N        -44.4110   32.7300    5.4010 N.3   205  PHE205     -0.1241
      2  CA       -44.9820   34.0060    5.0110 C.3   205  PHE205      0.1605
      3  C        -46.4250   33.8400    4.5350 C.2   205  PHE205      0.2264
      4  O        -47.2720   34.6830    4.8080 O.2   205  PHE205     -0.2867
      5  CB       -44.1580   34.6650    3.8960 C.3   205  PHE205      0.0534
      6  CG       -42.8300   35.1970    4.3380 C.ar  205  PHE205     -0.0203
      7  CD1      -42.4500   35.1980    5.6780 C.ar  205  PHE205     -0.0042
      8  CD2      -41.9620   35.7400    3.4050 C.ar  205  PHE205     -0.0042
      9  CE1      -41.2170   35.7070    6.0680 C.ar  205  PHE205     -0.0003
     10  CE2      -40.7320   36.2520    3.7880 C.ar  205  PHE205     -0.0003
     11  CZ       -40.3600   36.2360    5.1220 C.ar  205  PHE205     -0.0000
     12  N        -48.5960   32.9940    7.5320 N.3   208  THR208     -0.1203
     13  CA       -48.7770   34.2370    8.2770 C.3   208  THR208      0.1994
     14  C        -49.9420   35.0110    7.6750 C.2   208  THR208      0.2617
     15  O        -50.8680   35.3980    8.3800 O.2   208  THR208     -0.2717
     16  CB       -47.4930   35.0950    8.2390 C.3   208  THR208      0.1784
     17  OG1      -46.4080   34.3370    8.7790 O.3   208  THR208     -0.2211
     18  CG2      -47.6420   36.3620    9.0380 C.3   208  THR208      0.0376
     19  N        -49.8940   35.2090    6.3630 N.am  209  MET209     -0.1979
     20  CA       -50.9370   35.9360    5.6540 C.3   209  MET209      0.1605
     21  C        -52.3010   35.2370    5.6620 C.2   209  MET209      0.2287
     22  O        -53.3230   35.9140    5.5820 O.2   209  MET209     -0.2864
     23  CB       -50.5060   36.2200    4.2130 C.3   209  MET209      0.0413
     24  CG       -49.3850   37.2390    4.0990 C.3   209  MET209      0.0598
     25  SD       -49.6840   38.8100    4.9430 S.3   209  MET209     -0.1393
     26  CE       -51.2400   39.3160    4.2080 C.3   209  MET209      0.0692
     27  N        -50.7890   39.2330   -3.1270 N.3   236  ILE236     -0.1245
     28  CA       -49.9970   39.0100   -1.9250 C.3   236  ILE236      0.1561
     29  C        -49.0770   37.8070   -2.1130 C.2   236  ILE236      0.2260
     30  O        -47.9550   37.7990   -1.6140 O.2   236  ILE236     -0.2867
     31  CB       -50.9030   38.8390   -0.6950 C.3   236  ILE236      0.0252
     32  CG1      -51.5560   40.1890   -0.3720 C.3   236  ILE236      0.0019
     33  CG2      -50.1220   38.3290    0.5070 C.3   236  ILE236      0.0019
     34  CD1      -52.6800   40.1190    0.6390 C.3   236  ILE236      0.0001
     35  N        -46.0360   39.0760   -4.0160 N.3   239  CYS239     -0.1221
     36  CA       -45.2400   39.8130   -3.0360 C.3   239  CYS239      0.1808
     37  C        -44.4300   38.8850   -2.1290 C.2   239  CYS239      0.2601
     38  O        -43.2640   39.1570   -1.8180 O.2   239  CYS239     -0.2717
     39  CB       -46.1430   40.7200   -2.1820 C.3   239  CYS239      0.0970
     40  SG       -46.8260   42.1330   -3.0910 S.3   239  CYS239     -0.0800
     41  N        -45.0610   37.8000   -1.6990 N.am  240  ILE240     -0.1979
     42  CA       -44.3860   36.8160   -0.8670 C.3   240  ILE240      0.1595
     43  C        -43.1570   36.2540   -1.5890 C.2   240  ILE240      0.2287
     44  O        -42.0700   36.1790   -1.0100 O.2   240  ILE240     -0.2864
     45  CB       -45.3590   35.7120   -0.4000 C.3   240  ILE240      0.0276
     46  CG1      -46.2140   36.2700    0.7390 C.3   240  ILE240      0.0022
     47  CG2      -44.6020   34.4770    0.0730 C.3   240  ILE240      0.0022
     48  CD1      -47.4100   35.4280    1.1150 C.3   240  ILE240      0.0001
     49  N        -40.4550   38.9850   -1.8910 N.3   243  LEU243     -0.1245
     50  CA       -39.8170   39.2320   -0.6010 C.3   243  LEU243      0.1561
     51  C        -38.8660   38.1030   -0.2460 C.2   243  LEU243      0.2260
     52  O        -37.7270   38.3460    0.1640 O.2   243  LEU243     -0.2867
     53  CB       -40.8680   39.3810    0.4970 C.3   243  LEU243      0.0270
     54  CG       -40.3450   39.7330    1.8910 C.3   243  LEU243      0.0019
     55  CD1      -39.6880   41.1030    1.8890 C.3   243  LEU243      0.0001
     56  CD2      -41.4740   39.6880    2.9060 C.3   243  LEU243      0.0001
     57  N        -36.4420   35.3100   11.1500 N.3   288  PHE288     -0.1241
     58  CA       -37.3730   35.8650   10.1660 C.3   288  PHE288      0.1605
     59  C        -38.2200   34.8340    9.4230 C.2   288  PHE288      0.2264
     60  O        -39.2560   35.1910    8.8550 O.2   288  PHE288     -0.2867
     61  CB       -36.6310   36.7710    9.1730 C.3   288  PHE288      0.0534
     62  CG       -35.9520   37.9530    9.8240 C.ar  288  PHE288     -0.0203
     63  CD1      -36.6830   38.8600   10.5830 C.ar  288  PHE288     -0.0042
     64  CD2      -34.5850   38.1550    9.6830 C.ar  288  PHE288     -0.0042
     65  CE1      -36.0610   39.9410   11.1880 C.ar  288  PHE288     -0.0003
     66  CE2      -33.9580   39.2330   10.2840 C.ar  288  PHE288     -0.0003
     67  CZ       -34.6970   40.1280   11.0370 C.ar  288  PHE288     -0.0000
     68  N        -40.3660   35.0580   14.4340 N.3   292  VAL292     -0.1231
     69  CA       -41.1650   36.2760   14.2500 C.3   292  VAL292      0.1678
     70  C        -42.5210   35.9980   13.5750 C.2   292  VAL292      0.2434
     71  O        -43.5390   36.5080   14.0330 O.2   292  VAL292     -0.2733
     72  CB       -40.3870   37.3750   13.4800 C.3   292  VAL292      0.0265
     73  CG1      -41.3010   38.5410   13.1030 C.3   292  VAL292      0.0020
     74  CG2      -39.2070   37.8600   14.3070 C.3   292  VAL292      0.0020
     75  N        -42.5370   35.2070   12.4810 N.am  293  PRO293     -0.2729
     76  CA       -43.8230   34.8580   11.8770 C.3   293  PRO293      0.1401
     77  C        -44.7590   34.1260   12.8290 C.2   293  PRO293      0.2269
     78  O        -45.9640   34.3530   12.7880 O.2   293  PRO293     -0.2865
     79  CB       -43.4290   33.9440   10.7180 C.3   293  PRO293      0.0296
     80  CG       -42.0690   34.4000   10.3360 C.3   293  PRO293      0.0237
     81  CD       -41.4080   34.7790   11.6310 C.3   293  PRO293      0.0939
     82  N        -46.4850   36.6080   15.1750 N.3   296  ILE296     -0.1245
     83  CA       -47.5640   37.2890   14.4680 C.3   296  ILE296      0.1561
     84  C        -48.8040   36.3870   14.3830 C.2   296  ILE296      0.2260
     85  O        -49.9200   36.8340   14.6780 O.2   296  ILE296     -0.2867
     86  CB       -47.1290   37.7390   13.0550 C.3   296  ILE296      0.0252
     87  CG1      -45.9790   38.7540   13.1440 C.3   296  ILE296      0.0019
     88  CG2      -48.3050   38.3530   12.3040 C.3   296  ILE296      0.0019
     89  CD1      -45.2040   38.9270   11.8530 C.3   296  ILE296      0.0001
@<TRIPOS>BOND
     1    35    36    1
     2    27    28    1
     3    40    39    1
     4    36    39    1
     5    36    37    1
     6    37    38    2
     7    37    41   am
     8    29    28    1
     9    29    30    2
    10    28    31    1
    11    49    50    1
    12    41    42    1
    13    43    44    2
    14    43    42    1
    15    42    45    1
    16    31    32    1
    17    31    33    1
    18    50    51    1
    19    50    53    1
    20    45    47    1
    21    45    46    1
    22    32    34    1
    23    51    52    2
    24    53    54    1
    25    46    48    1
    26    55    54    1
    27    54    56    1
    28     8    10   ar
    29     8     6   ar
    30    10    11   ar
    31     5     6    1
    32     5     2    1
    33    24    23    1
    34    24    25    1
    35    26    25    1
    36    23    20    1
    37     6     7   ar
    38     3     4    2
    39     3     2    1
    40     2     1    1
    41    11     9   ar
    42    22    21    2
    43    20    21    1
    44    20    19    1
    45     7     9   ar
    46    19    14   am
    47    12    13    1
    48    14    13    1
    49    14    15    2
    50    16    13    1
    51    16    17    1
    52    16    18    1
    53    60    59    2
    54    61    62    1
    55    61    58    1
    56    59    58    1
    57    64    62   ar
    58    64    66   ar
    59    62    63   ar
    60    58    57    1
    61    66    67   ar
    62    80    79    1
    63    80    81    1
    64    63    65   ar
    65    79    76    1
    66    67    65   ar
    67    81    75    1
    68    89    87    1
    69    76    75    1
    70    76    77    1
    71    88    86    1
    72    75    70   am
    73    78    77    2
    74    86    87    1
    75    86    83    1
    76    73    72    1
    77    72    69    1
    78    72    74    1
    79    70    71    2
    80    70    69    1
    81    69    68    1
    82    84    83    1
    83    84    85    2
    84    83    82    1
