@<TRIPOS>MOLECULE
tmp/4rwjB00.pdb
 197 186 0 0 0
SMALL
GASTEIGER

@<TRIPOS>ATOM
      1  N        -50.7600   20.1400   40.4250 N.3    26  LEU26      -0.1231
      2  CA       -51.0230   20.9830   39.2670 C.3    26  LEU26       0.1693
      3  C        -51.8040   20.1730   38.2450 C.2    26  LEU26       0.2592
      4  O        -51.5820   18.9720   38.0860 O.2    26  LEU26      -0.2718
      5  CB       -49.7280   21.5160   38.6580 C.3    26  LEU26       0.0284
      6  CG       -49.4390   22.9970   38.9190 C.3    26  LEU26       0.0019
      7  CD1      -48.1100   23.3990   38.2950 C.3    26  LEU26       0.0001
      8  CD2      -50.5740   23.8810   38.4250 C.3    26  LEU26       0.0001
      9  N        -52.7030   20.8470   37.5380 N.am   27  GLY27      -0.1957
     10  CA       -53.5910   20.1900   36.6020 C.3    27  GLY27       0.1869
     11  C        -54.8880   19.9410   37.3450 C.2    27  GLY27       0.2309
     12  O        -55.6460   20.8840   37.5730 O.2    27  GLY27      -0.2863
     13  N        -50.1050   15.5620   32.5900 N.3    31  PHE31      -0.1241
     14  CA       -48.6690   15.4230   32.3790 C.3    31  PHE31       0.1605
     15  C        -48.0160   14.4350   33.3470 C.2    31  PHE31       0.2264
     16  O        -46.7910   14.3640   33.4260 O.2    31  PHE31      -0.2867
     17  CB       -47.9850   16.7890   32.4870 C.3    31  PHE31       0.0534
     18  CG       -48.6320   17.8580   31.6500 C.ar   31  PHE31      -0.0203
     19  CD1      -48.5050   17.8480   30.2700 C.ar   31  PHE31      -0.0042
     20  CD2      -49.3590   18.8770   32.2420 C.ar   31  PHE31      -0.0042
     21  CE1      -49.1000   18.8290   29.4930 C.ar   31  PHE31      -0.0003
     22  CE2      -49.9530   19.8640   31.4720 C.ar   31  PHE31      -0.0003
     23  CZ       -49.8220   19.8400   30.0950 C.ar   31  PHE31      -0.0000
     24  N        -48.0550   16.3020   38.5680 N.3    34  VAL34      -0.1245
     25  CA       -47.1920   17.4670   38.6200 C.3    34  VAL34       0.1561
     26  C        -47.6600   18.3700   39.7480 C.2    34  VAL34       0.2260
     27  O        -48.8460   18.6840   39.8420 O.2    34  VAL34      -0.2867
     28  CB       -47.1960   18.2410   37.2860 C.3    34  VAL34       0.0252
     29  CG1      -46.3450   19.5000   37.3900 C.3    34  VAL34       0.0019
     30  CG2      -46.7080   17.3490   36.1520 C.3    34  VAL34       0.0019
     31  N        -42.6030   23.8720   38.3910 N.3    54  ALA54      -0.1245
     32  CA       -43.4200   22.6720   38.2990 C.3    54  ALA54       0.1562
     33  C        -42.5520   21.4400   38.5150 C.2    54  ALA54       0.2260
     34  O        -41.4380   21.3570   38.0000 O.2    54  ALA54      -0.2867
     35  CB       -44.1210   22.6040   36.9530 C.3    54  ALA54       0.0290
     36  N        -42.4520   17.2290   38.3820 N.3    56  LYS56      -0.1245
     37  CA       -43.0140   15.9350   38.0250 C.3    56  LYS56       0.1561
     38  C        -42.3490   14.8340   38.8400 C.2    56  LYS56       0.2260
     39  O        -41.1340   14.8430   39.0410 O.2    56  LYS56      -0.2867
     40  CB       -42.8510   15.6660   36.5280 C.3    56  LYS56       0.0271
     41  CG       -43.5060   14.3770   36.0550 C.3    56  LYS56       0.0035
     42  CD       -43.6090   14.3270   34.5380 C.3    56  LYS56       0.0206
     43  CE       -44.0540   12.9520   34.0680 C.3    56  LYS56       0.1093
     44  NZ       -44.2980   12.9230   32.6020 N.3    56  LYS56      -0.1314
     45  N        -39.6000    8.1370   33.2020 N.3    70  LEU70      -0.1245
     46  CA       -39.4120    9.4680   33.7670 C.3    70  LEU70       0.1561
     47  C        -37.9540    9.9120   33.6600 C.2    70  LEU70       0.2260
     48  O        -37.6690   11.0770   33.3820 O.2    70  LEU70      -0.2867
     49  CB       -39.8740    9.5000   35.2250 C.3    70  LEU70       0.0270
     50  CG       -39.7740   10.8520   35.9320 C.3    70  LEU70       0.0019
     51  CD1      -40.4670   11.9350   35.1190 C.3    70  LEU70       0.0001
     52  CD2      -40.3610   10.7650   37.3330 C.3    70  LEU70       0.0001
     53  N        -37.3360   10.6240   30.0100 N.3    73  GLU73      -0.1231
     54  CA       -37.9430   11.9170   29.7180 C.3    73  GLU73       0.1699
     55  C        -37.0270   13.0690   30.1220 C.2    73  GLU73       0.2592
     56  O        -36.8310   14.0150   29.3590 O.2    73  GLU73      -0.2718
     57  CB       -39.2880   12.0430   30.4350 C.3    73  GLU73       0.0402
     58  CG       -40.0440   13.3200   30.1240 C.3    73  GLU73       0.1161
     59  CD       -41.4220   13.3410   30.7550 C.2    73  GLU73       0.3649
     60  OE1      -42.1480   14.3410   30.5720 O.co2  73  GLU73      -0.2457
     61  OE2      -41.7790   12.3540   31.4330 O.co2  73  GLU73      -0.2457
     62  N        -36.4710   12.9810   31.3270 N.am   74  MET74      -0.1979
     63  CA       -35.5730   14.0080   31.8440 C.3    74  MET74       0.1605
     64  C        -34.3100   14.1220   30.9950 C.2    74  MET74       0.2287
     65  O        -33.8800   15.2230   30.6510 O.2    74  MET74      -0.2864
     66  CB       -35.1990   13.7110   33.2980 C.3    74  MET74       0.0413
     67  CG       -34.1980   14.6910   33.8960 C.3    74  MET74       0.0598
     68  SD       -33.6510   14.2290   35.5530 S.3    74  MET74      -0.1393
     69  CE       -32.8780   12.6470   35.2180 C.3    74  MET74       0.0692
     70  N        -34.6970   15.8460   27.6630 N.3    77  MET77      -0.1245
     71  CA       -34.8120   17.2900   27.8160 C.3    77  MET77       0.1570
     72  C        -33.4340   17.9240   27.9790 C.2    77  MET77       0.2261
     73  O        -33.2110   19.0570   27.5540 O.2    77  MET77      -0.2867
     74  CB       -35.7110   17.6380   29.0040 C.3    77  MET77       0.0387
     75  CG       -37.1560   17.1940   28.8200 C.3    77  MET77       0.0595
     76  SD       -38.2280   17.6060   30.2090 S.3    77  MET77      -0.1393
     77  CE       -38.3420   19.3830   30.0210 C.3    77  MET77       0.0692
     78  N        -41.3230   23.9580   27.3050 N.3    87  ILE87      -0.1245
     79  CA       -41.1730   23.7350   28.7370 C.3    87  ILE87       0.1561
     80  C        -39.7520   23.2600   29.0070 C.2    87  ILE87       0.2260
     81  O        -39.3730   22.1640   28.5940 O.2    87  ILE87      -0.2867
     82  CB       -42.1760   22.6960   29.2740 C.3    87  ILE87       0.0252
     83  CG1      -43.6100   23.2210   29.1660 C.3    87  ILE87       0.0019
     84  CG2      -41.8510   22.3410   30.7160 C.3    87  ILE87       0.0019
     85  CD1      -43.9060   24.3930   30.0790 C.3    87  ILE87       0.0001
     86  N        -38.3400   15.8330   38.9310 N.3   101  VAL101     -0.1245
     87  CA       -37.9220   16.5310   37.7240 C.3   101  VAL101      0.1561
     88  C        -38.5240   17.9290   37.7180 C.2   101  VAL101      0.2260
     89  O        -39.7410   18.0940   37.6640 O.2   101  VAL101     -0.2867
     90  CB       -38.3380   15.7790   36.4490 C.3   101  VAL101      0.0252
     91  CG1      -37.8280   16.5120   35.2180 C.3   101  VAL101      0.0019
     92  CG2      -37.8050   14.3560   36.4790 C.3   101  VAL101      0.0019
     93  N        -39.2610   21.5420   36.1940 N.3   103  VAL103     -0.1231
     94  CA       -39.4160   22.2270   34.9170 C.3   103  VAL103      0.1692
     95  C        -40.0920   23.5810   35.1010 C.2   103  VAL103      0.2592
     96  O        -40.4660   23.9540   36.2140 O.2   103  VAL103     -0.2718
     97  CB       -40.2340   21.3830   33.9190 C.3   103  VAL103      0.0266
     98  CG1      -39.5120   20.0800   33.5980 C.3   103  VAL103      0.0020
     99  CG2      -41.6190   21.1080   34.4720 C.3   103  VAL103      0.0020
    100  N        -40.2460   24.3140   34.0030 N.am  104  GLU104     -0.1966
    101  CA       -40.8370   25.6470   34.0450 C.3   104  GLU104      0.1733
    102  C        -42.3330   25.6100   34.3370 C.2   104  GLU104      0.2616
    103  O        -43.0410   24.6930   33.9210 O.2   104  GLU104     -0.2715
    104  CB       -40.5750   26.3830   32.7310 C.3   104  GLU104      0.0429
    105  CG       -39.1480   26.8910   32.5960 C.3   104  GLU104      0.1163
    106  CD       -38.8870   27.5520   31.2600 C.2   104  GLU104      0.3649
    107  OE1      -38.0690   28.4940   31.2110 O.co2 104  GLU104     -0.2457
    108  OE2      -39.4970   27.1270   30.2580 O.co2 104  GLU104     -0.2457
    109  N        -42.8020   26.6250   35.0530 N.am  105  TYR105     -0.1960
    110  CA       -44.1890   26.6940   35.4890 C.3   105  TYR105      0.1771
    111  C        -44.9950   27.6780   34.6460 C.2   105  TYR105      0.2619
    112  O        -44.6280   28.8450   34.5120 O.2   105  TYR105     -0.2715
    113  CB       -44.2490   27.0790   36.9700 C.3   105  TYR105      0.0574
    114  CG       -45.6160   27.4960   37.4640 C.ar  105  TYR105     -0.0198
    115  CD1      -46.6750   26.5960   37.4860 C.ar  105  TYR105     -0.0009
    116  CD2      -45.8430   28.7860   37.9250 C.ar  105  TYR105     -0.0009
    117  CE1      -47.9240   26.9740   37.9460 C.ar  105  TYR105      0.0417
    118  CE2      -47.0870   29.1730   38.3870 C.ar  105  TYR105      0.0417
    119  CZ       -48.1240   28.2650   38.3960 C.ar  105  TYR105      0.1957
    120  OH       -49.3630   28.6500   38.8540 O.3   105  TYR105     -0.2866
    121  N        -46.0920   27.1920   34.0770 N.am  106  ALA106     -0.1963
    122  CA       -46.9960   28.0300   33.2990 C.3   106  ALA106      0.1728
    123  C        -48.3060   28.1940   34.0540 C.2   106  ALA106      0.2617
    124  O        -49.0810   27.2490   34.1800 O.2   106  ALA106     -0.2715
    125  CB       -47.2360   27.4300   31.9270 C.3   106  ALA106      0.0334
    126  N        -48.5500   29.4020   34.5500 N.am  107  SER107     -0.1936
    127  CA       -49.6430   29.6380   35.4850 C.3   107  SER107      0.2055
    128  C        -51.0260   29.6960   34.8370 C.2   107  SER107      0.2643
    129  O        -52.0360   29.6140   35.5350 O.2   107  SER107     -0.2714
    130  CB       -49.3940   30.9380   36.2540 C.3   107  SER107      0.2130
    131  OG       -49.3290   32.0470   35.3730 O.3   107  SER107     -0.2179
    132  N        -51.0810   29.8220   33.5150 N.am  108  LYS108     -0.1963
    133  CA       -52.3650   30.0270   32.8480 C.3   108  LYS108      0.1728
    134  C        -52.8980   28.7960   32.1140 C.2   108  LYS108      0.2617
    135  O        -53.7700   28.9170   31.2550 O.2   108  LYS108     -0.2715
    136  CB       -52.2650   31.2000   31.8720 C.3   108  LYS108      0.0311
    137  CG       -52.1630   32.5490   32.5620 C.3   108  LYS108      0.0038
    138  CD       -52.0860   33.6880   31.5620 C.3   108  LYS108      0.0206
    139  CE       -52.0200   35.0310   32.2730 C.3   108  LYS108      0.1093
    140  NZ       -51.9210   36.1610   31.3090 N.3   108  LYS108     -0.1314
    141  N        -52.3850   27.6180   32.4600 N.am  109  GLY109     -0.1940
    142  CA       -52.9080   26.3720   31.9210 C.3   109  GLY109      0.2014
    143  C        -52.5960   26.1580   30.4520 C.2   109  GLY109      0.2638
    144  O        -51.8250   26.9130   29.8570 O.2   109  GLY109     -0.2714
    145  N        -53.1920   25.1270   29.8590 N.am  110  ASN110     -0.1972
    146  CA       -52.9250   24.8220   28.4600 C.3   110  ASN110      0.1688
    147  C        -53.6390   25.7880   27.5180 C.2   110  ASN110      0.2292
    148  O        -54.5490   26.5110   27.9230 O.2   110  ASN110     -0.2864
    149  CB       -53.3110   23.3740   28.1270 C.3   110  ASN110      0.1181
    150  CG       -54.8050   23.1230   28.2110 C.2   110  ASN110      0.2629
    151  OD1      -55.5820   23.6440   27.4110 O.2   110  ASN110     -0.2716
    152  ND2      -55.2110   22.2930   29.1640 N.am  110  ASN110     -0.0877
    153  N        -57.7380   25.7780   27.1230 N.3   113  GLU113     -0.1245
    154  CA       -58.4880   26.4580   28.1760 C.3   113  GLU113      0.1567
    155  C        -58.2220   27.9580   28.1440 C.2   113  GLU113      0.2260
    156  O        -59.0970   28.7650   28.4610 O.2   113  GLU113     -0.2867
    157  CB       -58.1180   25.9060   29.5530 C.3   113  GLU113      0.0388
    158  CG       -58.1430   24.3940   29.6700 C.3   113  GLU113      0.1160
    159  CD       -57.2990   23.8970   30.8310 C.2   113  GLU113      0.3649
    160  OE1      -56.2620   24.5320   31.1280 O.co2 113  GLU113     -0.2457
    161  OE2      -57.6720   22.8770   31.4490 O.co2 113  GLU113     -0.2457
    162  N        -48.5220   25.1020   26.8300 N.3   159  LEU159     -0.1245
    163  CA       -48.8020   25.7970   28.0780 C.3   159  LEU159      0.1561
    164  C        -48.5580   27.2980   27.9570 C.2   159  LEU159      0.2260
    165  O        -47.7330   27.7410   27.1590 O.2   159  LEU159     -0.2867
    166  CB       -47.9520   25.2090   29.2050 C.3   159  LEU159      0.0270
    167  CG       -48.2980   23.7710   29.5980 C.3   159  LEU159      0.0019
    168  CD1      -47.3330   23.2470   30.6500 C.3   159  LEU159      0.0001
    169  CD2      -49.7370   23.6770   30.0880 C.3   159  LEU159      0.0001
    170  N        -45.3290   21.4220   25.5950 N.3   169  ALA169     -0.1231
    171  CA       -45.1900   20.4420   26.6670 C.3   169  ALA169      0.1694
    172  C        -45.1530   19.0130   26.1290 C.2   169  ALA169      0.2592
    173  O        -45.4900   18.7710   24.9690 O.2   169  ALA169     -0.2718
    174  CB       -46.3200   20.5980   27.6680 C.3   169  ALA169      0.0304
    175  N        -44.7550   18.0790   26.9910 N.am  170  ASP170     -0.1960
    176  CA       -44.6560   16.6550   26.6600 C.3   170  ASP170      0.1840
    177  C        -44.0130   16.3780   25.3120 C.2   170  ASP170      0.2622
    178  O        -44.6120   15.7400   24.4510 O.2   170  ASP170     -0.2715
    179  CB       -46.0370   15.9950   26.6950 C.3   170  ASP170      0.1450
    180  CG       -46.4010   15.4800   28.0720 C.2   170  ASP170      0.3671
    181  OD1      -45.5050   14.9560   28.7680 O.co2 170  ASP170     -0.2456
    182  OD2      -47.5860   15.5790   28.4520 O.co2 170  ASP170     -0.2456
    183  N        -42.7850   16.8500   25.1420 N.am  171  PHE171     -0.1960
    184  CA       -42.0440   16.6070   23.9160 C.3   171  PHE171      0.1771
    185  C        -40.9760   15.5490   24.1610 C.2   171  PHE171      0.2620
    186  O        -40.3050   15.1000   23.2320 O.2   171  PHE171     -0.2715
    187  CB       -41.4220   17.9030   23.3860 C.3   171  PHE171      0.0574
    188  CG       -40.5970   18.6500   24.3990 C.ar  171  PHE171     -0.0200
    189  CD1      -39.2680   18.3210   24.6110 C.ar  171  PHE171     -0.0042
    190  CD2      -41.1460   19.6950   25.1230 C.ar  171  PHE171     -0.0042
    191  CE1      -38.5060   19.0110   25.5380 C.ar  171  PHE171     -0.0003
    192  CE2      -40.3900   20.3900   26.0500 C.ar  171  PHE171     -0.0003
    193  CZ       -39.0690   20.0480   26.2570 C.ar  171  PHE171     -0.0000
    194  N        -40.8340   15.1410   25.4170 N.am  172  GLY172     -0.1954
    195  CA       -39.8090   14.1840   25.7890 C.3   172  GLY172      0.1869
    196  C        -40.3660   12.8030   26.0700 C.2   172  GLY172      0.2309
    197  O        -39.7150   11.9800   26.7130 O.2   172  GLY172     -0.2863
@<TRIPOS>BOND
     1   186   185    2
     2   187   184    1
     3   187   188    1
     4   184   185    1
     5   184   183    1
     6   185   194   am
     7   188   189   ar
     8   188   190   ar
     9   178   177    2
    10   189   191   ar
    11   173   172    2
    12   190   192   ar
    13   183   177   am
    14   177   176    1
    15   194   195    1
    16   191   193   ar
    17   170   171    1
    18   195   196    1
    19   192   193   ar
    20   196   197    2
    21   172   171    1
    22   172   175   am
    23   176   179    1
    24   176   175    1
    25   171   174    1
    26   179   180    1
    27   162   163    1
    28   153   154    1
    29   165   164    2
    30    78    79    1
    31   151   150    2
    32   147   148    2
    33   147   146    1
    34    73    72    2
    35    70    71    1
    36    71    72    1
    37    71    74    1
    38   164   163    1
    39   180   182   ar
    40   180   181   ar
    41   163   166    1
    42   149   150    1
    43   149   146    1
    44   155   154    1
    45   155   156    2
    46   154   157    1
    47   150   152   am
    48   146   145    1
    49    81    80    2
    50    79    80    1
    51    79    82    1
    52    75    74    1
    53    75    76    1
    54    83    82    1
    55    83    85    1
    56   166   167    1
    57    82    84    1
    58    56    55    2
    59    21    23   ar
    60    21    19   ar
    61   157   158    1
    62   167   169    1
    63   167   168    1
    64   158   159    1
    65    54    53    1
    66    54    55    1
    67    54    57    1
    68   144   143    2
    69   145   143   am
    70    77    76    1
    71    23    22   ar
    72    55    62   am
    73    58    57    1
    74    58    59    1
    75   108   106   ar
    76    19    18   ar
    77   143   142    1
    78    60    59   ar
    79    65    64    2
    80    59    61   ar
    81   159   160   ar
    82   159   161   ar
    83    64    63    1
    84   107   106   ar
    85   135   134    2
    86   106   105    1
    87   140   139    1
    88    62    63    1
    89    22    20   ar
    90   138   139    1
    91   138   137    1
    92    18    20   ar
    93    18    17    1
    94    63    66    1
    95   136   137    1
    96   136   133    1
    97   142   141    1
    98   125   122    1
    99   134   141   am
   100   134   133    1
   101    14    17    1
   102    14    13    1
   103    14    15    1
   104   105   104    1
   105    44    43    1
   106   104   101    1
   107   133   132    1
   108    45    46    1
   109    66    67    1
   110   122   123    1
   111   122   121    1
   112    15    16    2
   113    48    47    2
   114   132   128   am
   115    98    97    1
   116    47    46    1
   117    46    49    1
   118    67    68    1
   119    97    99    1
   120    97    94    1
   121   103   102    2
   122   100   101    1
   123   100    95   am
   124   101   102    1
   125   123   124    2
   126   123   126   am
   127    43    42    1
   128   121   111   am
   129   102   109   am
   130   112   111    2
   131    42    41    1
   132   126   127    1
   133   111   110    1
   134   128   127    1
   135   128   129    2
   136    94    95    1
   137    94    93    1
   138   109   110    1
   139    95    96    2
   140    51    50    1
   141    69    68    1
   142    91    90    1
   143    49    50    1
   144   131   130    1
   145   127   130    1
   146   110   113    1
   147    50    52    1
   148    41    40    1
   149    30    28    1
   150    90    92    1
   151    90    87    1
   152    40    37    1
   153    10    11    1
   154    10     9    1
   155    35    32    1
   156   113   114    1
   157    28    29    1
   158    28    25    1
   159    11    12    2
   160   114   115   ar
   161   114   116   ar
   162   115   117   ar
   163     9     3   am
   164    89    88    2
   165    88    87    1
   166    87    86    1
   167   116   118   ar
   168   117   119   ar
   169    34    33    2
   170    37    36    1
   171    37    38    1
   172     4     3    2
   173     3     2    1
   174     7     6    1
   175    32    31    1
   176    32    33    1
   177   118   119   ar
   178   119   120    1
   179     8     6    1
   180    24    25    1
   181    25    26    1
   182     5     6    1
   183     5     2    1
   184    38    39    2
   185     2     1    1
   186    26    27    2
