@<TRIPOS>MOLECULE
tmp/4rwkA00.pdb
 208 196 0 0 0
SMALL
GASTEIGER

@<TRIPOS>ATOM
      1  N        -19.2240  -11.7640   17.5490 N.3    28  LEU28      -0.1231
      2  CA       -19.8740  -10.7110   16.7850 C.3    28  LEU28       0.1693
      3  C        -20.3100  -11.2530   15.4320 C.2    28  LEU28       0.2593
      4  O        -21.3190  -10.8210   14.8750 O.2    28  LEU28      -0.2718
      5  CB       -18.9460   -9.5110   16.6020 C.3    28  LEU28       0.0284
      6  CG       -18.6860   -8.6330   17.8240 C.3    28  LEU28       0.0019
      7  CD1      -17.7440   -7.5010   17.4630 C.3    28  LEU28       0.0001
      8  CD2      -19.9880   -8.0880   18.3700 C.3    28  LEU28       0.0001
      9  N        -19.5450  -12.2070   14.9120 N.am   29  GLY29      -0.1942
     10  CA       -19.8550  -12.8140   13.6320 C.3    29  GLY29       0.2014
     11  C        -18.8240  -13.8300   13.1860 C.2    29  GLY29       0.2639
     12  O        -17.6310  -13.6770   13.4440 O.2    29  GLY29      -0.2714
     13  N        -19.2940  -14.8750   12.5130 N.am   30  GLU30      -0.1963
     14  CA       -18.4230  -15.9060   11.9640 C.3    30  GLU30       0.1733
     15  C        -18.3230  -15.7720   10.4500 C.2    30  GLU30       0.2616
     16  O        -19.0290  -14.9670    9.8450 O.2    30  GLU30      -0.2715
     17  CB       -18.9310  -17.2990   12.3380 C.3    30  GLU30       0.0429
     18  CG       -18.9660  -17.4950   13.8450 C.3    30  GLU30       0.1163
     19  CD       -20.3630  -17.2460   14.3830 C.2    30  GLU30       0.3649
     20  OE1      -21.2750  -16.8570   13.6200 O.co2  30  GLU30      -0.2457
     21  OE2      -20.5520  -17.4600   15.5980 O.co2  30  GLU30      -0.2457
     22  N        -17.4350  -16.5530    9.8440 N.am   31  GLY31      -0.1955
     23  CA       -17.2770  -16.5330    8.4030 C.3    31  GLY31       0.1869
     24  C        -16.2740  -17.5390    7.8750 C.2    31  GLY31       0.2309
     25  O        -15.6760  -18.3030    8.6330 O.2    31  GLY31      -0.2863
     26  N        -13.5780  -16.7260    6.6240 N.3    33  PHE33      -0.1227
     27  CA       -12.2640  -16.1410    6.8630 C.3    33  PHE33       0.1736
     28  C        -11.9530  -16.0740    8.3510 C.2    33  PHE33       0.2596
     29  O        -10.8560  -15.6870    8.7490 O.2    33  PHE33      -0.2718
     30  CB       -12.1810  -14.7420    6.2510 C.3    33  PHE33       0.0547
     31  CG       -12.0750  -14.6810    4.7590 C.ar   33  PHE33      -0.0202
     32  CD1      -11.3810  -15.6460    4.0190 C.ar   33  PHE33      -0.0042
     33  CD2      -12.6720  -13.6020    4.0820 C.ar   33  PHE33      -0.0042
     34  CE1      -11.2550  -15.5240    2.6490 C.ar   33  PHE33      -0.0003
     35  CE2      -12.5620  -13.4890    2.7010 C.ar   33  PHE33      -0.0003
     36  CZ       -11.8380  -14.4570    1.9880 C.ar   33  PHE33      -0.0000
     37  N        -12.9220  -16.4590    9.1730 N.am   34  GLY34      -0.1957
     38  CA       -12.7220  -16.4870   10.6100 C.3    34  GLY34       0.1869
     39  C        -13.6890  -15.7460   11.5170 C.2    34  GLY34       0.2309
     40  O        -14.5850  -15.0340   11.0750 O.2    34  GLY34      -0.2863
     41  N        -14.9880  -13.2630   14.7310 N.3    36  VAL36      -0.1245
     42  CA       -14.7850  -11.9410   15.3180 C.3    36  VAL36       0.1561
     43  C        -15.5600  -11.7640   16.6240 C.2    36  VAL36       0.2260
     44  O        -16.7690  -11.9940   16.6790 O.2    36  VAL36      -0.2867
     45  CB       -15.1880  -10.8310   14.3510 C.3    36  VAL36       0.0252
     46  CG1      -15.1790   -9.4890   15.0550 C.3    36  VAL36       0.0019
     47  CG2      -14.2380  -10.8140   13.1930 C.3    36  VAL36       0.0019
     48  N        -12.9160   -4.8900   18.3180 N.3    56  ALA56      -0.1245
     49  CA       -13.3160   -6.1330   17.6860 C.3    56  ALA56       0.1562
     50  C        -12.0800   -6.9650   17.4000 C.2    56  ALA56       0.2260
     51  O        -11.1700   -6.5100   16.7130 O.2    56  ALA56      -0.2867
     52  CB       -14.0890   -5.8650   16.4120 C.3    56  ALA56       0.0290
     53  N        -10.4810  -10.1110   15.6250 N.3    58  LYS58      -0.1245
     54  CA       -10.6810  -11.1150   14.5880 C.3    58  LYS58       0.1561
     55  C         -9.6440  -12.2230   14.7110 C.2    58  LYS58       0.2260
     56  O         -8.4680  -11.9630   14.9530 O.2    58  LYS58      -0.2867
     57  CB       -10.6280  -10.4620   13.2040 C.3    58  LYS58       0.0271
     58  CG       -10.8460  -11.4140   12.0430 C.3    58  LYS58       0.0035
     59  CD       -10.6130  -10.7150   10.7160 C.3    58  LYS58       0.0206
     60  CE       -11.2220  -11.4990    9.5640 C.3    58  LYS58       0.1093
     61  NZ       -11.2560  -10.6990    8.3080 N.3    58  LYS58      -0.1314
     62  N         -4.1310   -9.4840    5.3640 N.3    75  GLU75      -0.1245
     63  CA        -5.1800   -8.5110    5.6340 C.3    75  GLU75       0.1567
     64  C         -4.7020   -7.4760    6.6410 C.2    75  GLU75       0.2260
     65  O         -4.9640   -6.2840    6.4910 O.2    75  GLU75      -0.2867
     66  CB        -6.4390   -9.2030    6.1500 C.3    75  GLU75       0.0388
     67  CG        -7.5600   -8.2460    6.5110 C.3    75  GLU75       0.1160
     68  CD        -8.8620   -8.9600    6.7870 C.2    75  GLU75       0.3649
     69  OE1       -9.8930   -8.2760    6.9550 O.co2  75  GLU75      -0.2457
     70  OE2       -8.8520  -10.2060    6.8430 O.co2  75  GLU75      -0.2457
     71  N        -12.9190    0.4170    8.3290 N.3    89  ILE89      -0.1245
     72  CA       -12.5540   -0.3500    9.5150 C.3    89  ILE89       0.1561
     73  C        -11.0390   -0.3470    9.6830 C.2    89  ILE89       0.2260
     74  O        -10.3210   -1.0020    8.9280 O.2    89  ILE89      -0.2867
     75  CB       -13.0620   -1.7990    9.4370 C.3    89  ILE89       0.0252
     76  CG1      -14.5890   -1.8300    9.4650 C.3    89  ILE89       0.0019
     77  CG2      -12.4980   -2.6230   10.5800 C.3    89  ILE89       0.0019
     78  CD1      -15.1850   -1.2990   10.7470 C.3    89  ILE89       0.0001
     79  N         -9.3590   -4.5630   15.5380 N.3   105  MET105     -0.1230
     80  CA        -9.8910   -3.6060   14.5810 C.3   105  MET105      0.1702
     81  C        -10.8900   -2.6880   15.2650 C.2   105  MET105      0.2592
     82  O        -11.3110   -2.9560   16.3890 O.2   105  MET105     -0.2718
     83  CB       -10.5740   -4.3410   13.4270 C.3   105  MET105      0.0401
     84  CG        -9.7300   -5.4270   12.7860 C.3   105  MET105      0.0596
     85  SD       -10.2070   -5.7940   11.0940 S.3   105  MET105     -0.1393
     86  CE        -8.9830   -7.0250   10.6620 C.3   105  MET105      0.0692
     87  N        -11.2740   -1.6110   14.5880 N.am  106  GLU106     -0.1966
     88  CA       -12.2910   -0.7150   15.1220 C.3   106  GLU106      0.1733
     89  C        -13.6120   -1.4560   15.2550 C.2   106  GLU106      0.2616
     90  O        -13.9490   -2.2920   14.4200 O.2   106  GLU106     -0.2715
     91  CB       -12.4500    0.5240   14.2410 C.3   106  GLU106      0.0429
     92  CG       -11.2780    1.4830   14.3260 C.3   106  GLU106      0.1163
     93  CD       -11.4860    2.7370   13.5070 C.2   106  GLU106      0.3649
     94  OE1      -10.9690    3.8010   13.9040 O.co2 106  GLU106     -0.2457
     95  OE2      -12.1600    2.6610   12.4600 O.co2 106  GLU106     -0.2457
     96  N        -14.3560   -1.1520   16.3110 N.am  107  TYR107     -0.1960
     97  CA       -15.5960   -1.8630   16.5950 C.3   107  TYR107      0.1771
     98  C        -16.8290   -1.0710   16.1720 C.2   107  TYR107      0.2619
     99  O        -17.0360    0.0600   16.6060 O.2   107  TYR107     -0.2715
    100  CB       -15.6750   -2.2010   18.0830 C.3   107  TYR107      0.0574
    101  CG       -17.0330   -2.6710   18.5430 C.ar  107  TYR107     -0.0198
    102  CD1      -17.5530   -3.8830   18.1120 C.ar  107  TYR107     -0.0009
    103  CD2      -17.7900   -1.9090   19.4200 C.ar  107  TYR107     -0.0009
    104  CE1      -18.7920   -4.3170   18.5350 C.ar  107  TYR107      0.0417
    105  CE2      -19.0280   -2.3360   19.8490 C.ar  107  TYR107      0.0417
    106  CZ       -19.5230   -3.5400   19.4030 C.ar  107  TYR107      0.1957
    107  OH       -20.7560   -3.9660   19.8300 O.3   107  TYR107     -0.2866
    108  N        -17.6380   -1.6760   15.3090 N.am  108  ALA108     -0.1963
    109  CA       -18.9030   -1.0850   14.9010 C.3   108  ALA108      0.1728
    110  C        -20.0440   -1.7850   15.6200 C.2   108  ALA108      0.2617
    111  O        -20.3220   -2.9550   15.3700 O.2   108  ALA108     -0.2715
    112  CB       -19.0780   -1.1790   13.4040 C.3   108  ALA108      0.0334
    113  N        -20.7100   -1.0490   16.5020 N.am  109  SER109     -0.1936
    114  CA       -21.6970   -1.6190   17.4120 C.3   109  SER109      0.2055
    115  C        -23.0400   -1.9490   16.7680 C.2   109  SER109      0.2643
    116  O        -23.7790   -2.7920   17.2710 O.2   109  SER109     -0.2714
    117  CB       -21.9180   -0.6630   18.5820 C.3   109  SER109      0.2130
    118  OG       -22.1910    0.6460   18.1170 O.3   109  SER109     -0.2179
    119  N        -23.3650   -1.2790   15.6690 N.am  110  LYS110     -0.1963
    120  CA       -24.6880   -1.4200   15.0710 C.3   110  LYS110      0.1728
    121  C        -24.6990   -2.3350   13.8490 C.2   110  LYS110      0.2617
    122  O        -25.5360   -2.1830   12.9650 O.2   110  LYS110     -0.2715
    123  CB       -25.2360   -0.0430   14.6990 C.3   110  LYS110      0.0311
    124  CG       -25.5580    0.8140   15.9100 C.3   110  LYS110      0.0038
    125  CD       -25.9900    2.2120   15.5160 C.3   110  LYS110      0.0206
    126  CE       -26.2240    3.0680   16.7470 C.3   110  LYS110      0.1093
    127  NZ       -26.5340    4.4780   16.3960 N.3   110  LYS110     -0.1314
    128  N        -23.7790   -3.2920   13.8160 N.am  111  GLY111     -0.1940
    129  CA       -23.7210   -4.2720   12.7440 C.3   111  GLY111      0.2014
    130  C        -23.4420   -3.6850   11.3760 C.2   111  GLY111      0.2638
    131  O        -22.8650   -2.6060   11.2630 O.2   111  GLY111     -0.2714
    132  N        -23.8630   -4.3910   10.3320 N.am  112  ASN112     -0.1972
    133  CA       -23.6210   -3.9410    8.9680 C.3   112  ASN112      0.1688
    134  C        -24.7580   -3.0660    8.4610 C.2   112  ASN112      0.2292
    135  O        -25.7870   -2.9380    9.1170 O.2   112  ASN112     -0.2864
    136  CB       -23.4100   -5.1350    8.0370 C.3   112  ASN112      0.1181
    137  CG       -24.6080   -6.0560    7.9860 C.2   112  ASN112      0.2629
    138  OD1      -25.5990   -5.7660    7.3200 O.2   112  ASN112     -0.2716
    139  ND2      -24.5230   -7.1780    8.6890 N.am  112  ASN112     -0.0877
    140  N        -28.5590   -4.8650    7.7580 N.3   115  GLU115     -0.1245
    141  CA       -29.3990   -5.0990    8.9280 C.3   115  GLU115      0.1567
    142  C        -29.6910   -3.8010    9.6760 C.2   115  GLU115      0.2260
    143  O        -30.7250   -3.6710   10.3310 O.2   115  GLU115     -0.2867
    144  CB       -28.7440   -6.1160    9.8640 C.3   115  GLU115      0.0388
    145  CG       -27.3540   -5.7360   10.3380 C.3   115  GLU115      0.1160
    146  CD       -26.7370   -6.7920   11.2370 C.2   115  GLU115      0.3649
    147  OE1      -27.4930   -7.5320   11.9010 O.co2 115  GLU115     -0.2457
    148  OE2      -25.4930   -6.8880   11.2750 O.co2 115  GLU115     -0.2457
    149  N        -34.7380   -0.2930   10.6100 N.3   120  ARG120     -0.1245
    150  CA       -35.2280    1.0760   10.7060 C.3   120  ARG120      0.1563
    151  C        -36.2050    1.3810    9.5820 C.2   120  ARG120      0.2260
    152  O        -36.4170    2.5380    9.2230 O.2   120  ARG120     -0.2867
    153  CB       -34.0640    2.0690   10.6970 C.3   120  ARG120      0.0307
    154  CG       -33.1990    1.9790   11.9400 C.3   120  ARG120      0.0489
    155  CD       -31.7450    2.3060   11.6660 C.3   120  ARG120      0.2205
    156  NE       -30.8690    1.4540   12.4660 N.pl3 120  ARG120     -0.0865
    157  CZ       -30.4870    1.7330   13.7060 C.cat 120  ARG120      0.5346
    158  NH1      -30.8890    2.8540   14.2870 N.pl3 120  ARG120      0.1354
    159  NH2      -29.6960    0.8970   14.3620 N.pl3 120  ARG120      0.1354
    160  N        -35.5900    0.2440   15.3590 N.3   136  GLU136     -0.1245
    161  CA       -35.0650    1.5110   15.8340 C.3   136  GLU136      0.1567
    162  C        -35.7420    2.6600   15.1020 C.2   136  GLU136      0.2260
    163  O        -36.5780    2.4400   14.2280 O.2   136  GLU136     -0.2867
    164  CB       -33.5510    1.5700   15.6470 C.3   136  GLU136      0.0388
    165  CG       -32.7920    1.9710   16.8990 C.3   136  GLU136      0.1160
    166  CD       -32.8630    0.9180   17.9860 C.2   136  GLU136      0.3649
    167  OE1      -32.3960   -0.2160   17.7480 O.co2 136  GLU136     -0.2457
    168  OE2      -33.3850    1.2230   19.0780 O.co2 136  GLU136     -0.2457
    169  N        -23.5280   -5.3430    3.0070 N.3   171  ARG171     -0.1231
    170  CA       -23.1550   -6.2960    4.0420 C.3   171  ARG171      0.1694
    171  C        -21.7050   -6.0680    4.4550 C.2   171  ARG171      0.2592
    172  O        -21.2720   -6.5190    5.5140 O.2   171  ARG171     -0.2718
    173  CB       -23.3530   -7.7330    3.5540 C.3   171  ARG171      0.0321
    174  CG       -23.1470   -8.7810    4.6450 C.3   171  ARG171      0.0489
    175  CD       -22.8980  -10.1730    4.0680 C.3   171  ARG171      0.2205
    176  NE       -22.3330  -11.0730    5.0780 N.pl3 171  ARG171     -0.0865
    177  CZ       -21.0600  -11.4760    5.1170 C.cat 171  ARG171      0.5346
    178  NH1      -20.2080  -11.1320    4.1560 N.pl3 171  ARG171      0.1354
    179  NH2      -20.6440  -12.2810    6.0990 N.pl3 171  ARG171      0.1354
    180  N        -20.9630   -5.3600    3.6070 N.am  172  ASN172     -0.1974
    181  CA       -19.5710   -5.0310    3.8820 C.3   172  ASN172      0.1688
    182  C        -19.3880   -3.5650    4.2540 C.2   172  ASN172      0.2292
    183  O        -18.3370   -2.9780    4.0040 O.2   172  ASN172     -0.2864
    184  CB       -18.6890   -5.3770    2.6820 C.3   172  ASN172      0.1181
    185  CG       -18.5300   -6.8690    2.4900 C.2   172  ASN172      0.2629
    186  OD1      -18.5070   -7.6290    3.4560 O.2   172  ASN172     -0.2716
    187  ND2      -18.4020   -7.2950    1.2410 N.am  172  ASN172     -0.0877
    188  N        -20.0410   -1.3330    7.7790 N.3   174  LEU174     -0.1245
    189  CA       -20.4280   -1.4030    9.1840 C.3   174  LEU174      0.1561
    190  C        -20.7850   -0.0330    9.7590 C.2   174  LEU174      0.2260
    191  O        -20.3520    0.9990    9.2470 O.2   174  LEU174     -0.2867
    192  CB       -19.3080   -2.0460   10.0000 C.3   174  LEU174      0.0270
    193  CG       -18.9640   -3.4940    9.6420 C.3   174  LEU174      0.0019
    194  CD1      -17.7310   -3.9510   10.3970 C.3   174  LEU174      0.0001
    195  CD2      -20.1320   -4.4210    9.9230 C.3   174  LEU174      0.0001
    196  N        -15.7420   -2.3360    5.1920 N.3   184  ALA184     -0.1231
    197  CA       -15.0770   -3.5110    5.7300 C.3   184  ALA184      0.1694
    198  C        -14.6040   -4.4530    4.6370 C.2   184  ALA184      0.2592
    199  O        -14.9260   -4.2760    3.4650 O.2   184  ALA184     -0.2718
    200  CB       -16.0060   -4.2440    6.6830 C.3   184  ALA184      0.0304
    201  N        -13.8400   -5.4590    5.0520 N.am  185  ASP185     -0.1974
    202  CA       -13.2640   -6.4680    4.1680 C.3   185  ASP185      0.1709
    203  C        -12.6690   -5.9020    2.8810 C.2   185  ASP185      0.2293
    204  O        -12.8300   -6.4840    1.8110 O.2   185  ASP185     -0.2864
    205  CB       -14.3330   -7.5020    3.8170 C.3   185  ASP185      0.1436
    206  CG       -14.3860   -8.6380    4.8080 C.2   185  ASP185      0.3671
    207  OD1      -15.1020   -9.6250    4.5460 O.co2 185  ASP185     -0.2456
    208  OD2      -13.7000   -8.5490    5.8460 O.co2 185  ASP185     -0.2456
@<TRIPOS>BOND
     1   187   185   am
     2   204   203    2
     3    36    34   ar
     4    36    35   ar
     5   185   184    1
     6   185   186    2
     7    34    32   ar
     8   184   181    1
     9    35    33   ar
    10   203   202    1
    11   169   170    1
    12   199   198    2
    13   173   170    1
    14   173   174    1
    15   180   181    1
    16   180   171   am
    17   205   202    1
    18   205   206    1
    19   181   182    1
    20   183   182    2
    21    32    31   ar
    22   170   171    1
    23   175   174    1
    24   175   176    1
    25    33    31   ar
    26   178   177    1
    27   202   201    1
    28   171   172    2
    29   207   206   ar
    30   198   201   am
    31   198   197    1
    32    31    30    1
    33   206   208   ar
    34   176   177    2
    35   177   179    1
    36   196   197    1
    37    62    63    1
    38    63    66    1
    39    63    64    1
    40   197   200    1
    41    66    67    1
    42    30    27    1
    43    65    64    2
    44    67    68    1
    45    26    27    1
    46    68    70   ar
    47    68    69   ar
    48    27    28    1
    49   138   137    2
    50   140   141    1
    51   188   189    1
    52    24    23    1
    53    24    25    2
    54   137   136    1
    55   137   139   am
    56   136   133    1
    57    61    60    1
    58    71    72    1
    59    28    29    2
    60    28    37   am
    61    23    22    1
    62   134   133    1
    63   134   135    2
    64   141   142    1
    65   141   144    1
    66    74    73    2
    67   133   132    1
    68    37    38    1
    69   189   190    1
    70   189   192    1
    71   152   151    2
    72   191   190    2
    73    75    76    1
    74    75    72    1
    75    75    77    1
    76    76    78    1
    77    72    73    1
    78    60    59    1
    79   151   150    1
    80   193   195    1
    81   193   192    1
    82   193   194    1
    83   142   143    2
    84    22    15   am
    85    16    15    2
    86   144   145    1
    87   132   130   am
    88   145   146    1
    89    15    14    1
    90   149   150    1
    91    38    39    1
    92    86    85    1
    93   153   150    1
    94   153   154    1
    95    59    58    1
    96    40    39    2
    97    85    84    1
    98   146   148   ar
    99   146   147   ar
   100   131   130    2
   101   130   129    1
   102   155   154    1
   103   155   156    1
   104    14    17    1
   105    14    13    1
   106    58    57    1
   107    17    18    1
   108    95    93   ar
   109   156   157    2
   110    13    11   am
   111   129   128    1
   112    84    83    1
   113   122   121    2
   114    11    12    2
   115    11    10    1
   116    47    45    1
   117    57    54    1
   118   112   109    1
   119    83    80    1
   120    93    94   ar
   121    93    92    1
   122    20    19   ar
   123    10     9    1
   124   157   158    1
   125   157   159    1
   126   128   121   am
   127    18    19    1
   128   121   120    1
   129   163   162    2
   130    91    92    1
   131    91    88    1
   132    45    46    1
   133    45    42    1
   134    19    21   ar
   135    90    89    2
   136    80    81    1
   137    80    79    1
   138    87    88    1
   139    87    81   am
   140    54    55    1
   141    54    53    1
   142   123   120    1
   143   123   124    1
   144    55    56    2
   145    41    42    1
   146     4     3    2
   147   109   108    1
   148   109   110    1
   149     9     3   am
   150   120   119    1
   151   162   161    1
   152    88    89    1
   153    89    96   am
   154    81    82    2
   155   108    98   am
   156    42    43    1
   157   160   161    1
   158   111   110    2
   159     3     2    1
   160   125   124    1
   161   125   126    1
   162   110   113   am
   163   164   161    1
   164   164   165    1
   165   119   115   am
   166    98    97    1
   167    98    99    2
   168    96    97    1
   169   127   126    1
   170    52    49    1
   171   113   114    1
   172    97   100    1
   173     5     2    1
   174     5     6    1
   175    43    44    2
   176    51    50    2
   177   115   116    2
   178   115   114    1
   179     2     1    1
   180   165   166    1
   181    50    49    1
   182   114   117    1
   183     7     6    1
   184    49    48    1
   185   167   166   ar
   186     6     8    1
   187   166   168   ar
   188   100   101    1
   189   102   104   ar
   190   102   101   ar
   191   118   117    1
   192   104   106   ar
   193   101   103   ar
   194   106   107    1
   195   106   105   ar
   196   103   105   ar
