@<TRIPOS>MOLECULE
tmp/4rwlB00.pdb
 174 161 0 0 0
SMALL
GASTEIGER

@<TRIPOS>ATOM
      1  N         22.9200    0.8820   33.4060 N.3    25  LYS25      -0.1245
      2  CA        24.2320    1.4110   33.7740 C.3    25  LYS25       0.1561
      3  C         24.8640    2.2080   32.6290 C.2    25  LYS25       0.2260
      4  O         24.6540    1.8830   31.4660 O.2    25  LYS25      -0.2867
      5  CB        25.1660    0.2670   34.1890 C.3    25  LYS25       0.0271
      6  CG        25.4810   -0.7150   33.1150 C.3    25  LYS25       0.0035
      7  CD        26.6220   -1.6280   33.5710 C.3    25  LYS25       0.0206
      8  CE        26.7440   -2.7170   32.5400 C.3    25  LYS25       0.1093
      9  NZ        27.9630   -3.4990   32.8560 N.3    25  LYS25      -0.1314
     10  N         27.6740    3.3690   29.9660 N.3    27  LEU27      -0.1231
     11  CA        28.6860    2.6050   29.2620 C.3    27  LEU27       0.1693
     12  C         29.8650    3.5150   28.8900 C.2    27  LEU27       0.2592
     13  O         31.0190    3.0870   28.8710 O.2    27  LEU27      -0.2718
     14  CB        28.0850    1.9520   28.0150 C.3    27  LEU27       0.0284
     15  CG        27.0850    0.8140   28.2650 C.3    27  LEU27       0.0019
     16  CD1       26.2940    0.4910   26.9900 C.3    27  LEU27       0.0001
     17  CD2       27.7990   -0.4260   28.7830 C.3    27  LEU27       0.0001
     18  N         29.5740    4.7830   28.6270 N.am   28  GLY28      -0.1957
     19  CA        30.6040    5.7240   28.2400 C.3    28  GLY28       0.1869
     20  C         30.0400    7.1140   28.0320 C.2    28  GLY28       0.2309
     21  O         28.8220    7.2880   27.8480 O.2    28  GLY28      -0.2863
     22  N         26.4570    7.3930   26.5900 N.3    35  VAL35      -0.1245
     23  CA        25.8550    6.1420   26.1580 C.3    35  VAL35       0.1561
     24  C         25.5170    5.2830   27.3760 C.2    35  VAL35       0.2260
     25  O         26.3690    5.0540   28.2290 O.2    35  VAL35      -0.2867
     26  CB        26.8070    5.3430   25.2410 C.3    35  VAL35       0.0252
     27  CG1       26.1690    4.0140   24.8350 C.3    35  VAL35       0.0019
     28  CG2       27.2080    6.1630   24.0230 C.3    35  VAL35       0.0019
     29  N         21.9390   -0.3770   23.4600 N.3    52  ALA52      -0.1245
     30  CA        22.6930    0.8130   23.8440 C.3    52  ALA52       0.1562
     31  C         21.9360    2.0590   23.3970 C.2    52  ALA52       0.2260
     32  O         21.3720    2.1110   22.2970 O.2    52  ALA52      -0.2867
     33  CB        24.1140    0.8030   23.2580 C.3    52  ALA52       0.0290
     34  N         22.1590    6.2430   23.0320 N.3    54  LYS54      -0.1245
     35  CA        22.9210    7.4850   23.0320 C.3    54  LYS54       0.1561
     36  C         21.9700    8.6490   23.3070 C.2    54  LYS54       0.2260
     37  O         20.8260    8.6580   22.8500 O.2    54  LYS54      -0.2867
     38  CB        23.6610    7.6920   21.7110 C.3    54  LYS54       0.0271
     39  CG        24.6290    8.8680   21.7120 C.3    54  LYS54       0.0035
     40  CD        25.3370    9.0050   20.3520 C.3    54  LYS54       0.0206
     41  CE        26.5380    8.0920   20.2340 C.3    54  LYS54       0.1093
     42  NZ        27.2410    8.2560   18.9270 N.3    54  LYS54      -0.1314
     43  N         23.0380   12.5910   13.2070 N.3    71  GLU71      -0.1245
     44  CA        23.5830   11.2450   13.3040 C.3    71  GLU71       0.1567
     45  C         22.4970   10.1830   13.1500 C.2    71  GLU71       0.2260
     46  O         22.6470    9.2400   12.3630 O.2    71  GLU71      -0.2867
     47  CB        24.3180   11.0620   14.6360 C.3    71  GLU71       0.0388
     48  CG        24.7520    9.6290   14.9150 C.3    71  GLU71       0.1160
     49  CD        25.5720    9.4930   16.2010 C.2    71  GLU71       0.3649
     50  OE1       25.7950   10.5140   16.8900 O.co2  71  GLU71      -0.2457
     51  OE2       25.9930    8.3590   16.5190 O.co2  71  GLU71      -0.2457
     52  N         21.2220   10.1670    9.6290 N.3    74  MET74      -0.1230
     53  CA        22.1870    9.4680    8.7820 C.3    74  MET74       0.1702
     54  C         22.0560    7.9430    8.8850 C.2    74  MET74       0.2592
     55  O         22.1170    7.2450    7.8680 O.2    74  MET74      -0.2718
     56  CB        23.6080    9.8800    9.1140 C.3    74  MET74       0.0401
     57  CG        24.5920    8.9790    8.3570 C.3    74  MET74       0.0596
     58  SD        26.3300    9.4280    8.7080 S.3    74  MET74      -0.1393
     59  CE        26.3210    9.3170   10.5270 C.3    74  MET74       0.0692
     60  N         21.8300    7.4280   10.0930 N.am   75  MET75      -0.1979
     61  CA        21.6770    5.9890   10.2860 C.3    75  MET75       0.1605
     62  C         20.4290    5.4370    9.5860 C.2    75  MET75       0.2287
     63  O         20.4850    4.3570    8.9860 O.2    75  MET75      -0.2864
     64  CB        21.6390    5.6520   11.7820 C.3    75  MET75       0.0413
     65  CG        22.9160    6.0660   12.5070 C.3    75  MET75       0.0598
     66  SD        22.9640    5.7420   14.2820 S.3    75  MET75      -0.1393
     67  CE        23.2260    3.9640   14.3160 C.3    75  MET75       0.0692
     68  N         26.8830   -1.1890   13.5720 N.3    85  ILE85      -0.1245
     69  CA        25.9660   -0.9280   14.6790 C.3    85  ILE85       0.1561
     70  C         24.6690   -0.3750   14.0890 C.2    85  ILE85       0.2260
     71  O         24.6620    0.7110   13.5180 O.2    85  ILE85      -0.2867
     72  CB        26.5750    0.0740   15.6960 C.3    85  ILE85       0.0252
     73  CG1       27.6800   -0.5820   16.5460 C.3    85  ILE85       0.0019
     74  CG2       25.5100    0.6530   16.6080 C.3    85  ILE85       0.0019
     75  CD1       27.2260   -1.7300   17.4600 C.3    85  ILE85       0.0001
     76  N         18.7610    7.8310   21.1600 N.3    99  VAL99      -0.1245
     77  CA        19.0130    7.0900   19.9200 C.3    99  VAL99       0.1561
     78  C         19.3990    5.6690   20.2980 C.2    99  VAL99       0.2260
     79  O         20.4260    5.4420   20.9590 O.2    99  VAL99      -0.2867
     80  CB        20.1230    7.7420   19.0720 C.3    99  VAL99       0.0252
     81  CG1       20.3090    6.9780   17.7500 C.3    99  VAL99       0.0019
     82  CG2       19.7920    9.2120   18.8120 C.3    99  VAL99       0.0019
     83  N         20.4910    1.8790   19.7060 N.3   101  VAL101     -0.1231
     84  CA        21.1880    0.9890   18.8020 C.3   101  VAL101      0.1692
     85  C         21.5100   -0.3600   19.4440 C.2   101  VAL101      0.2592
     86  O         21.3310   -0.5540   20.6480 O.2   101  VAL101     -0.2718
     87  CB        22.5020    1.6110   18.3020 C.3   101  VAL101      0.0266
     88  CG1       22.2440    2.9430   17.6370 C.3   101  VAL101      0.0020
     89  CG2       23.5080    1.7440   19.4590 C.3   101  VAL101      0.0020
     90  N         22.0080   -1.2720   18.6130 N.am  102  GLU102     -0.1966
     91  CA        22.4600   -2.6020   19.0240 C.3   102  GLU102      0.1733
     92  C         23.5450   -2.5440   20.0770 C.2   102  GLU102      0.2616
     93  O         24.4420   -1.6970   20.0000 O.2   102  GLU102     -0.2715
     94  CB        23.0010   -3.3680   17.8000 C.3   102  GLU102      0.0429
     95  CG        21.9360   -3.7670   16.7900 C.3   102  GLU102      0.1163
     96  CD        22.5350   -4.2900   15.4880 C.2   102  GLU102      0.3649
     97  OE1       23.6670   -3.9020   15.1400 O.co2 102  GLU102     -0.2457
     98  OE2       21.8570   -5.0550   14.7900 O.co2 102  GLU102     -0.2457
     99  N         23.4870   -3.4540   21.0470 N.am  103  TYR103     -0.1960
    100  CA        24.4860   -3.5050   22.1190 C.3   103  TYR103      0.1771
    101  C         25.5670   -4.5600   21.8320 C.2   103  TYR103      0.2619
    102  O         25.2500   -5.6760   21.4230 O.2   103  TYR103     -0.2715
    103  CB        23.8050   -3.7960   23.4570 C.3   103  TYR103      0.0574
    104  CG        24.7640   -4.0140   24.6150 C.ar  103  TYR103     -0.0198
    105  CD1       25.6220   -3.0070   25.0230 C.ar  103  TYR103     -0.0009
    106  CD2       24.7930   -5.2170   25.3060 C.ar  103  TYR103     -0.0009
    107  CE1       26.4890   -3.1900   26.0750 C.ar  103  TYR103      0.0417
    108  CE2       25.6610   -5.4120   26.3570 C.ar  103  TYR103      0.0417
    109  CZ        26.5040   -4.3910   26.7390 C.ar  103  TYR103      0.1957
    110  OH        27.3760   -4.5640   27.7810 O.3   103  TYR103     -0.2866
    111  N         26.8310   -4.2000   22.0510 N.am  104  ALA104     -0.1963
    112  CA        27.9680   -5.1030   21.8720 C.3   104  ALA104      0.1728
    113  C         28.6310   -5.4490   23.2150 C.2   104  ALA104      0.2616
    114  O         29.3930   -4.6480   23.7560 O.2   104  ALA104     -0.2715
    115  CB        28.9970   -4.4700   20.9230 C.3   104  ALA104      0.0334
    116  N         28.3690   -6.6490   23.7340 N.am  105  SER105     -0.1950
    117  CA        28.7510   -6.9930   25.1070 C.3   105  SER105      0.1924
    118  C         30.2310   -7.2510   25.2750 C.2   105  SER105      0.2314
    119  O         30.7220   -7.2500   26.3830 O.2   105  SER105     -0.2863
    120  CB        27.9990   -8.2300   25.6010 C.3   105  SER105      0.2116
    121  OG        28.3760   -9.3760   24.8590 O.3   105  SER105     -0.2180
    122  N         32.7500   -5.4220   24.1700 N.3   107  GLY107     -0.1225
    123  CA        33.5740   -4.2280   24.0640 C.3   107  GLY107      0.1811
    124  C         34.0560   -3.9200   22.6450 C.2   107  GLY107      0.2280
    125  O         33.4590   -4.3770   21.6590 O.2   107  GLY107     -0.2866
    126  N         40.0950   -4.1230   22.9270 N.3   111  GLU111     -0.1245
    127  CA        39.8770   -4.7980   24.2040 C.3   111  GLU111      0.1567
    128  C         39.7000   -6.2860   23.9660 C.2   111  GLU111      0.2260
    129  O         40.2700   -7.1120   24.6730 O.2   111  GLU111     -0.2867
    130  CB        38.6430   -4.2150   24.9290 C.3   111  GLU111      0.0388
    131  CG        38.7960   -2.7500   25.3600 C.3   111  GLU111      0.1160
    132  CD        37.4800   -2.0930   25.7960 C.2   111  GLU111      0.3649
    133  OE1       36.4090   -2.3500   25.1810 O.co2 111  GLU111     -0.2457
    134  OE2       37.5120   -1.3090   26.7710 O.co2 111  GLU111     -0.2457
    135  N         32.9950   -2.5840   17.3500 N.3   157  LEU157     -0.1245
    136  CA        32.4810   -3.2160   18.5530 C.3   157  LEU157      0.1561
    137  C         32.2110   -4.6900   18.2560 C.2   157  LEU157      0.2260
    138  O         32.0330   -5.0810   17.1070 O.2   157  LEU157     -0.2867
    139  CB        31.2220   -2.4950   19.0640 C.3   157  LEU157      0.0270
    140  CG        31.3950   -1.0030   19.3890 C.3   157  LEU157      0.0019
    141  CD1       30.0850   -0.3900   19.9040 C.3   157  LEU157      0.0001
    142  CD2       32.5560   -0.7560   20.3750 C.3   157  LEU157      0.0001
    143  N         31.2920    1.0850   14.5130 N.3   167  ALA167     -0.1231
    144  CA        30.5220    2.0580   15.2890 C.3   167  ALA167      0.1694
    145  C         30.9870    3.4600   14.9550 C.2   167  ALA167      0.2592
    146  O         32.1080    3.6380   14.4810 O.2   167  ALA167     -0.2718
    147  CB        30.6750    1.8000   16.8400 C.3   167  ALA167      0.0304
    148  N         30.1350    4.4470   15.2230 N.am  168  ASP168     -0.1960
    149  CA        30.5200    5.8530   15.1300 C.3   168  ASP168      0.1840
    150  C         30.8880    6.2760   13.7180 C.2   168  ASP168      0.2622
    151  O         31.6990    7.1670   13.5310 O.2   168  ASP168     -0.2715
    152  CB        31.6810    6.1600   16.0900 C.3   168  ASP168      0.1450
    153  CG        31.2220    6.3020   17.5310 C.2   168  ASP168      0.3671
    154  OD1       32.0800    6.5150   18.4110 O.co2 168  ASP168     -0.2456
    155  OD2       30.0090    6.1710   17.7910 O.co2 168  ASP168     -0.2456
    156  N         30.2640    5.6520   12.7290 N.am  169  PHE169     -0.1974
    157  CA        30.4800    6.0220   11.3410 C.3   169  PHE169      0.1639
    158  C         29.7020    7.3080   11.0480 C.2   169  PHE169      0.2290
    159  O         28.7070    7.5940   11.7040 O.2   169  PHE169     -0.2864
    160  CB        30.0790    4.8700   10.4080 C.3   169  PHE169      0.0560
    161  CG        28.7590    4.2540   10.7500 C.ar  169  PHE169     -0.0200
    162  CD1       27.5840    4.7610   10.2240 C.ar  169  PHE169     -0.0042
    163  CD2       28.6970    3.1710   11.6180 C.ar  169  PHE169     -0.0042
    164  CE1       26.3730    4.2040   10.5580 C.ar  169  PHE169     -0.0003
    165  CE2       27.4850    2.6020   11.9540 C.ar  169  PHE169     -0.0003
    166  CZ        26.3180    3.1170   11.4230 C.ar  169  PHE169     -0.0000
    167  N         29.5000   11.3370   11.4720 N.3   171  LEU171     -0.1245
    168  CA        29.9190   12.2930   12.5160 C.3   171  LEU171      0.1561
    169  C         30.9820   13.2730   12.0110 C.2   171  LEU171      0.2260
    170  O         30.9510   14.4690   12.3360 O.2   171  LEU171     -0.2867
    171  CB        30.4400   11.5710   13.7750 C.3   171  LEU171      0.0270
    172  CG        29.5380   10.7180   14.6780 C.3   171  LEU171      0.0019
    173  CD1       28.5760    9.7720   13.9240 C.3   171  LEU171      0.0001
    174  CD2       30.3750    9.9760   15.7260 C.3   171  LEU171      0.0001
@<TRIPOS>BOND
     1    55    54    2
     2    57    58    1
     3    57    56    1
     4    58    59    1
     5    53    54    1
     6    53    56    1
     7    53    52    1
     8    54    60   am
     9    63    62    2
    10    62    61    1
    11    60    61    1
    12   162   164   ar
    13   162   161   ar
    14    61    64    1
    15   160   161    1
    16   160   157    1
    17   164   166   ar
    18   161   163   ar
    19   158   157    1
    20   158   159    2
    21   157   156    1
    22   166   165   ar
    23   167   168    1
    24   163   165   ar
    25    64    65    1
    26   169   170    2
    27   169   168    1
    28    46    45    2
    29    65    66    1
    30   168   171    1
    31   156   150   am
    32    45    44    1
    33    43    44    1
    34    44    47    1
    35    71    70    2
    36   151   150    2
    37    68    69    1
    38   150   149    1
    39   171   172    1
    40   173   172    1
    41    70    69    1
    42    66    67    1
    43   146   145    2
    44   143   144    1
    45    47    48    1
    46   172   174    1
    47    69    72    1
    48    98    96   ar
    49    48    49    1
    50   145   148   am
    51   145   144    1
    52   149   148    1
    53   149   152    1
    54    97    96   ar
    55   144   147    1
    56    96    95    1
    57    72    73    1
    58    72    74    1
    59   152   153    1
    60    49    51   ar
    61    49    50   ar
    62    73    75    1
    63    95    94    1
    64   138   137    2
    65   135   136    1
    66   153   155   ar
    67   153   154   ar
    68    88    87    1
    69    81    80    1
    70    94    91    1
    71   137   136    1
    72    87    84    1
    73    87    89    1
    74   136   139    1
    75    90    91    1
    76    90    85   am
    77    84    85    1
    78    84    83    1
    79    82    80    1
    80    42    41    1
    81    91    92    1
    82   139   140    1
    83    80    77    1
    84   140   141    1
    85   140   142    1
    86    85    86    2
    87    77    78    1
    88    77    76    1
    89    93    92    2
    90    92    99   am
    91    41    40    1
    92    78    79    2
    93    40    39    1
    94   115   112    1
    95    99   100    1
    96   102   101    2
    97   125   124    2
    98    38    39    1
    99    38    35    1
   100   101   111   am
   101   101   100    1
   102   112   111    1
   103   112   113    1
   104   100   103    1
   105    32    31    2
   106   124   123    1
   107    37    36    2
   108   126   127    1
   109    35    34    1
   110    35    36    1
   111   113   116   am
   112   113   114    2
   113    33    30    1
   114    31    30    1
   115   103   104    1
   116    29    30    1
   117   116   117    1
   118   128   127    1
   119   128   129    2
   120    28    26    1
   121   123   122    1
   122   127   130    1
   123   104   105   ar
   124   104   106   ar
   125    27    26    1
   126   121   120    1
   127   130   131    1
   128   105   107   ar
   129   117   118    1
   130   117   120    1
   131   133   132   ar
   132    26    23    1
   133   118   119    2
   134   106   108   ar
   135   131   132    1
   136   132   134   ar
   137   107   109   ar
   138    23    22    1
   139    23    24    1
   140   108   109   ar
   141   109   110    1
   142    16    15    1
   143    24    25    2
   144    21    20    2
   145    14    15    1
   146    14    11    1
   147    20    19    1
   148    19    18    1
   149    15    17    1
   150    18    12   am
   151    13    12    2
   152    12    11    1
   153    11    10    1
   154     4     3    2
   155     8     9    1
   156     8     7    1
   157     3     2    1
   158     6     7    1
   159     6     5    1
   160     1     2    1
   161     2     5    1
