@<TRIPOS>MOLECULE
tmp/4rwnA01.pdb
 124 112 0 0 0
SMALL
GASTEIGER

@<TRIPOS>ATOM
      1  N        -16.8950  -35.3800   21.7110 N.3    60  GLY60      -0.1210
      2  CA       -17.2770  -34.1270   22.3320 C.3    60  GLY60       0.1956
      3  C        -17.9610  -34.3750   23.6600 C.2    60  GLY60       0.2612
      4  O        -17.7350  -35.4030   24.2950 O.2    60  GLY60      -0.2717
      5  N        -18.8030  -33.4390   24.0800 N.am   61  GLY61      -0.1956
      6  CA       -19.5260  -33.5810   25.3300 C.3    61  GLY61       0.1869
      7  C        -18.5910  -33.6570   26.5200 C.2    61  GLY61       0.2309
      8  O        -17.4010  -33.3660   26.4050 O.2    61  GLY61      -0.2863
      9  N        -22.9020  -39.8800   29.1700 N.3    74  ASP74      -0.1239
     10  CA       -22.9110  -40.5740   27.8880 C.3    74  ASP74       0.1674
     11  C        -21.6490  -40.2880   27.0770 C.2    74  ASP74       0.2266
     12  O        -20.7490  -39.5770   27.5280 O.2    74  ASP74      -0.2867
     13  CB       -24.1510  -40.1820   27.0720 C.3    74  ASP74       0.1410
     14  CG       -24.2060  -38.6920   26.7560 C.2    74  ASP74       0.3668
     15  OD1      -23.2780  -37.9520   27.1410 O.co2  74  ASP74      -0.2456
     16  OD2      -25.1800  -38.2590   26.1060 O.co2  74  ASP74      -0.2456
     17  N        -20.7260  -38.5400   23.5710 N.3    76  ASP76      -0.1239
     18  CA       -21.2400  -37.6980   22.5000 C.3    76  ASP76       0.1674
     19  C        -20.2540  -37.6580   21.3420 C.2    76  ASP76       0.2266
     20  O        -19.1840  -37.0500   21.4390 O.2    76  ASP76      -0.2867
     21  CB       -21.5200  -36.2840   23.0110 C.3    76  ASP76       0.1410
     22  CG       -22.3980  -36.2750   24.2440 C.2    76  ASP76       0.3668
     23  OD1      -23.6270  -36.4570   24.1010 O.co2  76  ASP76      -0.2456
     24  OD2      -21.8580  -36.0800   25.3560 O.co2  76  ASP76      -0.2456
     25  N        -19.4960  -36.7360   17.3820 N.3    78  VAL78      -0.1245
     26  CA       -19.8460  -36.0490   16.1510 C.3    78  VAL78       0.1561
     27  C        -19.0650  -36.6930   15.0120 C.2    78  VAL78       0.2260
     28  O        -17.8330  -36.6550   14.9950 O.2    78  VAL78      -0.2867
     29  CB       -19.5440  -34.5420   16.2350 C.3    78  VAL78       0.0252
     30  CG1      -19.9350  -33.8470   14.9410 C.3    78  VAL78       0.0019
     31  CG2      -20.2830  -33.9250   17.4100 C.3    78  VAL78       0.0019
     32  N        -39.7250  -34.8440   16.2880 N.3   125  ARG125     -0.1245
     33  CA       -38.5700  -33.9580   16.2400 C.3   125  ARG125      0.1563
     34  C        -38.3660  -33.3040   14.8740 C.2   125  ARG125      0.2260
     35  O        -37.5510  -32.3980   14.7230 O.2   125  ARG125     -0.2867
     36  CB       -37.3060  -34.6720   16.7190 C.3   125  ARG125      0.0307
     37  CG       -37.3490  -35.1250   18.1670 C.3   125  ARG125      0.0489
     38  CD       -37.3960  -33.9720   19.1590 C.3   125  ARG125      0.2205
     39  NE       -37.4120  -34.4470   20.5410 N.pl3 125  ARG125     -0.0865
     40  CZ       -37.6770  -33.6960   21.6050 C.cat 125  ARG125      0.5346
     41  NH1      -37.6600  -34.2470   22.8000 N.pl3 125  ARG125      0.1354
     42  NH2      -37.9570  -32.4010   21.4800 N.pl3 125  ARG125      0.1354
     43  N        -34.2260  -34.9770   13.3100 N.3   128  PRO128     -0.2102
     44  CA       -33.3060  -35.2110   14.4300 C.3   128  PRO128      0.1504
     45  C        -31.8560  -34.8890   14.0780 C.2   128  PRO128      0.2576
     46  O        -31.4450  -35.0320   12.9240 O.2   128  PRO128     -0.2718
     47  CB       -33.4760  -36.7080   14.7190 C.3   128  PRO128      0.0282
     48  CG       -34.8060  -37.0600   14.1510 C.3   128  PRO128      0.0208
     49  CD       -34.9580  -36.1990   12.9380 C.3   128  PRO128      0.0893
     50  N        -31.0940  -34.4530   15.0750 N.am  129  ARG129     -0.1966
     51  CA       -29.6890  -34.1250   14.8800 C.3   129  ARG129      0.1729
     52  C        -28.7930  -35.2790   15.3140 C.2   129  ARG129      0.2616
     53  O        -27.6460  -35.3860   14.8790 O.2   129  ARG129     -0.2715
     54  CB       -29.3290  -32.8570   15.6520 C.3   129  ARG129      0.0348
     55  CG       -30.1050  -31.6330   15.2040 C.3   129  ARG129      0.0492
     56  CD       -29.8170  -30.4330   16.0840 C.3   129  ARG129      0.2205
     57  NE       -31.0080  -29.9990   16.8060 N.pl3 129  ARG129     -0.0865
     58  CZ       -31.3550  -28.7270   16.9780 C.cat 129  ARG129      0.5346
     59  NH1      -30.5990  -27.7600   16.4790 N.pl3 129  ARG129      0.1354
     60  NH2      -32.4570  -28.4230   17.6490 N.pl3 129  ARG129      0.1354
     61  N        -29.3280  -36.1470   16.1660 N.am  130  ALA130     -0.1977
     62  CA       -28.5420  -37.2320   16.7420 C.3   130  ALA130      0.1597
     63  C        -29.2200  -38.5850   16.5960 C.2   130  ALA130      0.2287
     64  O        -30.4400  -38.6730   16.4720 O.2   130  ALA130     -0.2864
     65  CB       -28.2670  -36.9540   18.2160 C.3   130  ALA130      0.0319
     66  N        -29.5280  -41.6260   18.9970 N.3   132  SER132     -0.1217
     67  CA       -29.2680  -41.9470   20.3940 C.3   132  SER132      0.1889
     68  C        -29.5590  -43.4090   20.7010 C.2   132  SER132      0.2288
     69  O        -30.6410  -43.9110   20.4000 O.2   132  SER132     -0.2866
     70  CB       -30.0960  -41.0410   21.3070 C.3   132  SER132      0.2089
     71  OG       -29.9420  -39.6810   20.9370 O.3   132  SER132     -0.2183
     72  N        -24.7230  -40.5600   21.8760 N.3   147  ASP147     -0.1239
     73  CA       -25.3420  -39.6190   20.9500 C.3   147  ASP147      0.1674
     74  C        -24.4130  -39.4940   19.7510 C.2   147  ASP147      0.2266
     75  O        -23.2790  -39.0330   19.8880 O.2   147  ASP147     -0.2867
     76  CB       -25.5740  -38.2490   21.5970 C.3   147  ASP147      0.1410
     77  CG       -26.7010  -38.2600   22.6140 C.2   147  ASP147      0.3668
     78  OD1      -27.6990  -38.9830   22.4030 O.co2 147  ASP147     -0.2456
     79  OD2      -26.5900  -37.5340   23.6230 O.co2 147  ASP147     -0.2456
     80  N        -23.8880  -37.8280   16.0960 N.3   149  LEU149     -0.1245
     81  CA       -24.3760  -36.7560   15.2440 C.3   149  LEU149      0.1561
     82  C        -23.5260  -36.6110   13.9840 C.2   149  LEU149      0.2260
     83  O        -22.3290  -36.3400   14.0650 O.2   149  LEU149     -0.2867
     84  CB       -24.4070  -35.4350   16.0200 C.3   149  LEU149      0.0270
     85  CG       -25.1320  -35.4550   17.3710 C.3   149  LEU149      0.0019
     86  CD1      -24.1590  -35.6370   18.5380 C.3   149  LEU149      0.0001
     87  CD2      -25.9750  -34.2070   17.5650 C.3   149  LEU149      0.0001
     88  N        -24.1630  -26.2890   16.0690 N.3   186  SER186     -0.1202
     89  CA       -23.1280  -26.2720   17.0980 C.3   186  SER186      0.2020
     90  C        -22.2330  -27.5050   17.0040 C.2   186  SER186      0.2619
     91  O        -21.0600  -27.4610   17.3690 O.2   186  SER186     -0.2717
     92  CB       -23.7590  -26.1880   18.4890 C.3   186  SER186      0.2103
     93  OG       -24.4490  -27.3860   18.7970 O.3   186  SER186     -0.2182
     94  N        -22.8000  -28.6040   16.5170 N.am  187  THR187     -0.1952
     95  CA       -22.0560  -29.8430   16.3240 C.3   187  THR187      0.1897
     96  C        -20.8150  -29.6690   15.4530 C.2   187  THR187      0.2313
     97  O        -19.8020  -30.3300   15.6840 O.2   187  THR187     -0.2863
     98  CB       -22.9420  -30.9300   15.6920 C.3   187  THR187      0.1794
     99  OG1      -23.6330  -30.3830   14.5610 O.3   187  THR187     -0.2208
    100  CG2      -23.9540  -31.4330   16.6980 C.3   187  THR187      0.0378
    101  N        -17.9230  -28.5990   17.6960 N.3   190  THR190     -0.1218
    102  CA       -17.8470  -29.3130   18.9650 C.3   190  THR190      0.1862
    103  C        -16.4090  -29.3200   19.4870 C.2   190  THR190      0.2287
    104  O        -16.1810  -29.3390   20.6980 O.2   190  THR190     -0.2866
    105  CB       -18.3810  -30.7670   18.8370 C.3   190  THR190      0.1770
    106  OG1      -18.5070  -31.3530   20.1390 O.3   190  THR190     -0.2211
    107  CG2      -17.4570  -31.6240   17.9890 C.3   190  THR190      0.0375
    108  N        -16.0530  -26.2260   21.3960 N.3   193  GLN193     -0.1245
    109  CA       -16.7740  -26.4010   22.6530 C.3   193  GLN193      0.1566
    110  C        -15.9250  -27.1970   23.6290 C.2   193  GLN193      0.2260
    111  O        -15.7900  -26.8260   24.7940 O.2   193  GLN193     -0.2867
    112  CB       -18.1140  -27.1040   22.4250 C.3   193  GLN193      0.0367
    113  CG       -19.1070  -26.3000   21.6030 C.3   193  GLN193      0.0905
    114  CD       -20.4840  -26.9250   21.5830 C.2   193  GLN193      0.2608
    115  OE1      -20.6240  -28.1490   21.6390 O.2   193  GLN193     -0.2717
    116  NE2      -21.5140  -26.0870   21.5140 N.am  193  GLN193     -0.0878
    117  N        -38.1460  -31.7090   32.5340 N.3   224  ASN224     -0.1240
    118  CA       -37.3740  -31.1090   31.4530 C.3   224  ASN224      0.1653
    119  C        -37.7310  -29.6500   31.1940 C.2   224  ASN224      0.2266
    120  O        -37.5800  -29.1530   30.0770 O.2   224  ASN224     -0.2867
    121  CB       -37.5620  -31.9170   30.1690 C.3   224  ASN224      0.1155
    122  CG       -36.4400  -32.9070   29.9360 C.2   224  ASN224      0.2627
    123  OD1      -36.2740  -33.8670   30.6900 O.2   224  ASN224     -0.2716
    124  ND2      -35.6600  -32.6780   28.8840 N.am  224  ASN224     -0.0877
@<TRIPOS>BOND
     1    46    45    2
     2    49    43    1
     3    49    48    1
     4    43    44    1
     5    82    83    2
     6    82    81    1
     7    45    44    1
     8    45    50   am
     9    48    47    1
    10    44    47    1
    11    99    98    1
    12    35    34    2
    13    34    33    1
    14    53    52    2
    15    51    50    1
    16    51    52    1
    17    51    54    1
    18    30    29    1
    19    28    27    2
    20    27    26    1
    21    55    54    1
    22    55    56    1
    23    81    84    1
    24    81    80    1
    25    52    61   am
    26    96    97    2
    27    96    95    1
    28    98    95    1
    29    98   100    1
    30    84    85    1
    31    88    89    1
    32    56    57    1
    33    26    29    1
    34    26    25    1
    35    61    62    1
    36    29    31    1
    37    33    32    1
    38    33    36    1
    39    95    94    1
    40    64    63    2
    41    59    58    1
    42    94    90   am
    43    63    62    1
    44    36    37    1
    45    62    65    1
    46    57    58    2
    47    58    60    1
    48    90    89    1
    49    90    91    2
    50    89    92    1
    51    85    87    1
    52    85    86    1
    53   101   102    1
    54   107   105    1
    55    37    38    1
    56    92    93    1
    57   105   102    1
    58   105   106    1
    59   102   103    1
    60    66    67    1
    61    38    39    1
    62   103   104    2
    63    74    75    2
    64    74    73    1
    65    67    68    1
    66    67    70    1
    67    69    68    2
    68    39    40    2
    69    71    70    1
    70    73    76    1
    71    73    72    1
    72    19    20    2
    73    19    18    1
    74   108   109    1
    75    42    40    1
    76   116   114   am
    77   114   113    1
    78   114   115    2
    79    76    77    1
    80   113   112    1
    81    40    41    1
    82     1     2    1
    83     2     3    1
    84    78    77   ar
    85   112   109    1
    86    18    21    1
    87    18    17    1
    88    77    79   ar
    89   109   110    1
    90    21    22    1
    91   110   111    2
    92     3     5   am
    93     3     4    2
    94     5     6    1
    95    23    22   ar
    96    22    24   ar
    97     6     7    1
    98    16    14   ar
    99     8     7    2
   100    14    13    1
   101    14    15   ar
   102    13    10    1
   103    11    12    2
   104    11    10    1
   105    10     9    1
   106   124   122   am
   107   122   121    1
   108   122   123    2
   109   120   119    2
   110   121   118    1
   111   119   118    1
   112   118   117    1
