@<TRIPOS>MOLECULE
tmp/4rwnA00.pdb
 168 153 0 0 0
SMALL
GASTEIGER

@<TRIPOS>ATOM
      1  N        -18.8030  -33.4390   24.0800 N.3    61  GLY61      -0.1210
      2  CA       -19.5260  -33.5810   25.3300 C.3    61  GLY61       0.1956
      3  C        -18.5910  -33.6570   26.5200 C.2    61  GLY61       0.2612
      4  O        -17.4010  -33.3660   26.4050 O.2    61  GLY61      -0.2717
      5  N        -19.1270  -34.0620   27.6670 N.am   62  SER62      -0.1952
      6  CA       -18.3410  -34.0900   28.8970 C.3    62  SER62       0.1924
      7  C        -17.1790  -35.0780   28.8060 C.2    62  SER62       0.2314
      8  O        -16.1600  -34.9060   29.4780 O.2    62  SER62      -0.2863
      9  CB       -19.2360  -34.4280   30.0950 C.3    62  SER62       0.2116
     10  OG       -19.8490  -35.6960   29.9480 O.3    62  SER62      -0.2180
     11  N        -14.4380  -33.2780   27.2610 N.3    65  LYS65      -0.1245
     12  CA       -14.0840  -32.1480   28.1140 C.3    65  LYS65       0.1561
     13  C        -13.4060  -32.5930   29.4090 C.2    65  LYS65       0.2260
     14  O        -12.6750  -31.8230   30.0270 O.2    65  LYS65      -0.2867
     15  CB       -15.3240  -31.3160   28.4390 C.3    65  LYS65       0.0271
     16  CG       -15.9180  -30.5840   27.2510 C.3    65  LYS65       0.0035
     17  CD       -17.2590  -29.9690   27.6090 C.3    65  LYS65       0.0206
     18  CE       -17.9020  -29.3010   26.4070 C.3    65  LYS65       0.1093
     19  NZ       -19.2260  -28.7150   26.7530 N.3    65  LYS65      -0.1314
     20  N        -19.7090  -37.2840   34.8880 N.3    69  LEU69      -0.1245
     21  CA       -20.1630  -37.7560   36.1940 C.3    69  LEU69       0.1561
     22  C        -20.0770  -39.2780   36.2270 C.2    69  LEU69       0.2260
     23  O        -20.5900  -39.9440   35.3250 O.2    69  LEU69      -0.2867
     24  CB       -21.5920  -37.2980   36.4810 C.3    69  LEU69       0.0270
     25  CG       -21.8630  -35.7930   36.4920 C.3    69  LEU69       0.0019
     26  CD1      -23.2770  -35.5130   36.9780 C.3    69  LEU69       0.0001
     27  CD2      -20.8420  -35.0710   37.3450 C.3    69  LEU69       0.0001
     28  N        -22.6940  -41.9380   34.8630 N.3    72  ARG72      -0.1231
     29  CA       -23.8880  -41.2380   34.4040 C.3    72  ARG72       0.1694
     30  C        -23.7080  -40.4530   33.1060 C.2    72  ARG72       0.2593
     31  O        -24.6900  -40.0120   32.5110 O.2    72  ARG72      -0.2718
     32  CB       -24.3870  -40.2940   35.4980 C.3    72  ARG72       0.0321
     33  CG       -25.1410  -41.0040   36.6120 C.3    72  ARG72       0.0489
     34  CD       -25.7980  -40.0110   37.5470 C.3    72  ARG72       0.2205
     35  NE       -24.8280  -39.3810   38.4350 N.pl3  72  ARG72      -0.0865
     36  CZ       -25.0250  -38.2250   39.0610 C.cat  72  ARG72       0.5346
     37  NH1      -26.1580  -37.5530   38.8920 N.pl3  72  ARG72       0.1354
     38  NH2      -24.0800  -37.7360   39.8490 N.pl3  72  ARG72       0.1354
     39  N        -22.4700  -40.2740   32.6610 N.am   73  SER73      -0.1938
     40  CA       -22.2310  -39.4710   31.4620 C.3    73  SER73       0.2055
     41  C        -22.1870  -40.3230   30.1970 C.2    73  SER73       0.2643
     42  O        -21.5130  -41.3480   30.1510 O.2    73  SER73      -0.2714
     43  CB       -20.9320  -38.6760   31.6000 C.3    73  SER73       0.2130
     44  OG       -21.0710  -37.6110   32.5250 O.3    73  SER73      -0.2179
     45  N        -22.9020  -39.8800   29.1700 N.am   74  ASP74      -0.1971
     46  CA       -22.9110  -40.5740   27.8880 C.3    74  ASP74       0.1709
     47  C        -21.6490  -40.2880   27.0770 C.2    74  ASP74       0.2293
     48  O        -20.7490  -39.5770   27.5280 O.2    74  ASP74      -0.2864
     49  CB       -24.1510  -40.1820   27.0720 C.3    74  ASP74       0.1436
     50  CG       -24.2060  -38.6920   26.7560 C.2    74  ASP74       0.3671
     51  OD1      -23.2780  -37.9520   27.1410 O.co2  74  ASP74      -0.2456
     52  OD2      -25.1800  -38.2590   26.1060 O.co2  74  ASP74      -0.2456
     53  N        -20.7260  -38.5400   23.5710 N.3    76  ASP76      -0.1239
     54  CA       -21.2400  -37.6980   22.5000 C.3    76  ASP76       0.1674
     55  C        -20.2540  -37.6580   21.3420 C.2    76  ASP76       0.2266
     56  O        -19.1840  -37.0500   21.4390 O.2    76  ASP76      -0.2867
     57  CB       -21.5200  -36.2840   23.0110 C.3    76  ASP76       0.1410
     58  CG       -22.3980  -36.2750   24.2440 C.2    76  ASP76       0.3668
     59  OD1      -23.6270  -36.4570   24.1010 O.co2  76  ASP76      -0.2456
     60  OD2      -21.8580  -36.0800   25.3560 O.co2  76  ASP76      -0.2456
     61  N        -24.7230  -40.5600   21.8760 N.3   147  ASP147     -0.1239
     62  CA       -25.3420  -39.6190   20.9500 C.3   147  ASP147      0.1674
     63  C        -24.4130  -39.4940   19.7510 C.2   147  ASP147      0.2266
     64  O        -23.2790  -39.0330   19.8880 O.2   147  ASP147     -0.2867
     65  CB       -25.5740  -38.2490   21.5970 C.3   147  ASP147      0.1410
     66  CG       -26.7010  -38.2600   22.6140 C.2   147  ASP147      0.3668
     67  OD1      -27.6990  -38.9830   22.4030 O.co2 147  ASP147     -0.2456
     68  OD2      -26.5900  -37.5340   23.6230 O.co2 147  ASP147     -0.2456
     69  N        -28.2510  -21.4860   16.2160 N.3   183  GLY183     -0.1225
     70  CA       -27.8010  -22.4780   17.1800 C.3   183  GLY183      0.1811
     71  C        -27.8730  -23.9050   16.6650 C.2   183  GLY183      0.2280
     72  O        -27.5700  -24.8520   17.3880 O.2   183  GLY183     -0.2866
     73  N        -24.1630  -26.2890   16.0690 N.3   186  SER186     -0.1217
     74  CA       -23.1280  -26.2720   17.0980 C.3   186  SER186      0.1889
     75  C        -22.2330  -27.5050   17.0040 C.2   186  SER186      0.2288
     76  O        -21.0600  -27.4610   17.3690 O.2   186  SER186     -0.2866
     77  CB       -23.7590  -26.1880   18.4890 C.3   186  SER186      0.2089
     78  OG       -24.4490  -27.3860   18.7970 O.3   186  SER186     -0.2183
     79  N        -17.9230  -28.5990   17.6960 N.3   190  THR190     -0.1218
     80  CA       -17.8470  -29.3130   18.9650 C.3   190  THR190      0.1862
     81  C        -16.4090  -29.3200   19.4870 C.2   190  THR190      0.2287
     82  O        -16.1810  -29.3390   20.6980 O.2   190  THR190     -0.2866
     83  CB       -18.3810  -30.7670   18.8370 C.3   190  THR190      0.1770
     84  OG1      -18.5070  -31.3530   20.1390 O.3   190  THR190     -0.2211
     85  CG2      -17.4570  -31.6240   17.9890 C.3   190  THR190      0.0375
     86  N        -16.0530  -26.2260   21.3960 N.3   193  GLN193     -0.1245
     87  CA       -16.7740  -26.4010   22.6530 C.3   193  GLN193      0.1566
     88  C        -15.9250  -27.1970   23.6290 C.2   193  GLN193      0.2260
     89  O        -15.7900  -26.8260   24.7940 O.2   193  GLN193     -0.2867
     90  CB       -18.1140  -27.1040   22.4250 C.3   193  GLN193      0.0367
     91  CG       -19.1070  -26.3000   21.6030 C.3   193  GLN193      0.0905
     92  CD       -20.4840  -26.9250   21.5830 C.2   193  GLN193      0.2608
     93  OE1      -20.6240  -28.1490   21.6390 O.2   193  GLN193     -0.2717
     94  NE2      -21.5140  -26.0870   21.5140 N.am  193  GLN193     -0.0878
     95  N        -23.3910  -29.6060   37.7750 N.3   212  LYS212     -0.1245
     96  CA       -24.1060  -30.5610   36.9400 C.3   212  LYS212      0.1561
     97  C        -24.8990  -31.5540   37.7810 C.2   212  LYS212      0.2260
     98  O        -26.0130  -31.9280   37.4130 O.2   212  LYS212     -0.2867
     99  CB       -23.1350  -31.3080   36.0280 C.3   212  LYS212      0.0271
    100  CG       -22.6110  -30.4650   34.8730 C.3   212  LYS212      0.0035
    101  CD       -21.5610  -31.2180   34.0800 C.3   212  LYS212      0.0206
    102  CE       -22.1320  -32.4760   33.4510 C.3   212  LYS212      0.1093
    103  NZ       -21.0620  -33.2560   32.7650 N.3   212  LYS212     -0.1314
    104  N        -28.9760  -31.8770   37.8240 N.3   216  GLN216     -0.1245
    105  CA       -29.6680  -33.1430   37.6050 C.3   216  GLN216      0.1566
    106  C        -30.6220  -33.4590   38.7530 C.2   216  GLN216      0.2260
    107  O        -31.6700  -34.0680   38.5510 O.2   216  GLN216     -0.2867
    108  CB       -28.6650  -34.2850   37.4300 C.3   216  GLN216      0.0367
    109  CG       -27.9080  -34.2550   36.1060 C.3   216  GLN216      0.0905
    110  CD       -28.8230  -34.4420   34.9130 C.2   216  GLN216      0.2608
    111  OE1      -29.8760  -35.0730   35.0170 O.2   216  GLN216     -0.2717
    112  NE2      -28.4270  -33.8920   33.7690 N.am  216  GLN216     -0.0878
    113  N        -30.9450  -25.2760   29.4610 N.3   228  PRO228     -0.2102
    114  CA       -29.9690  -26.2970   29.0610 C.3   228  PRO228      0.1504
    115  C        -28.8660  -26.4810   30.1040 C.2   228  PRO228      0.2576
    116  O        -28.4200  -25.4950   30.6890 O.2   228  PRO228     -0.2718
    117  CB       -29.3920  -25.7420   27.7530 C.3   228  PRO228      0.0282
    118  CG       -30.4420  -24.8290   27.2280 C.3   228  PRO228      0.0208
    119  CD       -31.0790  -24.2160   28.4460 C.3   228  PRO228      0.0893
    120  N        -28.4440  -27.7220   30.3320 N.am  229  GLN229     -0.1966
    121  CA       -27.3630  -28.0020   31.2720 C.3   229  GLN229      0.1733
    122  C        -26.0810  -27.2760   30.8720 C.2   229  GLN229      0.2616
    123  O        -25.3220  -26.8130   31.7280 O.2   229  GLN229     -0.2715
    124  CB       -27.1020  -29.5070   31.3650 C.3   229  GLN229      0.0408
    125  CG       -26.0260  -29.8780   32.3820 C.3   229  GLN229      0.0908
    126  CD       -25.8150  -31.3770   32.4930 C.2   229  GLN229      0.2608
    127  OE1      -26.2910  -32.0160   33.4340 O.2   229  GLN229     -0.2717
    128  NE2      -25.0940  -31.9450   31.5370 N.am  229  GLN229     -0.0878
    129  N        -25.8580  -27.1770   29.5650 N.am  230  TYR230     -0.1974
    130  CA       -24.6960  -26.4900   29.0120 C.3   230  TYR230      0.1639
    131  C        -24.6430  -25.0330   29.4730 C.2   230  TYR230      0.2290
    132  O        -23.5630  -24.4740   29.6450 O.2   230  TYR230     -0.2864
    133  CB       -24.7200  -26.5800   27.4790 C.3   230  TYR230      0.0560
    134  CG       -23.5090  -26.0140   26.7550 C.ar  230  TYR230     -0.0198
    135  CD1      -22.2220  -26.2130   27.2340 C.ar  230  TYR230     -0.0009
    136  CD2      -23.6610  -25.3150   25.5600 C.ar  230  TYR230     -0.0009
    137  CE1      -21.1200  -25.7030   26.5590 C.ar  230  TYR230      0.0417
    138  CE2      -22.5700  -24.8060   24.8800 C.ar  230  TYR230      0.0417
    139  CZ       -21.3000  -25.0000   25.3860 C.ar  230  TYR230      0.1957
    140  OH       -20.2140  -24.4900   24.7050 O.3   230  TYR230     -0.2866
    141  N        -22.9850  -25.0370   32.8100 N.3   233  GLU233     -0.1245
    142  CA       -21.5600  -25.2910   32.6460 C.3   233  GLU233      0.1567
    143  C        -20.8220  -24.0060   32.2780 C.2   233  GLU233      0.2260
    144  O        -19.7430  -23.7290   32.8090 O.2   233  GLU233     -0.2867
    145  CB       -21.3170  -26.3640   31.5860 C.3   233  GLU233      0.0388
    146  CG       -19.8490  -26.5620   31.2400 C.3   233  GLU233      0.1160
    147  CD       -19.5970  -27.8510   30.4840 C.2   233  GLU233      0.3649
    148  OE1      -19.8070  -27.8730   29.2530 O.co2 233  GLU233     -0.2457
    149  OE2      -19.1910  -28.8440   31.1220 O.co2 233  GLU233     -0.2457
    150  N        -22.8820  -19.1420   23.2940 N.3   300  ASP300     -0.1239
    151  CA       -21.9520  -20.2480   23.0680 C.3   300  ASP300      0.1674
    152  C        -20.6350  -19.7170   22.5100 C.2   300  ASP300      0.2266
    153  O        -20.6170  -19.1160   21.4350 O.2   300  ASP300     -0.2867
    154  CB       -22.5630  -21.2780   22.1040 C.3   300  ASP300      0.1410
    155  CG       -21.7360  -22.5600   21.9890 C.2   300  ASP300      0.3668
    156  OD1      -20.6200  -22.6270   22.5470 O.co2 300  ASP300     -0.2456
    157  OD2      -22.2030  -23.5080   21.3160 O.co2 300  ASP300     -0.2456
    158  N        -25.7150  -19.0940   18.7850 N.3   306  GLY306     -0.1225
    159  CA       -26.3270  -19.9080   19.8200 C.3   306  GLY306      0.1811
    160  C        -26.4020  -19.2830   21.2020 C.2   306  GLY306      0.2280
    161  O        -25.4110  -19.2610   21.9300 O.2   306  GLY306     -0.2866
    162  N        -27.2060  -20.0500   24.5470 N.3   308  VAL308     -0.1245
    163  CA       -27.3830  -21.2240   25.3960 C.3   308  VAL308      0.1561
    164  C        -28.3750  -20.9420   26.5270 C.2   308  VAL308      0.2260
    165  O        -28.8900  -21.8630   27.1580 O.2   308  VAL308     -0.2867
    166  CB       -26.0310  -21.6850   25.9740 C.3   308  VAL308      0.0252
    167  CG1      -26.1420  -23.0800   26.5670 C.3   308  VAL308      0.0019
    168  CG2      -24.9640  -21.6680   24.8760 C.3   308  VAL308      0.0019
@<TRIPOS>BOND
     1    73    74    1
     2    69    70    1
     3    71    70    1
     4    71    72    2
     5    75    74    1
     6    75    76    2
     7    74    77    1
     8    79    80    1
     9    85    83    1
    10    77    78    1
    11   158   159    1
    12    83    80    1
    13    83    84    1
    14    80    81    1
    15    81    82    2
    16    63    64    2
    17    63    62    1
    18   159   160    1
    19    62    65    1
    20    62    61    1
    21   160   161    2
    22   157   155   ar
    23    55    56    2
    24    55    54    1
    25    86    87    1
    26   153   152    2
    27    94    92   am
    28    92    91    1
    29    92    93    2
    30    65    66    1
    31    91    90    1
    32   155   154    1
    33   155   156   ar
    34   154   151    1
    35    67    66   ar
    36    90    87    1
    37    54    57    1
    38    54    53    1
    39   152   151    1
    40    66    68   ar
    41    87    88    1
    42    57    58    1
    43   151   150    1
    44    88    89    2
    45     1     2    1
    46    59    58   ar
    47    58    60   ar
    48   162   163    1
    49   140   139    1
    50   168   166    1
    51   138   139   ar
    52   138   136   ar
    53     2     3    1
    54   139   137   ar
    55   163   166    1
    56   163   164    1
    57   136   134   ar
    58   166   167    1
    59    52    50   ar
    60     4     3    2
    61    18    19    1
    62    18    17    1
    63     3     5   am
    64   164   165    2
    65   137   135   ar
    66   134   135   ar
    67   134   133    1
    68    50    49    1
    69    50    51   ar
    70    49    46    1
    71    47    48    2
    72    47    46    1
    73   118   117    1
    74   118   119    1
    75    16    17    1
    76    16    15    1
    77    11    12    1
    78   133   130    1
    79     5     6    1
    80   117   114    1
    81    46    45    1
    82    12    15    1
    83    12    13    1
    84   119   113    1
    85     7     6    1
    86     7     8    2
    87     6     9    1
    88   130   131    1
    89   130   129    1
    90   114   113    1
    91   114   115    1
    92    45    41   am
    93   148   147   ar
    94    13    14    2
    95   131   132    2
    96   129   122   am
    97    10     9    1
    98   115   120   am
    99   115   116    2
   100    42    41    2
   101    41    40    1
   102   120   121    1
   103   147   149   ar
   104   147   146    1
   105   122   121    1
   106   122   123    2
   107   146   145    1
   108   121   124    1
   109   124   125    1
   110    40    43    1
   111    40    39    1
   112   128   126   am
   113   145   142    1
   114    43    44    1
   115   143   142    1
   116   143   144    2
   117   125   126    1
   118   126   127    2
   119    31    30    2
   120   142   141    1
   121    39    30   am
   122   103   102    1
   123    30    29    1
   124   102   101    1
   125   112   110   am
   126   101   100    1
   127    29    28    1
   128    29    32    1
   129   100    99    1
   130    20    21    1
   131   110   111    2
   132   110   109    1
   133    23    22    2
   134    32    33    1
   135    99    96    1
   136   109   108    1
   137    21    22    1
   138    21    24    1
   139    24    25    1
   140    25    26    1
   141    25    27    1
   142    33    34    1
   143    96    95    1
   144    96    97    1
   145    98    97    2
   146   108   105    1
   147    34    35    1
   148   105   104    1
   149   105   106    1
   150    35    36    2
   151   107   106    2
   152    37    36    1
   153    36    38    1
