@<TRIPOS>MOLECULE
tmp/4rwvA00.pdb
 113 106 0 0 0
SMALL
GASTEIGER

@<TRIPOS>ATOM
      1  N         -8.8540   38.5060   33.6000 N.3    57  PHE57      -0.1241
      2  CA       -10.2970   38.3550   33.3940 C.3    57  PHE57       0.1605
      3  C        -10.6950   38.8860   32.0130 C.2    57  PHE57       0.2264
      4  O        -11.4250   38.2280   31.2640 O.2    57  PHE57      -0.2867
      5  CB       -11.0930   39.1300   34.4370 C.3    57  PHE57       0.0534
      6  CG       -11.4680   38.3310   35.6440 C.ar   57  PHE57      -0.0203
      7  CD1      -10.5440   38.1070   36.6540 C.ar   57  PHE57      -0.0042
      8  CD2      -12.7550   37.8500   35.7980 C.ar   57  PHE57      -0.0042
      9  CE1      -10.8890   37.3800   37.7950 C.ar   57  PHE57      -0.0003
     10  CE2      -13.1100   37.1260   36.9350 C.ar   57  PHE57      -0.0003
     11  CZ       -12.1720   36.8970   37.9380 C.ar   57  PHE57      -0.0000
     12  N         -9.5630   36.5140   29.2480 N.3    60  VAL60      -0.1245
     13  CA       -10.4440   35.3450   29.1600 C.3    60  VAL60       0.1561
     14  C        -11.7910   35.7160   28.5370 C.2    60  VAL60       0.2260
     15  O        -12.3530   34.9510   27.7200 O.2    60  VAL60      -0.2867
     16  CB       -10.6320   34.6710   30.5560 C.3    60  VAL60       0.0252
     17  CG1      -11.6890   33.5570   30.4700 C.3    60  VAL60       0.0019
     18  CG2       -9.3240   34.1130   31.0310 C.3    60  VAL60       0.0019
     19  N        -15.5840   23.4040   26.3690 N.3    74  VAL74      -0.1231
     20  CA       -14.9960   24.0290   27.5550 C.3    74  VAL74       0.1692
     21  C        -13.7060   23.3620   28.0230 C.2    74  VAL74       0.2592
     22  O        -12.7220   24.0400   28.3110 O.2    74  VAL74      -0.2718
     23  CB       -16.0030   24.1020   28.7020 C.3    74  VAL74       0.0266
     24  CG1      -15.3310   24.6320   29.9820 C.3    74  VAL74       0.0020
     25  CG2      -17.1690   24.9840   28.2960 C.3    74  VAL74       0.0020
     26  N        -13.6960   22.0360   28.0790 N.am   75  ASP75      -0.1974
     27  CA       -12.4810   21.3110   28.4640 C.3    75  ASP75       0.1709
     28  C        -11.2510   21.6240   27.5950 C.2    75  ASP75       0.2293
     29  O        -10.1310   21.7310   28.1110 O.2    75  ASP75      -0.2864
     30  CB       -12.7430   19.8020   28.5120 C.3    75  ASP75       0.1436
     31  CG       -13.6710   19.4020   29.6560 C.2    75  ASP75       0.3671
     32  OD1      -14.1770   20.2960   30.3760 O.co2  75  ASP75      -0.2456
     33  OD2      -13.9010   18.1850   29.8310 O.co2  75  ASP75      -0.2456
     34  N        -10.1660   25.2540   28.3980 N.3    78  MET78      -0.1245
     35  CA        -9.4360   25.2580   29.6630 C.3    78  MET78       0.1570
     36  C         -7.9790   24.9020   29.4220 C.2    78  MET78       0.2261
     37  O         -7.0820   25.5790   29.9150 O.2    78  MET78      -0.2867
     38  CB       -10.0510   24.2630   30.6640 C.3    78  MET78       0.0387
     39  CG       -11.4380   24.6170   31.1940 C.3    78  MET78       0.0595
     40  SD       -11.4870   25.7190   32.6380 S.3    78  MET78      -0.1393
     41  CE       -10.7310   24.7270   33.9220 C.3    78  MET78       0.0692
     42  N         -6.0110   27.7530   27.5260 N.3    81  LEU81      -0.1231
     43  CA        -5.7720   28.9290   28.3500 C.3    81  LEU81       0.1693
     44  C         -4.7980   28.6490   29.4840 C.2    81  LEU81       0.2591
     45  O         -4.0020   29.5210   29.8600 O.2    81  LEU81      -0.2718
     46  CB        -7.0820   29.5330   28.8730 C.3    81  LEU81       0.0284
     47  CG        -7.8240   30.3830   27.8310 C.3    81  LEU81       0.0019
     48  CD1       -9.2650   30.6890   28.2920 C.3    81  LEU81       0.0001
     49  CD2       -7.0550   31.6870   27.5360 C.3    81  LEU81       0.0001
     50  N         -4.8350   27.4360   30.0280 N.am   82  GLN82      -0.1979
     51  CA        -3.8900   27.0880   31.0840 C.3    82  GLN82       0.1601
     52  C         -2.4660   27.0340   30.5180 C.2    82  GLN82       0.2287
     53  O         -1.4920   27.2970   31.2320 O.2    82  GLN82      -0.2864
     54  CB        -4.3160   25.7970   31.8110 C.3    82  GLN82       0.0394
     55  CG        -5.6040   25.9940   32.6530 C.3    82  GLN82       0.0908
     56  CD        -6.1590   24.7150   33.2940 C.2    82  GLN82       0.2608
     57  OE1       -6.6210   24.7310   34.4420 O.2    82  GLN82      -0.2717
     58  NE2       -6.1380   23.6150   32.5490 N.am   82  GLN82      -0.0878
     59  N         -7.5290   34.7090   47.1210 N.3   232  ASN232     -0.1225
     60  CA        -7.5510   33.8220   45.9670 C.3   232  ASN232      0.1785
     61  C         -8.0380   34.6070   44.7650 C.2   232  ASN232      0.2597
     62  O         -8.9680   35.4020   44.8660 O.2   232  ASN232     -0.2718
     63  CB        -8.4550   32.6090   46.2030 C.3   232  ASN232      0.1169
     64  CG        -8.4760   31.6530   45.0150 C.2   232  ASN232      0.2627
     65  OD1       -9.5180   31.4200   44.4000 O.2   232  ASN232     -0.2716
     66  ND2       -7.3130   31.1130   44.6760 N.am  232  ASN232     -0.0877
     67  N         -7.3870   34.3960   43.6330 N.am  233  ASN233     -0.1960
     68  CA        -7.7710   35.0740   42.4060 C.3   233  ASN233      0.1819
     69  C         -7.4430   34.2190   41.1990 C.2   233  ASN233      0.2621
     70  O         -6.8270   33.1610   41.3250 O.2   233  ASN233     -0.2715
     71  CB        -7.1070   36.4590   42.3160 C.3   233  ASN233      0.1195
     72  CG        -5.5890   36.3950   42.1660 C.2   233  ASN233      0.2630
     73  OD1       -5.0220   35.4180   41.6660 O.2   233  ASN233     -0.2716
     74  ND2       -4.9220   37.4690   42.5880 N.am  233  ASN233     -0.0877
     75  N         -7.8200   34.6930   40.0150 N.am  234  LEU234     -0.1977
     76  CA        -7.6020   33.9110   38.8160 C.3   234  LEU234      0.1596
     77  C         -6.1070   33.6990   38.5310 C.2   234  LEU234      0.2287
     78  O         -5.6960   32.6190   38.1010 O.2   234  LEU234     -0.2864
     79  CB        -8.3210   34.5850   37.6340 C.3   234  LEU234      0.0297
     80  CG        -8.1860   33.9150   36.2720 C.3   234  LEU234      0.0022
     81  CD1       -8.7150   32.4710   36.3340 C.3   234  LEU234      0.0001
     82  CD2       -8.9670   34.7680   35.2490 C.3   234  LEU234      0.0001
     83  N         -4.8760   30.8640   40.7120 N.3   237  GLU237     -0.1231
     84  CA        -5.4280   29.6310   40.1740 C.3   237  GLU237      0.1699
     85  C         -4.6390   29.1200   38.9760 C.2   237  GLU237      0.2592
     86  O         -4.2980   27.9340   38.9020 O.2   237  GLU237     -0.2718
     87  CB        -6.8960   29.8180   39.7820 C.3   237  GLU237      0.0402
     88  CG        -7.5220   28.5710   39.2070 C.3   237  GLU237      0.1161
     89  CD        -8.9890   28.7720   38.8800 C.2   237  GLU237      0.3649
     90  OE1       -9.7590   29.2340   39.7690 O.co2 237  GLU237     -0.2457
     91  OE2       -9.3570   28.4750   37.7240 O.co2 237  GLU237     -0.2457
     92  N         -4.3720   30.0110   38.0240 N.am  238  MET238     -0.1979
     93  CA        -3.6240   29.6350   36.8280 C.3   238  MET238      0.1605
     94  C         -2.1940   29.2140   37.1910 C.2   238  MET238      0.2287
     95  O         -1.6630   28.2450   36.6510 O.2   238  MET238     -0.2864
     96  CB        -3.6020   30.7960   35.8280 C.3   238  MET238      0.0413
     97  CG        -5.0020   31.2110   35.3640 C.3   238  MET238      0.0598
     98  SD        -5.8880   29.8250   34.6180 S.3   238  MET238     -0.1393
     99  CE        -4.9560   29.6580   33.1250 C.3   238  MET238      0.0692
    100  N         -2.0800   25.6260   38.5110 N.3   241  ALA241     -0.1231
    101  CA        -2.7540   24.5920   37.7250 C.3   241  ALA241      0.1694
    102  C         -1.8180   23.7270   36.8860 C.2   241  ALA241      0.2591
    103  O         -0.6200   24.0020   36.7720 O.2   241  ALA241     -0.2718
    104  CB        -3.8420   25.1950   36.8470 C.3   241  ALA241      0.0304
    105  N         -2.4020   22.6820   36.3030 N.am  242  LYS242     -0.1980
    106  CA        -1.7090   21.7340   35.4330 C.3   242  LYS242      0.1596
    107  C         -0.5790   21.0100   36.1560 C.2   242  LYS242      0.2287
    108  O         -0.8180   20.0340   36.8680 O.2   242  LYS242     -0.2864
    109  CB        -1.1940   22.4110   34.1570 C.3   242  LYS242      0.0298
    110  CG        -0.8510   21.4250   33.0470 C.3   242  LYS242      0.0038
    111  CD        -0.1100   22.0900   31.9020 C.3   242  LYS242      0.0206
    112  CE         0.1150   21.1070   30.7690 C.3   242  LYS242      0.1093
    113  NZ         0.6920   19.8310   31.2700 N.3   242  LYS242     -0.1314
@<TRIPOS>BOND
     1    19    20    1
     2    42    43    1
     3    49    47    1
     4    20    21    1
     5    20    23    1
     6    28    29    2
     7    28    27    1
     8    15    14    2
     9    47    48    1
    10    47    46    1
    11    21    26   am
    12    21    22    2
    13    26    27    1
    14    25    23    1
    15    43    46    1
    16    43    44    1
    17    34    35    1
    18    27    30    1
    19    30    31    1
    20    14    13    1
    21    23    24    1
    22    13    12    1
    23    13    16    1
    24    36    35    1
    25    36    37    2
    26    44    45    2
    27    44    50   am
    28    31    33   ar
    29    31    32   ar
    30    35    38    1
    31    50    51    1
    32    17    16    1
    33    52    51    1
    34    52    53    2
    35    16    18    1
    36    38    39    1
    37   112   113    1
    38   112   111    1
    39    51    54    1
    40    39    40    1
    41     4     3    2
    42    54    55    1
    43   111   110    1
    44     3     2    1
    45    58    56   am
    46    40    41    1
    47    55    56    1
    48   110   109    1
    49    99    98    1
    50    56    57    2
    51     2     1    1
    52     2     5    1
    53   109   106    1
    54     5     6    1
    55    98    97    1
    56    82    80    1
    57    97    96    1
    58   106   107    1
    59   106   105    1
    60     6     8   ar
    61     6     7   ar
    62     8    10   ar
    63    96    93    1
    64   107   108    2
    65    80    81    1
    66    80    79    1
    67   105   102   am
    68    95    94    2
    69     7     9   ar
    70   103   102    2
    71    93    94    1
    72    93    92    1
    73   104   101    1
    74   102   101    1
    75    10    11   ar
    76    79    76    1
    77    91    89   ar
    78   101   100    1
    79     9    11   ar
    80    92    85   am
    81    78    77    2
    82    77    76    1
    83    76    75    1
    84    89    88    1
    85    89    90   ar
    86    86    85    2
    87    85    84    1
    88    88    87    1
    89    87    84    1
    90    75    69   am
    91    84    83    1
    92    69    70    2
    93    69    68    1
    94    73    72    2
    95    72    71    1
    96    72    74   am
    97    71    68    1
    98    68    67    1
    99    67    61   am
   100    65    64    2
   101    66    64   am
   102    61    62    2
   103    61    60    1
   104    64    63    1
   105    60    63    1
   106    60    59    1
