@<TRIPOS>MOLECULE
tmp/4rwwA00.pdb
 105 100 0 0 0
SMALL
GASTEIGER

@<TRIPOS>ATOM
      1  N         64.2030   67.6710  -94.9430 N.3     7  ILE7       -0.1245
      2  CA        63.6340   67.7010  -93.6100 C.3     7  ILE7        0.1561
      3  C         62.1610   67.3590  -93.7560 C.2     7  ILE7        0.2260
      4  O         61.4410   68.0190  -94.4750 O.2     7  ILE7       -0.2867
      5  CB        63.7860   69.0950  -92.8930 C.3     7  ILE7        0.0252
      6  CG1       65.2350   69.4740  -92.7240 C.3     7  ILE7        0.0019
      7  CG2       63.1790   69.0780  -91.5080 C.3     7  ILE7        0.0019
      8  CD1       65.7270   70.4940  -93.7170 C.3     7  ILE7        0.0001
      9  N         65.0360   68.4200  -84.7150 N.3    33  THR33      -0.1203
     10  CA        63.8700   69.1980  -84.2840 C.3    33  THR33       0.1994
     11  C         63.8060   70.4840  -85.0990 C.2    33  THR33       0.2618
     12  O         64.8580   71.0250  -85.5530 O.2    33  THR33      -0.2717
     13  CB        63.8510   69.5630  -82.8040 C.3    33  THR33       0.1784
     14  OG1       65.0380   70.2690  -82.4850 O.3    33  THR33      -0.2211
     15  CG2       63.7600   68.3440  -81.9250 C.3    33  THR33       0.0376
     16  N         62.5950   71.0130  -85.2550 N.am   34  GLY34      -0.1942
     17  CA        62.3910   72.2520  -85.9850 C.3    34  GLY34       0.2014
     18  C         62.6060   73.4530  -85.1240 C.2    34  GLY34       0.2639
     19  O         62.3070   73.4530  -83.8980 O.2    34  GLY34      -0.2714
     20  N         63.1840   74.4900  -85.7260 N.am   35  GLY35      -0.1939
     21  CA        63.4570   75.6780  -84.9930 C.3    35  GLY35       0.2014
     22  C         62.1940   76.4180  -84.5760 C.2    35  GLY35       0.2639
     23  O         62.2030   77.1160  -83.5660 O.2    35  GLY35      -0.2714
     24  N         61.0960   76.2920  -85.3210 N.am   36  PHE36      -0.1959
     25  CA        59.8420   77.0180  -84.9360 C.3    36  PHE36       0.1771
     26  C         58.9620   76.2450  -83.9670 C.2    36  PHE36       0.2619
     27  O         58.6070   76.7650  -82.9190 O.2    36  PHE36      -0.2715
     28  CB        59.0420   77.3810  -86.1770 C.3    36  PHE36       0.0574
     29  CG        57.8450   78.2740  -85.8900 C.ar   36  PHE36      -0.0200
     30  CD1       56.5930   77.8160  -86.0440 C.ar   36  PHE36      -0.0042
     31  CD2       58.0310   79.5230  -85.3270 C.ar   36  PHE36      -0.0042
     32  CE1       55.5130   78.6300  -85.8120 C.ar   36  PHE36      -0.0003
     33  CE2       56.9650   80.3430  -85.0600 C.ar   36  PHE36      -0.0003
     34  CZ        55.7010   79.8590  -85.2390 C.ar   36  PHE36      -0.0000
     35  N         58.6110   75.0140  -84.2810 N.am   37  LEU37      -0.1977
     36  CA        57.6870   74.2830  -83.4130 C.3    37  LEU37       0.1596
     37  C         58.4150   73.5620  -82.2750 C.2    37  LEU37       0.2287
     38  O         57.8010   73.1290  -81.2800 O.2    37  LEU37      -0.2864
     39  CB        56.8350   73.3080  -84.2420 C.3    37  LEU37       0.0297
     40  CG        55.8360   73.9570  -85.1630 C.3    37  LEU37       0.0022
     41  CD1       55.0800   72.8990  -85.9570 C.3    37  LEU37       0.0001
     42  CD2       54.8350   74.8690  -84.4510 C.3    37  LEU37       0.0001
     43  N         59.6700   70.7370  -82.1940 N.3    39  ALA39      -0.1245
     44  CA        59.1890   69.3940  -82.0980 C.3    39  ALA39       0.1562
     45  C         60.0080   68.4630  -82.9650 C.2    39  ALA39       0.2260
     46  O         60.7620   68.9000  -83.8580 O.2    39  ALA39      -0.2867
     47  CB        57.7180   69.3320  -82.4680 C.3    39  ALA39       0.0290
     48  N         61.3820   66.0890  -85.7950 N.3    41  ASN41      -0.1240
     49  CA        61.1950   65.7700  -87.1990 C.3    41  ASN41       0.1653
     50  C         62.3980   64.9520  -87.6260 C.2    41  ASN41       0.2266
     51  O         63.1620   64.5010  -86.7790 O.2    41  ASN41      -0.2867
     52  CB        60.8950   66.9840  -88.0850 C.3    41  ASN41       0.1155
     53  CG        61.9090   68.1130  -87.9680 C.2    41  ASN41       0.2627
     54  OD1       63.0230   67.9360  -87.4880 O.2    41  ASN41      -0.2716
     55  ND2       61.4730   69.3280  -88.3810 N.am   41  ASN41      -0.0877
     56  N         49.3550   74.9230  -87.2020 N.3    91  VAL91      -0.1231
     57  CA        50.4130   75.5250  -88.0030 C.3    91  VAL91       0.1692
     58  C         50.6810   74.6530  -89.2320 C.2    91  VAL91       0.2592
     59  O         50.8260   73.4280  -89.1110 O.2    91  VAL91      -0.2718
     60  CB        51.6960   75.5820  -87.1630 C.3    91  VAL91       0.0266
     61  CG1       52.8230   76.1510  -87.9780 C.3    91  VAL91       0.0020
     62  CG2       51.4730   76.4410  -85.9070 C.3    91  VAL91       0.0020
     63  N         50.7640   75.2770  -90.3960 N.am   92  GLN92      -0.1966
     64  CA        51.0720   74.5510  -91.6110 C.3    92  GLN92       0.1733
     65  C         52.5110   74.0590  -91.5650 C.2    92  GLN92       0.2616
     66  O         53.4230   74.8350  -91.3420 O.2    92  GLN92      -0.2715
     67  CB        50.8450   75.3940  -92.8050 C.3    92  GLN92       0.0408
     68  CG        49.3760   75.7160  -93.0830 C.3    92  GLN92       0.0908
     69  CD        49.1720   76.3590  -94.4170 C.2    92  GLN92       0.2608
     70  OE1       49.7150   77.4310  -94.7350 O.2    92  GLN92      -0.2717
     71  NE2       48.3220   75.7560  -95.2010 N.am   92  GLN92      -0.0878
     72  N         52.6650   72.7720  -91.8370 N.am   93  VAL93      -0.1963
     73  CA        53.9830   72.1450  -91.9940 C.3    93  VAL93       0.1727
     74  C         54.0080   71.4910  -93.3680 C.2    93  VAL93       0.2616
     75  O         53.1440   70.7030  -93.7140 O.2    93  VAL93      -0.2715
     76  CB        54.2480   71.0940  -90.9090 C.3    93  VAL93       0.0290
     77  CG1       55.6150   70.4610  -91.0610 C.3    93  VAL93       0.0023
     78  CG2       54.1370   71.6680  -89.5110 C.3    93  VAL93       0.0023
     79  N         55.0330   71.7870  -94.1590 N.am   94  GLY94      -0.1955
     80  CA        55.1560   71.2290  -95.5160 C.3    94  GLY94       0.1869
     81  C         55.5170   69.7390  -95.4720 C.2    94  GLY94       0.2309
     82  O         55.9560   69.2010  -94.4680 O.2    94  GLY94      -0.2863
     83  N         58.0640   68.3590  -97.2410 N.3    96  ALA96      -0.1231
     84  CA        59.5060   68.3060  -97.1350 C.3    96  ALA96       0.1694
     85  C         60.1130   69.6460  -97.5000 C.2    96  ALA96       0.2592
     86  O         59.7080   70.2850  -98.4640 O.2    96  ALA96      -0.2718
     87  CB        60.0650   67.2480  -98.0660 C.3    96  ALA96       0.0304
     88  N         61.1880   69.9830  -96.8120 N.am   97  THR97      -0.1953
     89  CA        62.0400   71.1110  -97.1480 C.3    97  THR97       0.1897
     90  C         63.3530   70.5260  -97.6070 C.2    97  THR97       0.2313
     91  O         63.9810   69.7800  -96.8480 O.2    97  THR97      -0.2863
     92  CB        62.2290   71.9960  -95.9250 C.3    97  THR97       0.1794
     93  OG1       60.9530   72.5690  -95.5740 O.3    97  THR97      -0.2208
     94  CG2       63.2280   73.0970  -96.1130 C.3    97  THR97       0.0378
     95  N         67.0950   70.7270  -99.7490 N.3    99  PHE99      -0.1241
     96  CA        68.2550   71.4350 -100.2540 C.3    99  PHE99       0.1605
     97  C         69.0940   70.4260 -101.0730 C.2    99  PHE99       0.2264
     98  O         69.5790   69.4040 -100.5300 O.2    99  PHE99      -0.2867
     99  CB        69.1090   71.9790  -99.1310 C.3    99  PHE99       0.0534
    100  CG        68.3640   72.9240  -98.2270 C.ar   99  PHE99      -0.0203
    101  CD1       68.2490   74.2600  -98.5570 C.ar   99  PHE99      -0.0042
    102  CD2       67.8120   72.4810  -97.0500 C.ar   99  PHE99      -0.0042
    103  CE1       67.4790   75.1140  -97.7650 C.ar   99  PHE99      -0.0003
    104  CE2       67.0570   73.3370  -96.2270 C.ar   99  PHE99      -0.0003
    105  CZ        66.9120   74.6480  -96.5980 C.ar   99  PHE99      -0.0000
@<TRIPOS>BOND
     1    97    98    2
     2    97    96    1
     3    96    95    1
     4    96    99    1
     5    99   100    1
     6   101   100   ar
     7   101   103   ar
     8    86    85    2
     9   100   102   ar
    10    87    84    1
    11   103   105   ar
    12    90    89    1
    13    90    91    2
    14    85    84    1
    15    85    88   am
    16    83    84    1
    17    89    88    1
    18    89    92    1
    19   102   104   ar
    20   105   104   ar
    21    94    92    1
    22    92    93    1
    23    80    81    1
    24    80    79    1
    25    81    82    2
    26    71    69   am
    27     1     2    1
    28    70    69    2
    29     4     3    2
    30    69    68    1
    31    79    74   am
    32     3     2    1
    33     8     6    1
    34    75    74    2
    35     2     5    1
    36    74    73    1
    37    68    67    1
    38     5     6    1
    39     5     7    1
    40    67    64    1
    41    73    72    1
    42    73    76    1
    43    72    65   am
    44    64    65    1
    45    64    63    1
    46    65    66    2
    47    77    76    1
    48    76    78    1
    49    63    58   am
    50    58    59    2
    51    58    57    1
    52    55    53   am
    53    52    53    1
    54    52    49    1
    55    57    56    1
    56    57    60    1
    57    61    60    1
    58    53    54    2
    59    50    49    1
    60    50    51    2
    61    49    48    1
    62    60    62    1
    63    28    29    1
    64    28    25    1
    65    30    29   ar
    66    30    32   ar
    67    17    16    1
    68    17    18    1
    69    41    40    1
    70    29    31   ar
    71    32    34   ar
    72    20    18   am
    73    20    21    1
    74    12    11    2
    75    31    33   ar
    76    24    25    1
    77    24    22   am
    78    16    11   am
    79    34    33   ar
    80    40    42    1
    81    40    39    1
    82    18    19    2
    83    11    10    1
    84    21    22    1
    85    25    26    1
    86     9    10    1
    87    22    23    2
    88    10    13    1
    89    35    26   am
    90    35    36    1
    91    39    36    1
    92    26    27    2
    93    46    45    2
    94    36    37    1
    95    45    44    1
    96    13    14    1
    97    13    15    1
    98    47    44    1
    99    37    38    2
   100    43    44    1
