@<TRIPOS>MOLECULE
tmp/4rwwA02.pdb
 80 73 0 0 0
SMALL
GASTEIGER

@<TRIPOS>ATOM
      1  N         74.1430   65.9230 -103.1710 N.3     3  LEU3       -0.1245
      2  CA        73.7810   65.4760 -101.8290 C.3     3  LEU3        0.1561
      3  C         72.5600   66.2250 -101.3710 C.2     3  LEU3        0.2260
      4  O         72.5590   67.4420 -101.3580 O.2     3  LEU3       -0.2867
      5  CB        74.9350   65.7470 -100.8550 C.3     3  LEU3        0.0270
      6  CG        74.7730   65.0830  -99.4870 C.3     3  LEU3        0.0019
      7  CD1       74.7430   63.5740  -99.6230 C.3     3  LEU3        0.0001
      8  CD2       75.9250   65.4900  -98.5480 C.3     3  LEU3        0.0001
      9  N         64.6570   52.9960 -100.5870 N.3    21  THR21      -0.1218
     10  CA        65.2640   51.6700 -100.7660 C.3    21  THR21       0.1862
     11  C         64.6620   50.9350 -101.9710 C.2    21  THR21       0.2287
     12  O         65.3840   50.3870 -102.7910 O.2    21  THR21      -0.2866
     13  CB        65.0860   50.8150  -99.5070 C.3    21  THR21       0.1770
     14  OG1       65.8010   51.4300  -98.4170 O.3    21  THR21      -0.2211
     15  CG2       65.6150   49.3610  -99.7770 C.3    21  THR21       0.0375
     16  N         66.1460   52.1270 -105.0210 N.3    24  ASN24      -0.1240
     17  CA        67.5730   51.9320 -105.0720 C.3    24  ASN24       0.1653
     18  C         68.2940   53.2390 -104.8560 C.2    24  ASN24       0.2266
     19  O         69.3470   53.4840 -105.4430 O.2    24  ASN24      -0.2867
     20  CB        67.9710   51.2410 -106.4040 C.3    24  ASN24       0.1155
     21  CG        69.4290   50.7990 -106.4840 C.2    24  ASN24       0.2627
     22  OD1       70.1280   50.5270 -105.4680 O.2    24  ASN24      -0.2716
     23  ND2       69.8790   50.6320 -107.6820 N.am   24  ASN24      -0.0877
     24  N         70.3250   55.2270 -101.8670 N.3    26  GLY26      -0.1210
     25  CA        70.9010   55.1470 -100.5400 C.3    26  GLY26       0.1956
     26  C         70.5110   56.3750  -99.7530 C.2    26  GLY26       0.2612
     27  O         70.1600   57.4220 -100.3080 O.2    26  GLY26      -0.2717
     28  N         70.6270   56.2610  -98.4440 N.am   27  ALA27      -0.1965
     29  CA        70.1090   57.3140  -97.5530 C.3    27  ALA27       0.1728
     30  C         70.6480   57.0720  -96.1800 C.2    27  ALA27       0.2616
     31  O         70.8260   55.9040  -95.7250 O.2    27  ALA27      -0.2715
     32  CB        68.6100   57.3460  -97.5000 C.3    27  ALA27       0.0334
     33  N         70.8650   58.1800  -95.4760 N.am   28  THR28      -0.1951
     34  CA        71.1790   58.1490  -94.0710 C.3    28  THR28       0.1897
     35  C         70.2130   59.1280  -93.4110 C.2    28  THR28       0.2313
     36  O         69.9260   60.1880  -93.9740 O.2    28  THR28      -0.2863
     37  CB        72.6480   58.5790  -93.9060 C.3    28  THR28       0.1794
     38  OG1       73.5020   57.6310  -94.5510 O.3    28  THR28      -0.2208
     39  CG2       73.0380   58.7180  -92.4800 C.3    28  THR28       0.0378
     40  N         69.6910   62.4950  -95.5010 N.3    45  ILE45      -0.1245
     41  CA        70.8260   62.8310  -96.3530 C.3    45  ILE45       0.1561
     42  C         70.8910   61.7690  -97.4310 C.2    45  ILE45       0.2260
     43  O         71.0270   60.5800  -97.1290 O.2    45  ILE45      -0.2867
     44  CB        72.1490   62.8080  -95.5310 C.3    45  ILE45       0.0252
     45  CG1       72.0630   63.7980  -94.3790 C.3    45  ILE45       0.0019
     46  CG2       73.2740   63.1310  -96.4250 C.3    45  ILE45       0.0019
     47  CD1       73.2240   63.6960  -93.4130 C.3    45  ILE45       0.0001
     48  N         72.5710   60.8420 -101.0840 N.3    47  GLY47      -0.1225
     49  CA        73.5370   61.1190 -102.1610 C.3    47  GLY47       0.1811
     50  C         73.0670   60.4320 -103.4440 C.2    47  GLY47       0.2280
     51  O         72.6400   59.2690 -103.3950 O.2    47  GLY47      -0.2866
     52  N         83.6320   62.2310 -104.3560 N.3   106  PHE106     -0.1241
     53  CA        82.9600   61.1120 -103.6930 C.3   106  PHE106      0.1605
     54  C         83.9380   59.9840 -103.5200 C.2   106  PHE106      0.2264
     55  O         84.7060   59.6840 -104.4250 O.2   106  PHE106     -0.2867
     56  CB        81.7530   60.6070 -104.4920 C.3   106  PHE106      0.0534
     57  CG        81.1320   59.4010 -103.8960 C.ar  106  PHE106     -0.0203
     58  CD1       80.4090   59.5100 -102.7100 C.ar  106  PHE106     -0.0042
     59  CD2       81.4060   58.1400 -104.3830 C.ar  106  PHE106     -0.0042
     60  CE1       79.9050   58.4040 -102.0870 C.ar  106  PHE106     -0.0003
     61  CE2       80.9230   57.0330 -103.7660 C.ar  106  PHE106     -0.0003
     62  CZ        80.1700   57.1420 -102.6050 C.ar  106  PHE106     -0.0000
     63  N         84.2210   55.8710 -101.6370 N.3   108  HIS108     -0.1241
     64  CA        83.6840   54.7640 -100.9260 C.3   108  HIS108      0.1621
     65  C         84.8140   53.8290 -100.5570 C.2   108  HIS108      0.2264
     66  O         85.4260   53.1830 -101.4380 O.2   108  HIS108     -0.2867
     67  CB        82.6130   54.0200 -101.7650 C.3   108  HIS108      0.0745
     68  CG        81.8770   52.9500 -101.0110 C.ar  108  HIS108      0.0817
     69  ND1       81.3350   51.8410 -101.6340 N.ar  108  HIS108     -0.2268
     70  CD2       81.4510   52.8880  -99.7230 C.ar  108  HIS108      0.1154
     71  CE1       80.6880   51.1010 -100.7510 C.ar  108  HIS108      0.1986
     72  NE2       80.7320   51.7240  -99.5850 N.ar  108  HIS108     -0.2212
     73  N         86.7480   50.8240  -98.7760 N.3   110  LEU110     -0.1245
     74  CA        86.4150   49.4210  -98.5540 C.3   110  LEU110      0.1561
     75  C         87.6240   48.6410  -98.0590 C.2   110  LEU110      0.2260
     76  O         87.7240   47.4390  -98.3150 O.2   110  LEU110     -0.2867
     77  CB        85.9290   48.7740  -99.8610 C.3   110  LEU110      0.0270
     78  CG        84.6250   49.3300 -100.4540 C.3   110  LEU110      0.0019
     79  CD1       84.3540   48.7010 -101.8080 C.3   110  LEU110      0.0001
     80  CD2       83.4490   49.1140  -99.5060 C.3   110  LEU110      0.0001
@<TRIPOS>BOND
     1    23    21   am
     2    21    20    1
     3    21    22    2
     4    20    17    1
     5    19    18    2
     6    17    16    1
     7    17    18    1
     8    56    57    1
     9    56    53    1
    10    55    54    2
    11    59    57   ar
    12    59    61   ar
    13    52    53    1
    14    57    58   ar
    15    61    62   ar
    16    53    54    1
    17    50    51    2
    18    50    49    1
    19     1     2    1
    20    12    11    2
    21    58    60   ar
    22    62    60   ar
    23    49    48    1
    24    11    10    1
    25    24    25    1
    26     2     3    1
    27     2     5    1
    28    79    78    1
    29    67    68    1
    30    67    64    1
    31    63    64    1
    32    69    68   ar
    33    69    71   ar
    34    66    65    2
    35     3     4    2
    36    68    70   ar
    37    64    65    1
    38     5     6    1
    39    10     9    1
    40    10    13    1
    41    71    72   ar
    42    25    26    1
    43    78    77    1
    44    78    80    1
    45    27    26    2
    46    77    74    1
    47    15    13    1
    48    26    28   am
    49    70    72   ar
    50     7     6    1
    51    13    14    1
    52     6     8    1
    53    73    74    1
    54    74    75    1
    55    28    29    1
    56    76    75    2
    57    29    32    1
    58    29    30    1
    59    42    43    2
    60    42    41    1
    61    46    44    1
    62    41    44    1
    63    41    40    1
    64    30    31    2
    65    30    33   am
    66    44    45    1
    67    33    34    1
    68    38    37    1
    69    45    47    1
    70    34    37    1
    71    34    35    1
    72    36    35    2
    73    37    39    1
