@<TRIPOS>MOLECULE
tmp/4rx0A00.pdb
 177 165 0 0 0
SMALL
GASTEIGER

@<TRIPOS>ATOM
      1  N        -33.4450  -11.6480  -21.8110 N.3    12  LEU12      -0.1245
      2  CA       -32.2580  -12.1520  -21.1350 C.3    12  LEU12       0.1561
      3  C        -31.8390  -13.5140  -21.6870 C.2    12  LEU12       0.2260
      4  O        -30.6630  -13.7390  -21.9730 O.2    12  LEU12      -0.2867
      5  CB       -32.5170  -12.2490  -19.6320 C.3    12  LEU12       0.0270
      6  CG       -31.2980  -12.1160  -18.7240 C.3    12  LEU12       0.0019
      7  CD1      -31.4920  -10.9470  -17.7840 C.3    12  LEU12       0.0001
      8  CD2      -31.0590  -13.3990  -17.9490 C.3    12  LEU12       0.0001
      9  N        -30.2330  -12.9010  -24.8900 N.3    15  CYS15      -0.1221
     10  CA       -28.8880  -12.3780  -24.6650 C.3    15  CYS15       0.1808
     11  C        -27.9370  -13.4790  -24.2150 C.2    15  CYS15       0.2601
     12  O        -26.7690  -13.5060  -24.6000 O.2    15  CYS15      -0.2717
     13  CB       -28.9160  -11.2610  -23.6190 C.3    15  CYS15       0.0970
     14  SG       -29.5000   -9.6660  -24.2320 S.3    15  CYS15      -0.0800
     15  N        -28.4520  -14.3840  -23.3920 N.am   16  LEU16      -0.1979
     16  CA       -27.6670  -15.4890  -22.8660 C.3    16  LEU16       0.1596
     17  C        -27.1970  -16.4130  -23.9840 C.2    16  LEU16       0.2287
     18  O        -26.1020  -16.9730  -23.9260 O.2    16  LEU16      -0.2864
     19  CB       -28.4920  -16.2710  -21.8430 C.3    16  LEU16       0.0297
     20  CG       -27.8990  -17.5740  -21.3070 C.3    16  LEU16       0.0022
     21  CD1      -26.5380  -17.3340  -20.6780 C.3    16  LEU16       0.0001
     22  CD2      -28.8580  -18.1920  -20.3060 C.3    16  LEU16       0.0001
     23  N        -20.8050  -12.8830  -22.1140 N.3    21  GLY21      -0.1210
     24  CA       -21.2560  -12.8020  -20.7350 C.3    21  GLY21       0.1956
     25  C        -21.0530  -11.4570  -20.0650 C.2    21  GLY21       0.2611
     26  O        -22.0150  -10.8340  -19.6200 O.2    21  GLY21      -0.2717
     27  N        -19.8030  -11.0100  -19.9750 N.am   22  GLU22      -0.1979
     28  CA       -19.4960   -9.7540  -19.2970 C.3    22  GLU22       0.1602
     29  C        -20.1850   -8.5870  -19.9950 C.2    22  GLU22       0.2287
     30  O        -20.5010   -7.5760  -19.3690 O.2    22  GLU22      -0.2864
     31  CB       -17.9830   -9.5270  -19.2400 C.3    22  GLU22       0.0415
     32  CG       -17.5640   -8.3700  -18.3410 C.3    22  GLU22       0.1163
     33  CD       -16.1400   -8.5000  -17.8360 C.2    22  GLU22       0.3649
     34  OE1      -15.3800   -9.3280  -18.3800 O.co2  22  GLU22      -0.2457
     35  OE2      -15.7800   -7.7750  -16.8850 O.co2  22  GLU22      -0.2457
     36  N        -23.1950   -8.9300  -21.4380 N.3    24  CYS24      -0.1221
     37  CA       -24.5830   -9.0540  -20.9940 C.3    24  CYS24       0.1808
     38  C        -24.7500   -8.4750  -19.6010 C.2    24  CYS24       0.2601
     39  O        -25.6750   -7.7110  -19.3370 O.2    24  CYS24      -0.2717
     40  CB       -25.0320  -10.5160  -20.9890 C.3    24  CYS24       0.0970
     41  SG       -25.3510  -11.2270  -22.6080 S.3    24  CYS24      -0.0800
     42  N        -23.8440   -8.8670  -18.7120 N.am   25  HIS25      -0.1975
     43  CA       -23.8680   -8.4380  -17.3230 C.3    25  HIS25       0.1656
     44  C        -23.9110   -6.9180  -17.2260 C.2    25  HIS25       0.2291
     45  O        -24.7650   -6.3550  -16.5460 O.2    25  HIS25      -0.2864
     46  CB       -22.6420   -8.9870  -16.5870 C.3    25  HIS25       0.0771
     47  CG       -22.7540   -8.9400  -15.0960 C.ar   25  HIS25       0.0820
     48  ND1      -23.7160   -9.6330  -14.4000 N.ar   25  HIS25      -0.2267
     49  CD2      -22.0140   -8.2920  -14.1640 C.ar   25  HIS25       0.1154
     50  CE1      -23.5760   -9.4100  -13.1080 C.ar   25  HIS25       0.1986
     51  NE2      -22.5500   -8.6000  -12.9360 N.ar   25  HIS25      -0.2212
     52  N        -27.2950   -5.1650  -18.4760 N.3    28  PHE28      -0.1227
     53  CA       -28.4590   -5.2140  -17.6090 C.3    28  PHE28       0.1736
     54  C        -28.2240   -4.4460  -16.3140 C.2    28  PHE28       0.2595
     55  O        -29.1640   -3.9330  -15.7110 O.2    28  PHE28      -0.2718
     56  CB       -28.8310   -6.6650  -17.3290 C.3    28  PHE28       0.0547
     57  CG       -29.5350   -7.3290  -18.4750 C.ar   28  PHE28      -0.0202
     58  CD1      -30.8910   -7.1330  -18.6720 C.ar   28  PHE28      -0.0042
     59  CD2      -28.8430   -8.1310  -19.3640 C.ar   28  PHE28      -0.0042
     60  CE1      -31.5450   -7.7320  -19.7280 C.ar   28  PHE28      -0.0003
     61  CE2      -29.4920   -8.7350  -20.4230 C.ar   28  PHE28      -0.0003
     62  CZ       -30.8460   -8.5330  -20.6060 C.ar   28  PHE28      -0.0000
     63  N        -26.9670   -4.3660  -15.8930 N.am   29  LEU29      -0.1980
     64  CA       -26.5860   -3.4660  -14.8150 C.3    29  LEU29       0.1596
     65  C        -26.9310   -2.0430  -15.2220 C.2    29  LEU29       0.2287
     66  O        -27.3960   -1.2450  -14.4080 O.2    29  LEU29      -0.2864
     67  CB       -25.0940   -3.5860  -14.5040 C.3    29  LEU29       0.0297
     68  CG       -24.6580   -4.8670  -13.7930 C.3    29  LEU29       0.0022
     69  CD1      -23.1520   -5.0300  -13.8710 C.3    29  LEU29       0.0001
     70  CD2      -25.1170   -4.8580  -12.3500 C.3    29  LEU29       0.0001
     71  N        -35.9480   -1.6890  -14.9450 N.3    37  LEU37      -0.1245
     72  CA       -36.1850   -3.0770  -14.5670 C.3    37  LEU37       0.1561
     73  C        -37.4150   -3.1540  -13.6680 C.2    37  LEU37       0.2260
     74  O        -37.8160   -2.1500  -13.0820 O.2    37  LEU37      -0.2867
     75  CB       -34.9650   -3.6580  -13.8530 C.3    37  LEU37       0.0270
     76  CG       -33.6400   -3.5970  -14.6140 C.3    37  LEU37       0.0019
     77  CD1      -32.5390   -4.2090  -13.7730 C.3    37  LEU37       0.0001
     78  CD2      -33.7430   -4.3060  -15.9500 C.3    37  LEU37       0.0001
     79  N        -21.1720   -9.4720   -8.3680 N.3    67  PHE67      -0.1241
     80  CA       -22.2910   -9.2230   -9.2630 C.3    67  PHE67       0.1605
     81  C        -22.3680   -7.7390   -9.5780 C.2    67  PHE67       0.2264
     82  O        -22.4230   -7.3450  -10.7410 O.2    67  PHE67      -0.2867
     83  CB       -23.5970   -9.7080   -8.6420 C.3    67  PHE67       0.0534
     84  CG       -24.7210   -9.8010   -9.6160 C.ar   67  PHE67      -0.0203
     85  CD1      -25.4790   -8.6870   -9.9230 C.ar   67  PHE67      -0.0042
     86  CD2      -25.0140  -11.0010  -10.2330 C.ar   67  PHE67      -0.0042
     87  CE1      -26.5130   -8.7720  -10.8240 C.ar   67  PHE67      -0.0003
     88  CE2      -26.0460  -11.0890  -11.1320 C.ar   67  PHE67      -0.0003
     89  CZ       -26.7970   -9.9760  -11.4260 C.ar   67  PHE67      -0.0000
     90  N        -25.7140   -0.4130   -9.3900 N.3    73  CYS73      -0.1235
     91  CA       -27.0690   -0.8900   -9.6640 C.3    73  CYS73       0.1677
     92  C        -27.7560   -1.4170   -8.4080 C.2    73  CYS73       0.2270
     93  O        -28.5190   -2.3800   -8.4660 O.2    73  CYS73      -0.2867
     94  CB       -27.0220   -1.9890  -10.7240 C.3    73  CYS73       0.0956
     95  SG       -28.6120   -2.3880  -11.4520 S.3    73  CYS73      -0.0801
     96  N        -31.4600   -3.8910   -8.2500 N.3    77  ILE77      -0.1245
     97  CA       -31.2590   -5.2830   -7.8860 C.3    77  ILE77       0.1561
     98  C        -31.9890   -5.6010   -6.5850 C.2    77  ILE77       0.2260
     99  O        -32.6310   -6.6400   -6.4750 O.2    77  ILE77      -0.2867
    100  CB       -29.7620   -5.6180   -7.7590 C.3    77  ILE77       0.0252
    101  CG1      -29.1140   -5.6070   -9.1470 C.3    77  ILE77       0.0019
    102  CG2      -29.5610   -6.9900   -7.1200 C.3    77  ILE77       0.0019
    103  CD1      -27.6010   -5.6310   -9.1320 C.3    77  ILE77       0.0001
    104  N        -35.7320   -6.1720   -6.9060 N.3    80  LEU80      -0.1245
    105  CA       -36.1720   -7.3950   -7.5720 C.3    80  LEU80       0.1561
    106  C        -36.7260   -8.4010   -6.5710 C.2    80  LEU80       0.2260
    107  O        -37.3400   -9.3930   -6.9600 O.2    80  LEU80      -0.2867
    108  CB       -35.0250   -8.0370   -8.3530 C.3    80  LEU80       0.0270
    109  CG       -34.6900   -7.4520   -9.7240 C.3    80  LEU80       0.0019
    110  CD1      -33.4500   -8.1280  -10.2610 C.3    80  LEU80       0.0001
    111  CD2      -35.8430   -7.6210  -10.6970 C.3    80  LEU80       0.0001
    112  N        -14.9210  -14.3250  -18.6610 N.3   103  ILE103     -0.1245
    113  CA       -16.0790  -15.0080  -18.0950 C.3   103  ILE103      0.1561
    114  C        -16.8030  -15.8160  -19.1630 C.2   103  ILE103      0.2260
    115  O        -17.1200  -15.2980  -20.2350 O.2   103  ILE103     -0.2867
    116  CB       -17.0890  -14.0340  -17.4680 C.3   103  ILE103      0.0252
    117  CG1      -16.3880  -12.8460  -16.8020 C.3   103  ILE103      0.0019
    118  CG2      -17.9330  -14.7790  -16.4650 C.3   103  ILE103      0.0019
    119  CD1      -17.3470  -11.8110  -16.2370 C.3   103  ILE103      0.0001
    120  N        -19.9310  -19.0900  -19.7270 N.3   105  ARG105     -0.1245
    121  CA       -21.0120  -19.8150  -19.0890 C.3   105  ARG105      0.1563
    122  C        -21.5040  -21.0220  -19.8660 C.2   105  ARG105      0.2260
    123  O        -21.7810  -20.9450  -21.0590 O.2   105  ARG105     -0.2867
    124  CB       -22.2210  -18.8960  -18.8470 C.3   105  ARG105      0.0307
    125  CG       -21.9290  -17.4080  -18.7140 C.3   105  ARG105      0.0489
    126  CD       -22.9730  -16.5780  -19.4450 C.3   105  ARG105      0.2205
    127  NE       -22.5800  -16.3030  -20.8220 N.pl3 105  ARG105     -0.0865
    128  CZ       -23.2550  -15.5160  -21.6510 C.cat 105  ARG105      0.5346
    129  NH1      -24.3640  -14.9180  -21.2490 N.pl3 105  ARG105      0.1354
    130  NH2      -22.8170  -15.3290  -22.8870 N.pl3 105  ARG105      0.1354
    131  N        -20.7130  -21.5020  -14.4810 N.3   112  ILE112     -0.1245
    132  CA       -19.9260  -20.3720  -14.9460 C.3   112  ILE112      0.1561
    133  C        -18.4960  -20.5620  -14.4820 C.2   112  ILE112      0.2260
    134  O        -18.2580  -21.1640  -13.4380 O.2   112  ILE112     -0.2867
    135  CB       -20.4690  -19.0310  -14.4040 C.3   112  ILE112      0.0252
    136  CG1      -21.9590  -18.8780  -14.7310 C.3   112  ILE112      0.0019
    137  CG2      -19.6720  -17.8530  -14.9660 C.3   112  ILE112      0.0019
    138  CD1      -22.6200  -17.7190  -14.0270 C.3   112  ILE112      0.0001
    139  N        -26.0890  -15.8580   -7.3730 N.3   329  TYR329     -0.1241
    140  CA       -25.3430  -15.2360   -8.4580 C.3   329  TYR329      0.1605
    141  C        -25.7230  -15.9260   -9.7620 C.2   329  TYR329      0.2264
    142  O        -26.3300  -15.3150  -10.6410 O.2   329  TYR329     -0.2867
    143  CB       -23.8290  -15.3160   -8.2160 C.3   329  TYR329      0.0534
    144  CG       -23.0090  -14.4060   -9.1160 C.ar  329  TYR329     -0.0201
    145  CD1      -23.2100  -14.3840  -10.4920 C.ar  329  TYR329     -0.0009
    146  CD2      -22.0430  -13.5620   -8.5880 C.ar  329  TYR329     -0.0009
    147  CE1      -22.4730  -13.5580  -11.3080 C.ar  329  TYR329      0.0417
    148  CE2      -21.3000  -12.7300   -9.4030 C.ar  329  TYR329      0.0417
    149  CZ       -21.5210  -12.7340  -10.7620 C.ar  329  TYR329      0.1957
    150  OH       -20.7910  -11.9110  -11.5860 O.3   329  TYR329     -0.2866
    151  N        -29.4440  -15.8630  -11.2340 N.3   332  LEU332     -0.1231
    152  CA       -29.8690  -14.6790  -11.9720 C.3   332  LEU332      0.1693
    153  C        -29.4260  -14.7190  -13.4290 C.2   332  LEU332      0.2591
    154  O        -30.1040  -14.1870  -14.3070 O.2   332  LEU332     -0.2718
    155  CB       -29.3230  -13.4190  -11.3040 C.3   332  LEU332      0.0284
    156  CG       -29.9770  -13.0350   -9.9780 C.3   332  LEU332      0.0019
    157  CD1      -29.1890  -11.9300   -9.3140 C.3   332  LEU332      0.0001
    158  CD2      -31.4140  -12.6050  -10.1920 C.3   332  LEU332      0.0001
    159  N        -28.2840  -15.3460  -13.6820 N.am  333  VAL333     -0.1980
    160  CA       -27.7690  -15.4650  -15.0380 C.3   333  VAL333      0.1595
    161  C        -28.6410  -16.4050  -15.8580 C.2   333  VAL333      0.2287
    162  O        -28.9700  -16.1150  -17.0080 O.2   333  VAL333     -0.2864
    163  CB       -26.3160  -15.9820  -15.0460 C.3   333  VAL333      0.0276
    164  CG1      -25.8200  -16.2030  -16.4750 C.3   333  VAL333      0.0022
    165  CG2      -25.4070  -15.0100  -14.3090 C.3   333  VAL333      0.0022
    166  N        -32.8900  -15.5440  -14.5360 N.3   336  GLY336     -0.1210
    167  CA       -33.3330  -14.1850  -14.8010 C.3   336  GLY336      0.1956
    168  C        -33.8410  -13.4080  -13.5980 C.2   336  GLY336      0.2611
    169  O        -33.5410  -13.7410  -12.4520 O.2   336  GLY336     -0.2717
    170  N        -34.6280  -12.3700  -13.8750 N.am  337  MET337     -0.1979
    171  CA       -35.0440  -11.3930  -12.8680 C.3   337  MET337      0.1605
    172  C        -36.0960  -11.9100  -11.8940 C.2   337  MET337      0.2287
    173  O        -36.3220  -11.3120  -10.8400 O.2   337  MET337     -0.2864
    174  CB       -35.5860  -10.1430  -13.5600 C.3   337  MET337      0.0413
    175  CG       -34.5640   -9.4310  -14.4150 C.3   337  MET337      0.0598
    176  SD       -35.2280   -7.9500  -15.1900 S.3   337  MET337     -0.1393
    177  CE       -34.0790   -7.7550  -16.5500 C.3   337  MET337      0.0692
@<TRIPOS>BOND
     1     9    10    1
     2    10    11    1
     3    10    13    1
     4    12    11    2
     5    14    13    1
     6    11    15   am
     7    17    18    2
     8    17    16    1
     9    15    16    1
    10   130   128    1
    11    16    19    1
    12    41    40    1
    13    23    24    1
    14     4     3    2
    15    19    20    1
    16     1     2    1
    17     3     2    1
    18   128   129    1
    19   128   127    2
    20    36    37    1
    21    20    21    1
    22    20    22    1
    23     2     5    1
    24   123   122    2
    25    37    40    1
    26    37    38    1
    27   127   126    1
    28    24    25    1
    29    62    61   ar
    30    62    60   ar
    31    61    59   ar
    32   115   114    2
    33    25    27   am
    34    25    26    2
    35    29    30    2
    36    29    28    1
    37    27    28    1
    38   122   121    1
    39    60    58   ar
    40   120   121    1
    41     5     6    1
    42    38    39    2
    43    38    42   am
    44   126   125    1
    45    59    57   ar
    46    28    31    1
    47    31    32    1
    48   114   113    1
    49   121   124    1
    50   124   125    1
    51     6     8    1
    52     6     7    1
    53    42    43    1
    54    58    57   ar
    55   112   113    1
    56    52    53    1
    57    57    56    1
    58    34    33   ar
    59    32    33    1
    60   113   116    1
    61    33    35   ar
    62    53    56    1
    63    53    54    1
    64   116   117    1
    65   116   118    1
    66    43    44    1
    67    43    46    1
    68    44    45    2
    69   162   161    2
    70   117   119    1
    71    46    47    1
    72   177   176    1
    73   164   163    1
    74    54    63   am
    75    54    55    2
    76    78    76    1
    77    63    64    1
    78   161   160    1
    79    65    64    1
    80    65    66    2
    81   176   175    1
    82    47    48   ar
    83    47    49   ar
    84   163   160    1
    85   163   165    1
    86   160   159    1
    87   137   135    1
    88   132   133    1
    89   132   131    1
    90   132   135    1
    91    71    72    1
    92    64    67    1
    93   167   166    1
    94   167   168    1
    95   136   135    1
    96   136   138    1
    97    76    75    1
    98    76    77    1
    99    72    75    1
   100    72    73    1
   101    67    68    1
   102   133   134    2
   103   175   174    1
   104    48    50   ar
   105   154   153    2
   106    49    51   ar
   107   170   168   am
   108   170   171    1
   109    69    68    1
   110    68    70    1
   111   159   153   am
   112    73    74    2
   113   168   169    2
   114   174   171    1
   115   153   152    1
   116    50    51   ar
   117   171   172    1
   118   152   155    1
   119   152   151    1
   120   172   173    2
   121   150   149    1
   122    95    94    1
   123    89    88   ar
   124    89    87   ar
   125   147   149   ar
   126   147   145   ar
   127   155   156    1
   128    88    86   ar
   129    87    85   ar
   130   149   148   ar
   131    82    81    2
   132    94    91    1
   133   111   109    1
   134   142   141    2
   135   145   144   ar
   136   110   109    1
   137    86    84   ar
   138   158   156    1
   139   156   157    1
   140    85    84   ar
   141   141   140    1
   142   109   108    1
   143    91    90    1
   144    91    92    1
   145    84    83    1
   146    81    80    1
   147   148   146   ar
   148    80    83    1
   149    80    79    1
   150   101   103    1
   151   101   100    1
   152   144   146   ar
   153   144   143    1
   154    93    92    2
   155   140   143    1
   156   140   139    1
   157   108   105    1
   158    96    97    1
   159    97   100    1
   160    97    98    1
   161   100   102    1
   162   105   104    1
   163   105   106    1
   164   107   106    2
   165    98    99    2
