@<TRIPOS>MOLECULE
tmp/4rx3A00.pdb
 105 98 0 0 0
SMALL
GASTEIGER

@<TRIPOS>ATOM
      1  N         -0.3740    7.9340   12.9730 N.3    44  MET44      -0.1230
      2  CA        -1.5290    7.8290   12.1000 C.3    44  MET44       0.1702
      3  C         -1.5770    6.4160   11.5230 C.2    44  MET44       0.2592
      4  O         -1.1540    5.4610   12.1710 O.2    44  MET44      -0.2718
      5  CB        -1.4670    8.8820   10.9930 C.3    44  MET44       0.0401
      6  CG        -1.2500   10.3010   11.5280 C.3    44  MET44       0.0596
      7  SD        -0.4930   11.3660   10.2870 S.3    44  MET44      -0.1393
      8  CE         1.1370   10.6420   10.2000 C.3    44  MET44       0.0692
      9  N         -2.0610    6.2760   10.2980 N.am   45  GLY45      -0.1957
     10  CA        -2.1870    4.9550    9.7070 C.3    45  GLY45       0.1869
     11  C         -0.8980    4.2990    9.2610 C.2    45  GLY45       0.2309
     12  O         -0.9360    3.1850    8.7470 O.2    45  GLY45      -0.2863
     13  N         -0.2750    0.7070   10.2180 N.3    48  LYS48      -0.1245
     14  CA        -0.9470   -0.4330    9.6070 C.3    48  LYS48       0.1561
     15  C          0.0510   -1.4050    8.9600 C.2    48  LYS48       0.2260
     16  O         -0.2210   -2.6010    8.8710 O.2    48  LYS48      -0.2867
     17  CB        -1.9950    0.0570    8.6010 C.3    48  LYS48       0.0271
     18  CG        -3.2080    0.6630    9.3140 C.3    48  LYS48       0.0035
     19  CD        -4.0230    1.6420    8.4670 C.3    48  LYS48       0.0206
     20  CE        -5.1870    2.1720    9.3050 C.3    48  LYS48       0.1093
     21  NZ        -5.8700    3.3470    8.6930 N.3    48  LYS48      -0.1314
     22  N        -15.4310    5.0310   10.9530 N.3    79  GLU79      -0.1231
     23  CA       -15.1580    6.0550    9.9550 C.3    79  GLU79       0.1699
     24  C        -14.0340    5.6360    8.9950 C.2    79  GLU79       0.2592
     25  O        -13.0070    5.1060    9.4260 O.2    79  GLU79      -0.2718
     26  CB       -14.8110    7.3690   10.6620 C.3    79  GLU79       0.0402
     27  CG       -14.3440    8.4980    9.7550 C.3    79  GLU79       0.1161
     28  CD       -13.8890    9.7160   10.5390 C.2    79  GLU79       0.3649
     29  OE1      -12.9270    9.5990   11.3300 O.co2  79  GLU79      -0.2457
     30  OE2      -14.4990   10.7930   10.3670 O.co2  79  GLU79      -0.2457
     31  N        -14.2760    5.8590    7.7020 N.am   80  TYR80      -0.1976
     32  CA       -13.3790    5.5540    6.5800 C.3    80  TYR80       0.1639
     33  C        -13.0420    4.0670    6.4930 C.2    80  TYR80       0.2290
     34  O        -11.9990    3.5920    6.9660 O.2    80  TYR80      -0.2864
     35  CB       -12.0880    6.3920    6.6150 C.3    80  TYR80       0.0560
     36  CG       -11.2760    6.1610    5.3570 C.ar   80  TYR80      -0.0198
     37  CD1      -11.7640    6.5570    4.1100 C.ar   80  TYR80      -0.0009
     38  CD2      -10.0420    5.5130    5.4030 C.ar   80  TYR80      -0.0009
     39  CE1      -11.0430    6.3240    2.9490 C.ar   80  TYR80       0.0417
     40  CE2       -9.3170    5.2680    4.2500 C.ar   80  TYR80       0.0417
     41  CZ        -9.8190    5.6760    3.0220 C.ar   80  TYR80       0.1957
     42  OH        -9.1270    5.4390    1.8550 O.3    80  TYR80      -0.2866
     43  N         -5.7640    2.1620    3.4310 N.3   105  SER105     -0.1217
     44  CA        -5.7620    2.6820    4.8100 C.3   105  SER105      0.1889
     45  C         -7.1380    2.4850    5.4810 C.2   105  SER105      0.2288
     46  O         -7.5360    3.2390    6.3570 O.2   105  SER105     -0.2866
     47  CB        -5.3230    4.1620    4.8550 C.3   105  SER105      0.2089
     48  OG        -4.5120    4.3570    5.9730 O.3   105  SER105     -0.2183
     49  N         -9.9000    1.6640    7.9020 N.3   107  ASN107     -0.1240
     50  CA        -9.8240    1.6620    9.3630 C.3   107  ASN107      0.1653
     51  C        -10.4920    0.4590   10.0250 C.2   107  ASN107      0.2266
     52  O         -9.9830   -0.0620   11.0170 O.2   107  ASN107     -0.2867
     53  CB       -10.4280    2.9520    9.9180 C.3   107  ASN107      0.1155
     54  CG        -9.5590    4.1610    9.6470 C.2   107  ASN107      0.2627
     55  OD1       -8.3280    4.0630    9.5990 O.2   107  ASN107     -0.2716
     56  ND2      -10.1900    5.3120    9.4730 N.am  107  ASN107     -0.0877
     57  N         -9.4080    2.2480   16.1880 N.3   141  TYR141     -0.1241
     58  CA       -10.2050    3.3020   15.5820 C.3   141  TYR141      0.1605
     59  C        -11.5880    3.2950   16.2090 C.2   141  TYR141      0.2264
     60  O        -12.1400    2.2300   16.4910 O.2   141  TYR141     -0.2867
     61  CB       -10.2960    3.1100   14.0740 C.3   141  TYR141      0.0534
     62  CG        -9.0010    3.4460   13.3970 C.ar  141  TYR141     -0.0201
     63  CD1       -8.6130    4.7680   13.2550 C.ar  141  TYR141     -0.0009
     64  CD2       -8.1530    2.4470   12.9320 C.ar  141  TYR141     -0.0009
     65  CE1       -7.4140    5.0960   12.6460 C.ar  141  TYR141      0.0417
     66  CE2       -6.9540    2.7580   12.3110 C.ar  141  TYR141      0.0417
     67  CZ        -6.5900    4.0890   12.1810 C.ar  141  TYR141      0.1957
     68  OH        -5.4030    4.4220   11.5710 O.3   141  TYR141     -0.2866
     69  N         -3.3820    5.2840   -2.0160 N.3   191  VAL191     -0.1245
     70  CA        -3.8080    6.6000   -1.5370 C.3   191  VAL191      0.1561
     71  C         -2.6340    7.5180   -1.1720 C.2   191  VAL191      0.2260
     72  O         -2.8190    8.4950   -0.4480 O.2   191  VAL191     -0.2867
     73  CB        -4.7700    6.4850   -0.3220 C.3   191  VAL191      0.0252
     74  CG1       -6.0880    5.8100   -0.7550 C.3   191  VAL191      0.0019
     75  CG2       -4.1170    5.7350    0.8330 C.3   191  VAL191      0.0019
     76  N          0.9180    5.8030    3.6960 N.3   210  SER210     -0.1202
     77  CA         0.6340    7.1600    4.1360 C.3   210  SER210      0.2020
     78  C         -0.1200    7.1870    5.4610 C.2   210  SER210      0.2619
     79  O         -0.6150    6.1550    5.9460 O.2   210  SER210     -0.2717
     80  CB        -0.1820    7.9010    3.0690 C.3   210  SER210      0.2103
     81  OG        -1.4390    7.2700    2.8680 O.3   210  SER210     -0.2182
     82  N         -0.1990    8.3740    6.0500 N.am  211  GLY211     -0.1942
     83  CA        -1.0560    8.5980    7.1960 C.3   211  GLY211      0.2014
     84  C         -1.5520   10.0250    7.2080 C.2   211  GLY211      0.2639
     85  O         -0.8890   10.9160    6.6670 O.2   211  GLY211     -0.2714
     86  N         -2.7220   10.2280    7.8090 N.am  212  ALA212     -0.1963
     87  CA        -3.2760   11.5580    8.0310 C.3   212  ALA212      0.1728
     88  C         -3.9290   11.5950    9.4040 C.2   212  ALA212      0.2616
     89  O         -4.3760   10.5670    9.9130 O.2   212  ALA212     -0.2715
     90  CB        -4.2800   11.9110    6.9520 C.3   212  ALA212      0.0334
     91  N         -3.9720   12.7630   10.0270 N.am  213  GLY213     -0.1955
     92  CA        -4.6520   12.8820   11.3000 C.3   213  GLY213      0.1869
     93  C         -5.0440   14.3100   11.6010 C.2   213  GLY213      0.2309
     94  O         -4.6990   15.2300   10.8680 O.2   213  GLY213     -0.2863
     95  N          0.3700   14.4900    9.1600 N.3   218  ARG218     -0.1245
     96  CA         0.5010   13.9210    7.8280 C.3   218  ARG218      0.1563
     97  C          1.8340   13.2020    7.7990 C.2   218  ARG218      0.2260
     98  O          2.8110   13.6660    8.3980 O.2   218  ARG218     -0.2867
     99  CB         0.4230   15.0190    6.7430 C.3   218  ARG218      0.0307
    100  CG         0.3950   14.5210    5.3040 C.3   218  ARG218      0.0489
    101  CD        -0.7920   13.6310    5.0760 C.3   218  ARG218      0.2205
    102  NE        -1.1870   13.5480    3.6770 N.pl3 218  ARG218     -0.0865
    103  CZ        -1.8050   12.5010    3.1530 C.cat 218  ARG218      0.5346
    104  NH1       -2.0240   11.4200    3.9010 N.pl3 218  ARG218      0.1354
    105  NH2       -2.1840   12.5210    1.8800 N.pl3 218  ARG218      0.1354
@<TRIPOS>BOND
     1    69    70    1
     2    70    71    1
     3    70    73    1
     4    71    72    2
     5    74    73    1
     6    73    75    1
     7    42    41    1
     8   105   103    1
     9    81    80    1
    10    39    41   ar
    11    39    37   ar
    12    41    40   ar
    13    80    77    1
    14   103   102    2
    15   103   104    1
    16    43    44    1
    17   102   101    1
    18    76    77    1
    19    37    36   ar
    20    77    78    1
    21    40    38   ar
    22    44    47    1
    23    44    45    1
    24    47    48    1
    25   101   100    1
    26   100    99    1
    27    36    38   ar
    28    36    35    1
    29    78    79    2
    30    78    82   am
    31    45    46    2
    32    82    83    1
    33    33    32    1
    34    33    34    2
    35    32    35    1
    36    32    31    1
    37    85    84    2
    38    99    96    1
    39    90    87    1
    40    83    84    1
    41    84    86   am
    42    31    24   am
    43    97    96    1
    44    97    98    2
    45    86    87    1
    46    96    95    1
    47    49    50    1
    48    87    88    1
    49    19    20    1
    50    19    18    1
    51    17    18    1
    52    17    14    1
    53    21    20    1
    54    12    11    2
    55    16    15    2
    56    15    14    1
    57    24    25    2
    58    24    23    1
    59    11    10    1
    60    50    53    1
    61    50    51    1
    62    88    89    2
    63    88    91   am
    64    56    54   am
    65    55    54    2
    66    14    13    1
    67    54    53    1
    68    10     9    1
    69    27    28    1
    70    27    26    1
    71    23    26    1
    72    23    22    1
    73    51    52    2
    74    91    92    1
    75     8     7    1
    76     7     6    1
    77     9     3   am
    78    30    28   ar
    79    28    29   ar
    80    94    93    2
    81     5     6    1
    82     5     2    1
    83    92    93    1
    84     3     2    1
    85     3     4    2
    86    68    67    1
    87     2     1    1
    88    67    66   ar
    89    67    65   ar
    90    66    64   ar
    91    65    63   ar
    92    64    62   ar
    93    63    62   ar
    94    62    61    1
    95    61    58    1
    96    58    57    1
    97    58    59    1
    98    59    60    2
