@<TRIPOS>MOLECULE
tmp/4rx6B01.pdb
 113 110 0 0 0
SMALL
GASTEIGER

@<TRIPOS>ATOM
      1  N        -55.6900   -1.7200    7.4420 N.3    10  VAL10      -0.1231
      2  CA       -56.1070   -2.7720    6.5500 C.3    10  VAL10       0.1692
      3  C        -57.5880   -2.5470    6.4000 C.2    10  VAL10       0.2592
      4  O        -58.2950   -2.4110    7.3930 O.2    10  VAL10      -0.2718
      5  CB       -55.8090   -4.1820    7.1080 C.3    10  VAL10       0.0266
      6  CG1      -56.1960   -5.2430    6.0790 C.3    10  VAL10       0.0020
      7  CG2      -54.3190   -4.3220    7.5170 C.3    10  VAL10       0.0020
      8  N        -58.0590   -2.4810    5.1650 N.am   11  THR11      -0.1953
      9  CA       -59.4120   -2.0220    4.9030 C.3    11  THR11       0.1897
     10  C        -59.8270   -2.5050    3.5290 C.2    11  THR11       0.2313
     11  O        -59.0030   -2.9990    2.7780 O.2    11  THR11      -0.2863
     12  CB       -59.4950   -0.4590    4.9780 C.3    11  THR11       0.1794
     13  OG1      -60.8280   -0.0210    4.6870 O.3    11  THR11      -0.2208
     14  CG2      -58.5220    0.1940    3.9950 C.3    11  THR11       0.0378
     15  N        -54.9720  -10.0260    1.0510 N.3    37  HIS37      -0.1226
     16  CA       -56.2060  -10.7510    1.2230 C.3    37  HIS37       0.1752
     17  C        -56.6270  -10.7460    2.6730 C.2    37  HIS37       0.2597
     18  O        -55.7950  -10.7330    3.5670 O.2    37  HIS37      -0.2718
     19  CB       -56.0050  -12.1640    0.7200 C.3    37  HIS37       0.0759
     20  CG       -55.6420  -12.2160   -0.7270 C.ar   37  HIS37       0.0818
     21  ND1      -54.3410  -12.3410   -1.1640 N.ar   37  HIS37      -0.2268
     22  CD2      -56.4050  -12.1030   -1.8390 C.ar   37  HIS37       0.1154
     23  CE1      -54.3210  -12.3310   -2.4850 C.ar   37  HIS37       0.1986
     24  NE2      -55.5600  -12.1840   -2.9190 N.ar   37  HIS37      -0.2212
     25  N        -57.9260  -10.7240    2.9040 N.am   38  GLY38      -0.1942
     26  CA       -58.4410  -10.7950    4.2470 C.3    38  GLY38       0.2014
     27  C        -59.1840  -12.0920    4.3730 C.2    38  GLY38       0.2639
     28  O        -59.5680  -12.6870    3.3730 O.2    38  GLY38      -0.2714
     29  N        -59.3750  -12.5520    5.5970 N.am   39  CYS39      -0.1953
     30  CA       -60.0330  -13.8270    5.8030 C.3    39  CYS39       0.1843
     31  C        -60.8120  -13.7860    7.1030 C.2    39  CYS39       0.2626
     32  O        -60.2510  -13.5060    8.1660 O.2    39  CYS39      -0.2714
     33  CB       -59.0000  -14.9470    5.8110 C.3    39  CYS39       0.0997
     34  SG       -59.6610  -16.6030    6.1690 S.3    39  CYS39      -0.0797
     35  N        -62.1190  -14.0030    6.9910 N.am   40  GLY40      -0.1954
     36  CA       -63.0070  -14.0250    8.1330 C.3    40  GLY40       0.1869
     37  C        -63.3120  -15.4460    8.5560 C.2    40  GLY40       0.2309
     38  O        -63.7320  -16.2760    7.7510 O.2    40  GLY40      -0.2863
     39  N        -65.5220  -17.6040   11.3450 N.3    42  GLN42      -0.1245
     40  CA       -66.6530  -17.5490   12.2570 C.3    42  GLN42       0.1566
     41  C        -66.9280  -18.9500   12.7090 C.2    42  GLN42       0.2260
     42  O        -66.8810  -19.8710   11.9010 O.2    42  GLN42      -0.2867
     43  CB       -67.9050  -17.0470   11.5350 C.3    42  GLN42       0.0367
     44  CG       -68.2000  -15.5570   11.6760 C.3    42  GLN42       0.0905
     45  CD       -68.9400  -15.2000   12.9560 C.2    42  GLN42       0.2608
     46  OE1      -69.9770  -15.7850   13.2770 O.2    42  GLN42      -0.2717
     47  NE2      -68.4040  -14.2290   13.6940 N.am   42  GLN42      -0.0878
     48  N        -61.5260  -12.1710    1.2810 N.3    59  TYR59      -0.1241
     49  CA       -61.8020  -10.8470    0.7400 C.3    59  TYR59       0.1605
     50  C        -60.5550  -10.2280    0.1030 C.2    59  TYR59       0.2264
     51  O        -59.4250  -10.6380    0.3730 O.2    59  TYR59      -0.2867
     52  CB       -62.2840   -9.9120    1.8520 C.3    59  TYR59       0.0534
     53  CG       -63.3730  -10.4750    2.7240 C.ar   59  TYR59      -0.0201
     54  CD1      -63.0640  -11.2000    3.8690 C.ar   59  TYR59      -0.0009
     55  CD2      -64.7120  -10.2740    2.4150 C.ar   59  TYR59      -0.0009
     56  CE1      -64.0580  -11.7260    4.6800 C.ar   59  TYR59       0.0417
     57  CE2      -65.7230  -10.7950    3.2220 C.ar   59  TYR59       0.0417
     58  CZ       -65.3890  -11.5200    4.3560 C.ar   59  TYR59       0.1957
     59  OH       -66.3810  -12.0430    5.1680 O.3    59  TYR59      -0.2866
     60  N        -58.2830   -6.9330    0.1590 N.3    61  ARG61      -0.1245
     61  CA       -58.0490   -5.8870    1.1270 C.3    61  ARG61       0.1563
     62  C        -56.9000   -5.0140    0.6530 C.2    61  ARG61       0.2260
     63  O        -55.9630   -5.4940    0.0170 O.2    61  ARG61      -0.2867
     64  CB       -57.6990   -6.4950    2.4800 C.3    61  ARG61       0.0307
     65  CG       -58.8440   -6.7100    3.4450 C.3    61  ARG61       0.0489
     66  CD       -60.1800   -6.2540    2.9430 C.3    61  ARG61       0.2205
     67  NE       -61.2170   -6.7860    3.8180 N.pl3  61  ARG61      -0.0865
     68  CZ       -62.5100   -6.8400    3.5250 C.cat  61  ARG61       0.5346
     69  NH1      -62.9460   -6.3820    2.3550 N.pl3  61  ARG61       0.1354
     70  NH2      -63.3590   -7.3670    4.4070 N.pl3  61  ARG61       0.1354
     71  N        -69.2070   -4.1010    7.7340 N.3    89  PRO89      -0.2102
     72  CA       -67.9050   -4.7350    7.9780 C.3    89  PRO89       0.1504
     73  C        -67.0570   -4.8240    6.7160 C.2    89  PRO89       0.2576
     74  O        -67.5650   -4.9910    5.6060 O.2    89  PRO89      -0.2718
     75  CB       -68.2770   -6.1170    8.5370 C.3    89  PRO89       0.0282
     76  CG       -69.6710   -5.9300    9.0980 C.3    89  PRO89       0.0208
     77  CD       -70.3260   -4.9810    8.1200 C.3    89  PRO89       0.0893
     78  N        -65.7540   -4.7050    6.9130 N.am   90  GLY90      -0.1943
     79  CA       -64.8270   -4.4910    5.8290 C.3    90  GLY90       0.2014
     80  C        -64.3380   -3.0570    5.9010 C.2    90  GLY90       0.2639
     81  O        -63.5800   -2.5920    5.0500 O.2    90  GLY90      -0.2714
     82  N        -64.7890   -2.3420    6.9240 N.am   91  ASP91      -0.1957
     83  CA       -64.3290   -0.9830    7.1640 C.3    91  ASP91       0.1840
     84  C        -62.8620   -1.0090    7.5780 C.2    91  ASP91       0.2623
     85  O        -62.1260   -0.0250    7.3830 O.2    91  ASP91      -0.2715
     86  CB       -65.1680   -0.3390    8.2620 C.3    91  ASP91       0.1450
     87  CG       -66.3110    0.4920    7.7160 C.2    91  ASP91       0.3671
     88  OD1      -66.4540    0.5530    6.4810 O.co2  91  ASP91      -0.2456
     89  OD2      -67.0750    1.0750    8.5210 O.co2  91  ASP91      -0.2456
     90  N        -62.4500   -2.1320    8.1720 N.am   92  GLY92      -0.1940
     91  CA       -61.0490   -2.3530    8.5120 C.3    92  GLY92       0.2014
     92  C        -60.5960   -1.8820    9.8960 C.2    92  GLY92       0.2638
     93  O        -61.3990   -1.4460   10.7330 O.2    92  GLY92      -0.2714
     94  N        -59.2890   -1.9620   10.1250 N.am   93  LYS93      -0.1977
     95  CA       -58.7240   -1.7310   11.4380 C.3    93  LYS93       0.1596
     96  C        -57.4370   -0.9670   11.2790 C.2    93  LYS93       0.2287
     97  O        -56.8520   -0.9730   10.2070 O.2    93  LYS93      -0.2864
     98  CB       -58.4250   -3.0620   12.1320 C.3    93  LYS93       0.0298
     99  CG       -59.6270   -3.9320   12.4180 C.3    93  LYS93       0.0038
    100  CD       -59.3800   -4.6810   13.6990 C.3    93  LYS93       0.0206
    101  CE       -60.6730   -5.1270   14.3280 C.3    93  LYS93       0.1093
    102  NZ       -61.4500   -5.9510   13.3840 N.3    93  LYS93      -0.1314
    103  N        -53.5920   -0.3620   13.0900 N.3    95  PHE95      -0.1241
    104  CA       -52.6050   -0.8650   14.0080 C.3    95  PHE95       0.1605
    105  C        -51.4950    0.1680   14.1190 C.2    95  PHE95       0.2264
    106  O        -50.9740    0.6090   13.1020 O.2    95  PHE95      -0.2867
    107  CB       -52.0280   -2.1370   13.4170 C.3    95  PHE95       0.0534
    108  CG       -53.0540   -3.1900   13.1360 C.ar   95  PHE95      -0.0203
    109  CD1      -53.9400   -3.5810   14.1240 C.ar   95  PHE95      -0.0042
    110  CD2      -53.1300   -3.7870   11.8860 C.ar   95  PHE95      -0.0042
    111  CE1      -54.8850   -4.5400   13.8760 C.ar   95  PHE95      -0.0003
    112  CE2      -54.0710   -4.7480   11.6240 C.ar   95  PHE95      -0.0003
    113  CZ       -54.9550   -5.1310   12.6230 C.ar   95  PHE95      -0.0000
@<TRIPOS>BOND
     1    24    23   ar
     2    24    22   ar
     3    23    21   ar
     4    22    20   ar
     5    21    20   ar
     6    20    19    1
     7    63    62    2
     8    50    51    2
     9    50    49    1
    10    60    61    1
    11    62    61    1
    12    19    16    1
    13    49    48    1
    14    49    52    1
    15    15    16    1
    16    61    64    1
    17    16    17    1
    18    52    53    1
    19    69    68    1
    20    55    53   ar
    21    55    57   ar
    22    64    65    1
    23    17    25   am
    24    17    18    2
    25    53    54   ar
    26    11    10    2
    27    25    26    1
    28    66    65    1
    29    66    67    1
    30    57    58   ar
    31    28    27    2
    32    68    67    2
    33    68    70    1
    34    10     9    1
    35    54    56   ar
    36    14    12    1
    37    26    27    1
    38    58    56   ar
    39    58    59    1
    40    27    29   am
    41    13    12    1
    42     9    12    1
    43     9     8    1
    44    81    80    2
    45     8     3   am
    46    29    30    1
    47    74    73    2
    48    30    33    1
    49    30    31    1
    50    33    34    1
    51    79    80    1
    52    79    78    1
    53    80    82   am
    54     6     5    1
    55     3     2    1
    56     3     4    2
    57    88    87   ar
    58     2     5    1
    59     2     1    1
    60    73    78   am
    61    73    72    1
    62    82    83    1
    63    35    31   am
    64    35    36    1
    65    31    32    2
    66     5     7    1
    67    83    84    1
    68    83    86    1
    69    85    84    2
    70    84    90   am
    71    87    86    1
    72    87    89   ar
    73    71    72    1
    74    71    77    1
    75    38    37    2
    76    72    75    1
    77    77    76    1
    78    36    37    1
    79    90    91    1
    80    91    92    1
    81    75    76    1
    82    92    94   am
    83    92    93    2
    84    94    95    1
    85    97    96    2
    86    96    95    1
    87    39    40    1
    88    95    98    1
    89    43    44    1
    90    43    40    1
    91   112   110   ar
    92   112   113   ar
    93    44    45    1
    94   110   108   ar
    95    42    41    2
    96    98    99    1
    97    40    41    1
    98    99   100    1
    99   113   111   ar
   100    45    46    2
   101    45    47   am
   102   103   104    1
   103   106   105    2
   104   108   107    1
   105   108   109   ar
   106   102   101    1
   107   107   104    1
   108   100   101    1
   109   111   109   ar
   110   104   105    1
