@<TRIPOS>MOLECULE
tmp/4rx6B00.pdb
 91 86 0 0 0
SMALL
GASTEIGER

@<TRIPOS>ATOM
      1  N        -48.9460   14.4050    5.6970 N.3    28  VAL28      -0.1231
      2  CA       -48.3350   13.1900    5.1610 C.3    28  VAL28       0.1692
      3  C        -47.8010   13.4170    3.7490 C.2    28  VAL28       0.2593
      4  O        -48.5260   13.8450    2.8490 O.2    28  VAL28      -0.2718
      5  CB       -49.2980   11.9740    5.1090 C.3    28  VAL28       0.0266
      6  CG1      -48.5140   10.7280    4.7190 C.3    28  VAL28       0.0020
      7  CG2      -50.0110   11.7540    6.4420 C.3    28  VAL28       0.0020
      8  N        -46.5380   13.0800    3.5530 N.am   29  THR29      -0.1939
      9  CA       -45.8750   13.2820    2.2680 C.3    29  THR29       0.2028
     10  C        -45.7870   12.0180    1.4360 C.2    29  THR29       0.2643
     11  O        -45.7420   12.0920    0.2100 O.2    29  THR29      -0.2714
     12  CB       -44.4100   13.7560    2.4430 C.3    29  THR29       0.1808
     13  OG1      -43.8920   13.3000    3.7080 O.3    29  THR29      -0.2208
     14  CG2      -44.3230   15.2780    2.3110 C.3    29  THR29       0.0379
     15  N        -45.7050   10.8680    2.0970 N.am   30  SER30      -0.1935
     16  CA       -45.5700    9.6180    1.3790 C.3    30  SER30       0.2055
     17  C        -46.1470    8.4670    2.1600 C.2    30  SER30       0.2643
     18  O        -46.2000    8.4880    3.3920 O.2    30  SER30      -0.2714
     19  CB       -44.1140    9.3370    1.0850 C.3    30  SER30       0.2130
     20  OG       -44.0220    8.5270   -0.0630 O.3    30  SER30      -0.2179
     21  N        -46.6030    7.4630    1.4270 N.am   31  LEU31      -0.1963
     22  CA       -47.0960    6.2560    2.0470 C.3    31  LEU31       0.1728
     23  C        -46.9040    5.0530    1.1320 C.2    31  LEU31       0.2616
     24  O        -46.5730    5.1980   -0.0520 O.2    31  LEU31      -0.2715
     25  CB       -48.5630    6.4240    2.4400 C.3    31  LEU31       0.0311
     26  CG       -49.5990    6.6200    1.3380 C.3    31  LEU31       0.0022
     27  CD1      -49.8090    5.3350    0.5730 C.3    31  LEU31       0.0001
     28  CD2      -50.9000    7.0720    1.9760 C.3    31  LEU31       0.0001
     29  N        -47.0860    3.8710    1.7030 N.am   32  THR32      -0.1951
     30  CA       -46.9170    2.6210    0.9860 C.3    32  THR32       0.1897
     31  C        -48.2190    1.8710    1.0460 C.2    32  THR32       0.2313
     32  O        -48.8950    1.8910    2.0690 O.2    32  THR32      -0.2863
     33  CB       -45.8540    1.7360    1.6340 C.3    32  THR32       0.1794
     34  OG1      -44.5710    2.3550    1.5300 O.3    32  THR32      -0.2208
     35  CG2      -45.8070    0.4050    0.9420 C.3    32  THR32       0.0378
     36  N        -49.3490    1.4570    4.7370 N.3    65  GLU65      -0.1231
     37  CA       -48.3690    1.7130    5.7880 C.3    65  GLU65       0.1699
     38  C        -47.8310    3.1390    5.7530 C.2    65  GLU65       0.2592
     39  O        -47.2430    3.5720    4.7690 O.2    65  GLU65      -0.2718
     40  CB       -47.2070    0.7470    5.6780 C.3    65  GLU65       0.0402
     41  CG       -47.5970   -0.6930    5.8610 C.3    65  GLU65       0.1161
     42  CD       -46.4900   -1.6310    5.4340 C.2    65  GLU65       0.3649
     43  OE1      -46.4580   -1.9980    4.2380 O.co2  65  GLU65      -0.2457
     44  OE2      -45.6430   -1.9840    6.2890 O.co2  65  GLU65      -0.2457
     45  N        -48.0020    3.8490    6.8610 N.am   66  ILE66      -0.1966
     46  CA       -47.6070    5.2400    6.9620 C.3    66  ILE66       0.1727
     47  C        -46.7300    5.4500    8.1810 C.2    66  ILE66       0.2616
     48  O        -47.2210    5.3990    9.2900 O.2    66  ILE66      -0.2715
     49  CB       -48.8330    6.1220    7.1580 C.3    66  ILE66       0.0290
     50  CG1      -49.9080    5.7750    6.1300 C.3    66  ILE66       0.0022
     51  CG2      -48.4230    7.5840    7.1020 C.3    66  ILE66       0.0023
     52  CD1      -51.2830    6.1800    6.5330 C.3    66  ILE66       0.0001
     53  N        -45.4380    5.6660    7.9800 N.am   67  VAL67      -0.1977
     54  CA       -44.5460    5.9900    9.0850 C.3    67  VAL67       0.1596
     55  C        -44.5360    7.5040    9.2770 C.2    67  VAL67       0.2287
     56  O        -44.5170    8.2600    8.2960 O.2    67  VAL67      -0.2864
     57  CB       -43.1090    5.5200    8.8260 C.3    67  VAL67       0.0276
     58  CG1      -42.2640    5.7800   10.0510 C.3    67  VAL67       0.0022
     59  CG2      -43.0790    4.0520    8.4870 C.3    67  VAL67       0.0022
     60  N        -33.0850    7.2700    5.5130 N.3   104  ASN104     -0.1240
     61  CA       -33.3340    7.7610    4.1670 C.3   104  ASN104      0.1653
     62  C        -32.1750    7.3280    3.3100 C.2   104  ASN104      0.2266
     63  O        -31.0480    7.7130    3.5730 O.2   104  ASN104     -0.2867
     64  CB       -33.4860    9.2850    4.1360 C.3   104  ASN104      0.1155
     65  CG       -33.9420    9.7910    2.7820 C.2   104  ASN104      0.2627
     66  OD1      -33.3230    9.5010    1.7580 O.2   104  ASN104     -0.2716
     67  ND2      -35.0440   10.5250    2.7670 N.am  104  ASN104     -0.0877
     68  N        -31.5200    7.7420   -0.1580 N.3   106  ARG106     -0.1245
     69  CA       -30.9880    8.6560   -1.1580 C.3   106  ARG106      0.1563
     70  C        -30.1070    9.7230   -0.5100 C.2   106  ARG106      0.2260
     71  O        -29.3140   10.3800   -1.1920 O.2   106  ARG106     -0.2867
     72  CB       -32.1110    9.3170   -1.9660 C.3   106  ARG106      0.0307
     73  CG       -31.6210   10.5130   -2.7710 C.3   106  ARG106      0.0489
     74  CD       -32.6390   11.0930   -3.7580 C.3   106  ARG106      0.2205
     75  NE       -34.0410   10.8680   -3.4000 N.pl3 106  ARG106     -0.0865
     76  CZ       -35.0770   11.3280   -4.1100 C.cat 106  ARG106      0.5346
     77  NH1      -34.8730   12.0480   -5.2180 N.pl3 106  ARG106      0.1354
     78  NH2      -36.3240   11.0690   -3.7150 N.pl3 106  ARG106      0.1354
     79  N        -35.2070   11.6090    8.5930 N.3   114  ALA114     -0.1231
     80  CA       -35.1930   10.8680    7.3340 C.3   114  ALA114      0.1694
     81  C        -36.5860   10.7740    6.7150 C.2   114  ALA114      0.2591
     82  O        -36.7350   10.3810    5.5550 O.2   114  ALA114     -0.2718
     83  CB       -34.5950    9.4770    7.5340 C.3   114  ALA114      0.0304
     84  N        -37.6110   11.1410    7.4730 N.am  115  LEU115     -0.1980
     85  CA       -38.9530   11.1960    6.9050 C.3   115  LEU115      0.1596
     86  C        -39.1680   12.5190    6.1420 C.2   115  LEU115      0.2287
     87  O        -38.4730   13.5240    6.3610 O.2   115  LEU115     -0.2864
     88  CB       -40.0060   10.9890    8.0000 C.3   115  LEU115      0.0297
     89  CG       -39.8280    9.6890    8.7990 C.3   115  LEU115      0.0022
     90  CD1      -40.7720    9.6180    9.9840 C.3   115  LEU115      0.0001
     91  CD2      -40.0280    8.4710    7.9270 C.3   115  LEU115      0.0001
@<TRIPOS>BOND
     1    77    76    1
     2    76    78    1
     3    76    75    2
     4    74    75    1
     5    74    73    1
     6    73    72    1
     7    72    69    1
     8    71    70    2
     9    69    70    1
    10    69    68    1
    11    20    19    1
    12    24    23    2
    13    11    10    2
    14    27    26    1
    15    35    33    1
    16    30    31    1
    17    30    33    1
    18    30    29    1
    19    31    32    2
    20    19    16    1
    21    23    29   am
    22    23    22    1
    23    26    28    1
    24    26    25    1
    25    16    15    1
    26    16    17    1
    27    21    22    1
    28    21    17   am
    29    10    15   am
    30    10     9    1
    31    34    33    1
    32    66    65    2
    33    22    25    1
    34    17    18    2
    35     9    12    1
    36     9     8    1
    37    14    12    1
    38    12    13    1
    39    67    65   am
    40    65    64    1
    41     4     3    2
    42    62    63    2
    43    62    61    1
    44     8     3   am
    45     3     2    1
    46    64    61    1
    47    61    60    1
    48    43    42   ar
    49     6     5    1
    50    36    37    1
    51    39    38    2
    52     5     2    1
    53     5     7    1
    54     2     1    1
    55    42    41    1
    56    42    44   ar
    57    82    81    2
    58    40    37    1
    59    40    41    1
    60    38    37    1
    61    38    45   am
    62    50    52    1
    63    50    49    1
    64    86    87    2
    65    86    85    1
    66    81    80    1
    67    81    84   am
    68    45    46    1
    69    85    84    1
    70    85    88    1
    71    46    49    1
    72    46    47    1
    73    51    49    1
    74    80    83    1
    75    80    79    1
    76    91    89    1
    77    53    47   am
    78    53    54    1
    79    88    89    1
    80    47    48    2
    81    56    55    2
    82    59    57    1
    83    89    90    1
    84    57    54    1
    85    57    58    1
    86    54    55    1
