@<TRIPOS>MOLECULE
tmp/4rx7A00.pdb
 161 151 0 0 0
SMALL
GASTEIGER

@<TRIPOS>ATOM
      1  N         -1.3230   -3.6240    8.3340 N.3    15  LEU15      -0.1231
      2  CA        -1.8690   -3.2090    9.6270 C.3    15  LEU15       0.1693
      3  C         -2.4210   -1.7930    9.4970 C.2    15  LEU15       0.2593
      4  O         -3.3210   -1.4080   10.2360 O.2    15  LEU15      -0.2718
      5  CB        -0.8050   -3.2450   10.7360 C.3    15  LEU15       0.0284
      6  CG        -0.0980   -4.5710   11.0390 C.3    15  LEU15       0.0019
      7  CD1        1.0970   -4.3300   11.9280 C.3    15  LEU15       0.0001
      8  CD2       -1.0310   -5.5890   11.6720 C.3    15  LEU15       0.0001
      9  N         -1.8510   -1.0280    8.5730 N.am   16  GLY16      -0.1942
     10  CA        -2.2310    0.3500    8.3110 C.3    16  GLY16       0.2014
     11  C         -1.4300    0.9510    7.1820 C.2    16  GLY16       0.2640
     12  O         -0.7570    0.2240    6.4410 O.2    16  GLY16      -0.2714
     13  N         -1.5140    2.2900    7.0470 N.am   17  SER17      -0.1935
     14  CA        -0.8340    3.0620    6.0070 C.3    17  SER17       0.2055
     15  C         -0.7650    4.5620    6.3240 C.2    17  SER17       0.2643
     16  O         -1.5180    5.0730    7.1570 O.2    17  SER17      -0.2714
     17  CB        -1.4990    2.8480    4.6430 C.3    17  SER17       0.2130
     18  OG        -2.7990    3.4140    4.5980 O.3    17  SER17      -0.2179
     19  N          0.1440    5.2300    5.6210 N.am   18  GLY18      -0.1954
     20  CA         0.3840    6.6670    5.6440 C.3    18  GLY18       0.1869
     21  C          0.8040    7.0890    4.2530 C.2    18  GLY18       0.2309
     22  O          0.6850    6.2920    3.3150 O.2    18  GLY18      -0.2863
     23  N          3.8220    7.5410    3.2550 N.3    20  PHE20      -0.1241
     24  CA         5.0360    6.7410    3.0640 C.3    20  PHE20       0.1605
     25  C          4.8030    5.4210    2.3270 C.2    20  PHE20       0.2264
     26  O          5.5690    5.0760    1.4270 O.2    20  PHE20      -0.2867
     27  CB         5.7510    6.4940    4.4140 C.3    20  PHE20       0.0534
     28  CG         4.9650    5.6930    5.4290 C.ar   20  PHE20      -0.0203
     29  CD1        5.0350    4.3020    5.4500 C.ar   20  PHE20      -0.0042
     30  CD2        4.1740    6.3270    6.3770 C.ar   20  PHE20      -0.0042
     31  CE1        4.2800    3.5600    6.3630 C.ar   20  PHE20      -0.0003
     32  CE2        3.4440    5.5840    7.3120 C.ar   20  PHE20      -0.0003
     33  CZ         3.4980    4.2060    7.2920 C.ar   20  PHE20      -0.0000
     34  N          2.3150   -0.3670    6.7430 N.3    23  VAL23      -0.1245
     35  CA         2.8740   -0.9560    7.9600 C.3    23  VAL23       0.1561
     36  C          2.4430   -2.3830    7.9290 C.2    23  VAL23       0.2260
     37  O          1.2460   -2.6570    7.8360 O.2    23  VAL23      -0.2867
     38  CB         2.3890   -0.2980    9.2850 C.3    23  VAL23       0.0252
     39  CG1        3.1520   -0.8690   10.4800 C.3    23  VAL23       0.0019
     40  CG2        2.5300    1.2170    9.2410 C.3    23  VAL23       0.0019
     41  N          7.3220   -4.6950   13.5110 N.3    38  ALA38      -0.1245
     42  CA         6.4140   -3.8720   12.7240 C.3    38  ALA38       0.1562
     43  C          7.3230   -3.2900   11.6630 C.2    38  ALA38       0.2260
     44  O          8.4200   -2.8280   11.9840 O.2    38  ALA38      -0.2867
     45  CB         5.8130   -2.7780   13.5620 C.3    38  ALA38       0.0290
     46  N          7.7140   -0.7030    8.3480 N.3    40  LYS40      -0.1245
     47  CA         7.2430    0.3740    7.4920 C.3    40  LYS40       0.1561
     48  C          7.8460    0.1480    6.1140 C.2    40  LYS40       0.2260
     49  O          9.0700    0.0440    5.9800 O.2    40  LYS40      -0.2867
     50  CB         7.6200    1.7390    8.0560 C.3    40  LYS40       0.0271
     51  CG         6.5680    2.2570    9.0030 C.3    40  LYS40       0.0035
     52  CD         6.7350    3.7560    9.1520 C.3    40  LYS40       0.0206
     53  CE         6.0030    4.2720   10.3600 C.3    40  LYS40       0.1093
     54  NZ         6.4870    5.6250   10.7160 N.3    40  LYS40      -0.1314
     55  N          9.6380    3.7710   20.7830 N.3    68  VAL68      -0.1245
     56  CA         9.7200    2.5900   19.9200 C.3    68  VAL68       0.1561
     57  C         11.1780    2.3990   19.4490 C.2    68  VAL68       0.2260
     58  O         11.7940    3.3360   18.9580 O.2    68  VAL68      -0.2867
     59  CB         8.7330    2.6570   18.7250 C.3    68  VAL68       0.0252
     60  CG1        9.0730    1.5870   17.6840 C.3    68  VAL68       0.0019
     61  CG2        7.2890    2.4580   19.2260 C.3    68  VAL68       0.0019
     62  N         11.0130   -2.2200   13.0910 N.3    83  MET83      -0.1230
     63  CA        10.8960   -1.7740   14.4910 C.3    83  MET83       0.1702
     64  C         10.3670   -2.8860   15.3650 C.2    83  MET83       0.2595
     65  O          9.7180   -3.7910   14.8730 O.2    83  MET83      -0.2718
     66  CB         9.8520   -0.6450   14.5700 C.3    83  MET83       0.0401
     67  CG        10.2510    0.6090   13.8260 C.3    83  MET83       0.0596
     68  SD         8.8460    1.7390   13.6940 S.3    83  MET83      -0.1393
     69  CE         7.9210    0.9990   12.3190 C.3    83  MET83       0.0692
     70  N         10.5190   -2.7530   16.6780 N.am   84  GLU84      -0.1920
     71  CA         9.8600   -3.6730   17.5980 C.3    84  GLU84       0.1949
     72  C          8.3430   -3.4490   17.4210 C.2    84  GLU84       0.2659
     73  O          7.8970   -2.3390   17.0620 O.2    84  GLU84      -0.2711
     74  CB        10.2870   -3.3880   19.0480 C.2    84  GLU84       0.0111
     75  CG         9.9390   -1.9990   19.5690 C.2    84  GLU84       0.0838
     76  CD        10.2670   -1.7440   21.0280 C.2    84  GLU84       0.3877
     77  OE1       10.4680   -2.7110   21.7980 O.co2  84  GLU84      -0.2406
     78  OE2       10.3960   -0.5550   21.3820 O.co2  84  GLU84      -0.2406
     79  N          7.5760   -4.5060   17.5740 N.am   85  MET85      -0.1960
     80  CA         6.1340   -4.4530   17.4030 C.3    85  MET85       0.1737
     81  C          5.4130   -3.9650   18.6660 C.2    85  MET85       0.2616
     82  O          5.6920   -4.4520   19.7600 O.2    85  MET85      -0.2715
     83  CB         5.6380   -5.8680   16.9960 C.3    85  MET85       0.0427
     84  CG         4.1350   -6.0020   16.9380 C.3    85  MET85       0.0599
     85  SD         3.2870   -4.9270   15.7570 S.3    85  MET85      -0.1393
     86  CE         3.5320   -5.7930   14.3490 C.3    85  MET85       0.0692
     87  N          4.4680   -3.0160   18.5090 N.am   86  ALA86      -0.1963
     88  CA         3.5740   -2.5990   19.6070 C.3    86  ALA86       0.1728
     89  C          2.2410   -3.1930   19.1590 C.2    86  ALA86       0.2616
     90  O          1.4950   -2.5750   18.3970 O.2    86  ALA86      -0.2715
     91  CB         3.5140   -1.0740   19.6980 C.3    86  ALA86       0.0334
     92  N          2.0200   -4.4520   19.5870 N.am   87  GLU87      -0.1977
     93  CA         0.8900   -5.3170   19.2280 C.3    87  GLU87       0.1602
     94  C         -0.4950   -4.6610   19.2870 C.2    87  GLU87       0.2287
     95  O         -1.3030   -4.8760   18.3740 O.2    87  GLU87      -0.2864
     96  CB         0.8900   -6.6100   20.0760 C.3    87  GLU87       0.0415
     97  CG         2.1510   -7.4590   19.9370 C.3    87  GLU87       0.1163
     98  CD         2.2520   -8.3910   18.7410 C.2    87  GLU87       0.3649
     99  OE1        3.2480   -9.1420   18.6720 O.co2  87  GLU87      -0.2457
    100  OE2        1.3540   -8.3740   17.8730 O.co2  87  GLU87      -0.2457
    101  N         -1.4080   -1.5460   18.9400 N.3    89  GLY89      -0.1210
    102  CA        -1.5760   -0.4950   17.9500 C.3    89  GLY89       0.1940
    103  C         -1.7420    0.9210   18.4630 C.2    89  GLY89       0.2458
    104  O         -1.4970    1.1840   19.6480 O.2    89  GLY89      -0.2732
    105  N         -2.1800    1.8440   17.5740 N.am   90  PRO90      -0.2653
    106  CA        -2.2930    3.2730   17.9840 C.3    90  PRO90       0.1628
    107  C         -3.3090    3.5400   19.0860 C.2    90  PRO90       0.2315
    108  O         -4.3620    2.8770   19.1800 O.2    90  PRO90      -0.2861
    109  CB        -2.6210    4.0330   16.7000 C.2    90  PRO90      -0.0016
    110  CG        -2.8000    3.0190   15.6530 C.2    90  PRO90      -0.0072
    111  CD        -2.5060    1.6490   16.1490 C.3    90  PRO90       0.1203
    112  N         -7.0120    4.7100   18.1740 N.3    93  LYS93      -0.1245
    113  CA        -7.8580    3.5840   17.7280 C.3    93  LYS93       0.1561
    114  C         -8.1840    2.6570   18.8960 C.2    93  LYS93       0.2260
    115  O         -9.3230    2.1690   19.0020 O.2    93  LYS93      -0.2867
    116  CB        -7.2060    2.8020   16.5660 C.3    93  LYS93       0.0271
    117  CG        -7.1380    3.6260   15.2830 C.3    93  LYS93       0.0035
    118  CD        -6.4960    2.8380   14.1460 C.3    93  LYS93       0.0206
    119  CE        -6.3140    3.7300   12.9230 C.3    93  LYS93       0.1093
    120  NZ        -5.9580    5.1230   13.3140 N.3    93  LYS93      -0.1314
    121  N         -2.3490    9.1390   17.5460 N.3   133  ARG133     -0.1231
    122  CA        -2.1700    8.1250   16.4830 C.3   133  ARG133      0.1694
    123  C         -0.7250    7.6270   16.4500 C.2   133  ARG133      0.2592
    124  O         -0.4540    6.5820   15.8560 O.2   133  ARG133     -0.2718
    125  CB        -2.5410    8.6970   15.0870 C.3   133  ARG133      0.0321
    126  CG        -1.6980    9.9330   14.6830 C.3   133  ARG133      0.0489
    127  CD        -1.9930   10.4570   13.2740 C.3   133  ARG133      0.2205
    128  NE        -1.2830   11.7250   13.0550 N.pl3 133  ARG133     -0.0865
    129  CZ        -1.6850   12.9200   13.4830 C.cat 133  ARG133      0.5346
    130  NH1       -2.8720   13.0620   14.0660 N.pl3 133  ARG133      0.1354
    131  NH2       -0.9300   13.9900   13.2840 N.pl3 133  ARG133      0.1354
    132  N          0.2060    8.4160   17.0400 N.am  134  ASN134     -0.1974
    133  CA         1.6380    8.1310   17.0620 C.3   134  ASN134      0.1688
    134  C          2.1390    7.6570   18.4420 C.2   134  ASN134      0.2292
    135  O          3.3450    7.6520   18.7190 O.2   134  ASN134     -0.2864
    136  CB         2.3780    9.3440   16.5460 C.3   134  ASN134      0.1181
    137  CG         2.0940    9.5640   15.0820 C.2   134  ASN134      0.2629
    138  OD1        1.6170    8.6590   14.3780 O.2   134  ASN134     -0.2716
    139  ND2        2.2360   10.7940   14.6300 N.am  134  ASN134     -0.0877
    140  N          1.8750    4.2100   20.4830 N.3   136  LEU136     -0.1245
    141  CA         1.6080    2.7870   20.1910 C.3   136  LEU136      0.1561
    142  C          1.6070    1.9580   21.4510 C.2   136  LEU136      0.2260
    143  O          2.4490    2.1550   22.3170 O.2   136  LEU136     -0.2867
    144  CB         2.7090    2.2920   19.2230 C.3   136  LEU136      0.0270
    145  CG         2.5060    2.5500   17.6910 C.3   136  LEU136      0.0019
    146  CD1        1.3780    1.6780   17.1180 C.3   136  LEU136      0.0001
    147  CD2        2.1470    3.9780   17.3840 C.3   136  LEU136      0.0001
    148  N          6.1060    6.6860   18.6860 N.3   146  SER146     -0.1202
    149  CA         6.6900    6.2390   17.4230 C.3   146  SER146      0.2020
    150  C          6.5330    7.3140   16.3700 C.2   146  SER146      0.2618
    151  O          6.2480    8.4660   16.7200 O.2   146  SER146     -0.2717
    152  CB         6.0300    4.9430   16.9750 C.3   146  SER146      0.2103
    153  OG         4.6580    5.1770   16.7380 O.3   146  SER146     -0.2182
    154  N          6.6120    6.9570   15.0820 N.am  147  ASP147     -0.1973
    155  CA         6.4450    7.8960   13.9390 C.3   147  ASP147      0.1709
    156  C          7.3420    9.1600   13.7830 C.2   147  ASP147      0.2293
    157  O          6.8350   10.2740   13.6540 O.2   147  ASP147     -0.2864
    158  CB         4.9670    8.2720   13.7850 C.3   147  ASP147      0.1436
    159  CG         4.0810    7.0590   13.5830 C.2   147  ASP147      0.3671
    160  OD1        3.9380    6.6060   12.4280 O.co2 147  ASP147     -0.2456
    161  OD2        3.5330    6.5490   14.5820 O.co2 147  ASP147     -0.2456
@<TRIPOS>BOND
     1    26    25    2
     2    25    24    1
     3    24    23    1
     4    24    27    1
     5    22    21    2
     6    21    20    1
     7    27    28    1
     8    18    17    1
     9    17    14    1
    10    28    29   ar
    11    28    30   ar
    12    29    31   ar
    13    19    20    1
    14    19    15   am
    15    49    48    2
    16    14    15    1
    17    14    13    1
    18    48    47    1
    19    15    16    2
    20    31    33   ar
    21    30    32   ar
    22    12    11    2
    23    34    35    1
    24    13    11   am
    25    11    10    1
    26    33    32   ar
    27    47    50    1
    28    47    46    1
    29    37    36    2
    30    36    35    1
    31    35    38    1
    32    50    51    1
    33    10     9    1
    34     1     2    1
    35     9     3   am
    36    51    52    1
    37    52    53    1
    38    40    38    1
    39    38    39    1
    40     3     2    1
    41     3     4    2
    42     2     5    1
    43    53    54    1
    44     5     6    1
    45     6     8    1
    46     6     7    1
    47    43    44    2
    48    43    42    1
    49    69    68    1
    50   160   159   ar
    51    42    41    1
    52    42    45    1
    53   119   120    1
    54   119   118    1
    55   128   127    1
    56   128   129    2
    57    62    63    1
    58   127   126    1
    59   131   129    1
    60   129   130    1
    61   159   158    1
    62   159   161   ar
    63   157   156    2
    64    68    67    1
    65   156   155    1
    66   158   155    1
    67    67    66    1
    68   155   154    1
    69   118   117    1
    70    86    85    1
    71   138   137    2
    72    63    66    1
    73    63    64    1
    74   139   137   am
    75   126   125    1
    76    65    64    2
    77   154   150   am
    78   137   136    1
    79   125   122    1
    80   117   116    1
    81    64    70   am
    82   110   111    1
    83   110   109    2
    84    85    84    1
    85   124   123    2
    86   111   105    1
    87   150   151    2
    88   150   149    1
    89   123   122    1
    90   123   132   am
    91   122   121    1
    92   136   133    1
    93   116   113    1
    94    70    71    1
    95   109   106    1
    96   153   152    1
    97    84    83    1
    98   152   149    1
    99    83    80    1
   100   132   133    1
   101    73    72    2
   102   133   134    1
   103   146   145    1
   104   147   145    1
   105    80    79    1
   106    80    81    1
   107    72    79   am
   108    72    71    1
   109   149   148    1
   110   105   106    1
   111   105   103   am
   112    71    74    1
   113    60    59    1
   114   145   144    1
   115   113   112    1
   116   113   114    1
   117   100    98   ar
   118   102   103    1
   119   102   101    1
   120   106   107    1
   121    95    94    2
   122    90    89    2
   123   134   135    2
   124   103   104    2
   125    87    81   am
   126    87    88    1
   127    81    82    2
   128    99    98   ar
   129    59    61    1
   130    59    56    1
   131    98    97    1
   132   114   115    2
   133    58    57    2
   134    74    75    2
   135   107   108    2
   136    89    92   am
   137    89    88    1
   138   144   141    1
   139    93    94    1
   140    93    92    1
   141    93    96    1
   142    57    56    1
   143    75    76    1
   144    88    91    1
   145    56    55    1
   146    97    96    1
   147   141   140    1
   148   141   142    1
   149    76    78   ar
   150    76    77   ar
   151   142   143    2
