@<TRIPOS>MOLECULE
tmp/4rx8A00.pdb
 169 160 0 0 0
SMALL
GASTEIGER

@<TRIPOS>ATOM
      1  N         -1.4640   -3.3930    8.2470 N.3    14  LEU14      -0.1231
      2  CA        -1.9490   -3.0320    9.5810 C.3    14  LEU14       0.1693
      3  C         -2.4520   -1.6010    9.5720 C.2    14  LEU14       0.2593
      4  O         -3.3430   -1.2420   10.3430 O.2    14  LEU14      -0.2718
      5  CB        -0.8270   -3.1420   10.6190 C.3    14  LEU14       0.0284
      6  CG        -0.2150   -4.5170   10.8810 C.3    14  LEU14       0.0019
      7  CD1        0.7670   -4.4350   12.0160 C.3    14  LEU14       0.0001
      8  CD2       -1.2770   -5.5800   11.1890 C.3    14  LEU14       0.0001
      9  N         -1.7980   -0.7730    8.7630 N.am   15  GLY15      -0.1942
     10  CA        -2.0920    0.6400    8.6450 C.3    15  GLY15       0.2014
     11  C         -1.3130    1.2480    7.5070 C.2    15  GLY15       0.2640
     12  O         -0.5580    0.5470    6.8260 O.2    15  GLY15      -0.2714
     13  N         -1.5240    2.5500    7.2750 N.am   16  SER16      -0.1935
     14  CA        -0.8710    3.2640    6.1950 C.3    16  SER16       0.2055
     15  C         -0.7560    4.7510    6.4730 C.2    16  SER16       0.2643
     16  O         -1.4570    5.2940    7.3240 O.2    16  SER16      -0.2714
     17  CB        -1.6240    3.0530    4.8790 C.3    16  SER16       0.2130
     18  OG        -2.9290    3.5930    4.9920 O.3    16  SER16      -0.2179
     19  N          0.1270    5.3860    5.7220 N.am   17  GLY17      -0.1954
     20  CA         0.3730    6.8240    5.7660 C.3    17  GLY17       0.1869
     21  C          0.8220    7.2700    4.3950 C.2    17  GLY17       0.2309
     22  O          0.7430    6.4810    3.4460 O.2    17  GLY17      -0.2863
     23  N          3.8490    7.7160    3.3880 N.3    19  PHE19      -0.1241
     24  CA         5.0580    6.9270    3.1490 C.3    19  PHE19       0.1605
     25  C          4.8140    5.5740    2.4840 C.2    19  PHE19       0.2264
     26  O          5.6680    5.1050    1.7440 O.2    19  PHE19      -0.2867
     27  CB         5.8300    6.7170    4.4660 C.3    19  PHE19       0.0534
     28  CG         5.1090    5.8390    5.4710 C.ar   19  PHE19      -0.0203
     29  CD1        5.2720    4.4520    5.4590 C.ar   19  PHE19      -0.0042
     30  CD2        4.2670    6.3960    6.4260 C.ar   19  PHE19      -0.0042
     31  CE1        4.5450    3.6390    6.3340 C.ar   19  PHE19      -0.0003
     32  CE2        3.5820    5.5830    7.3410 C.ar   19  PHE19      -0.0003
     33  CZ         3.7310    4.2120    7.2910 C.ar   19  PHE19      -0.0000
     34  N          2.2400   -0.2220    6.8510 N.3    22  VAL22      -0.1245
     35  CA         2.8560   -0.9020    8.0150 C.3    22  VAL22       0.1561
     36  C          2.3950   -2.3570    7.9410 C.2    22  VAL22       0.2260
     37  O          1.1950   -2.6120    7.8210 O.2    22  VAL22      -0.2867
     38  CB         2.4560   -0.2820    9.3790 C.3    22  VAL22       0.0252
     39  CG1        3.0770   -1.0590   10.5510 C.3    22  VAL22       0.0019
     40  CG2        2.8620    1.1860    9.4470 C.3    22  VAL22       0.0019
     41  N          7.1870   -4.7660   13.4310 N.3    37  ALA37      -0.1245
     42  CA         6.2660   -3.9650   12.6410 C.3    37  ALA37       0.1562
     43  C          7.1710   -3.3090   11.6190 C.2    37  ALA37       0.2260
     44  O          8.2110   -2.7670   11.9850 O.2    37  ALA37      -0.2867
     45  CB         5.5960   -2.9050   13.4960 C.3    37  ALA37       0.0290
     46  N          7.6490   -0.6150    8.3590 N.3    39  LYS39      -0.1245
     47  CA         7.1840    0.4790    7.5150 C.3    39  LYS39       0.1561
     48  C          7.7700    0.1960    6.1450 C.2    39  LYS39       0.2260
     49  O          8.9930    0.0340    5.9940 O.2    39  LYS39      -0.2867
     50  CB         7.6500    1.8430    8.0500 C.3    39  LYS39       0.0271
     51  CG         6.7190    2.3550    9.1190 C.3    39  LYS39       0.0035
     52  CD         7.0590    3.8140    9.4330 C.3    39  LYS39       0.0206
     53  CE         6.1870    4.3290   10.5430 C.3    39  LYS39       0.1093
     54  NZ         6.5430    5.7410   10.8290 N.3    39  LYS39      -0.1314
     55  N          9.6140    3.5910   20.7440 N.3    65  VAL65      -0.1245
     56  CA         9.6870    2.3610   19.9220 C.3    65  VAL65       0.1561
     57  C         11.1150    2.1740   19.4260 C.2    65  VAL65       0.2260
     58  O         11.7260    3.1150   18.9210 O.2    65  VAL65      -0.2867
     59  CB         8.7030    2.4270   18.7360 C.3    65  VAL65       0.0252
     60  CG1        8.9980    1.3290   17.6870 C.3    65  VAL65       0.0019
     61  CG2        7.2590    2.3220   19.2360 C.3    65  VAL65       0.0019
     62  N         10.8180   -2.2800   13.0340 N.3    80  MET80      -0.1230
     63  CA        10.7090   -1.8670   14.4320 C.3    80  MET80       0.1702
     64  C         10.2160   -2.9870   15.2920 C.2    80  MET80       0.2592
     65  O          9.5490   -3.8890   14.7940 O.2    80  MET80      -0.2718
     66  CB         9.6540   -0.7540   14.5390 C.3    80  MET80       0.0401
     67  CG        10.0840    0.5150   13.8500 C.3    80  MET80       0.0596
     68  SD         8.6840    1.6640   13.7310 S.3    80  MET80      -0.1393
     69  CE         7.7030    0.8600   12.3920 C.3    80  MET80       0.0692
     70  N         10.4130   -2.8840   16.6190 N.am   81  GLU81      -0.1966
     71  CA         9.7670   -3.8550   17.4960 C.3    81  GLU81       0.1733
     72  C          8.2490   -3.6380   17.3400 C.2    81  GLU81       0.2616
     73  O          7.7910   -2.5010   17.0910 O.2    81  GLU81      -0.2715
     74  CB        10.1680   -3.6260   18.9670 C.3    81  GLU81       0.0429
     75  CG         9.7430   -2.2920   19.5330 C.3    81  GLU81       0.1163
     76  CD        10.2210   -2.0500   20.9490 C.2    81  GLU81       0.3649
     77  OE1       10.6690   -3.0030   21.6290 O.co2  81  GLU81      -0.2457
     78  OE2       10.2430   -0.8660   21.3330 O.co2  81  GLU81      -0.2457
     79  N          7.4860   -4.7140   17.4190 N.am   82  MET82      -0.1963
     80  CA         6.0320   -4.6220   17.2490 C.3    82  MET82       0.1736
     81  C          5.3470   -4.1550   18.5390 C.2    82  MET82       0.2616
     82  O          5.6060   -4.7200   19.6050 O.2    82  MET82      -0.2715
     83  CB         5.5010   -6.0180   16.8220 C.3    82  MET82       0.0427
     84  CG         4.0090   -6.1760   16.9620 C.3    82  MET82       0.0599
     85  SD         3.0620   -5.0880   15.8790 S.3    82  MET82      -0.1393
     86  CE         3.2990   -5.8850   14.3330 C.3    82  MET82       0.0692
     87  N          4.4310   -3.1870   18.4340 N.am   83  ALA83      -0.1963
     88  CA         3.5920   -2.7870   19.5770 C.3    83  ALA83       0.1728
     89  C          2.2530   -3.4330   19.2410 C.2    83  ALA83       0.2616
     90  O          1.4910   -2.9520   18.3900 O.2    83  ALA83      -0.2715
     91  CB         3.4710   -1.2750   19.6110 C.3    83  ALA83       0.0334
     92  N          2.0070   -4.6200   19.8290 N.am   84  GLU84      -0.1963
     93  CA         0.8860   -5.4790   19.4630 C.3    84  GLU84       0.1733
     94  C         -0.4960   -4.8690   19.5140 C.2    84  GLU84       0.2616
     95  O         -1.3550   -5.2990   18.7180 O.2    84  GLU84      -0.2715
     96  CB         0.8860   -6.7480   20.3080 C.3    84  GLU84       0.0429
     97  CG         2.1310   -7.5980   20.0660 C.3    84  GLU84       0.1163
     98  CD         2.1240   -8.4920   18.8390 C.2    84  GLU84       0.3649
     99  OE1        3.0990   -9.2490   18.6520 O.co2  84  GLU84      -0.2457
    100  OE2        1.1560   -8.4240   18.0560 O.co2  84  GLU84      -0.2457
    101  N         -0.7430   -3.9170   20.4480 N.am   85  LEU85      -0.1963
    102  CA        -2.0990   -3.3670   20.5800 C.3    85  LEU85       0.1728
    103  C         -2.3740   -2.1730   19.6520 C.2    85  LEU85       0.2617
    104  O         -3.5230   -1.7620   19.5320 O.2    85  LEU85      -0.2715
    105  CB        -2.4470   -3.0390   22.0410 C.3    85  LEU85       0.0311
    106  CG        -2.9550   -4.2000   22.8890 C.3    85  LEU85       0.0022
    107  CD1       -1.9920   -5.3350   22.9420 C.3    85  LEU85       0.0001
    108  CD2       -3.2470   -3.7480   24.2830 C.3    85  LEU85       0.0001
    109  N         -1.3480   -1.7030   18.9380 N.am   86  GLY86      -0.1941
    110  CA        -1.5300   -0.6670   17.9320 C.3    86  GLY86       0.1998
    111  C         -1.6960    0.7470   18.4550 C.2    86  GLY86       0.2480
    112  O         -1.4580    1.0170   19.6350 O.2    86  GLY86      -0.2729
    113  N         -2.0900    1.6650   17.5510 N.am   87  PRO87      -0.2726
    114  CA        -2.2150    3.0990   17.9300 C.3    87  PRO87       0.1402
    115  C         -3.2110    3.3540   19.0490 C.2    87  PRO87       0.2269
    116  O         -4.2810    2.7260   19.1060 O.2    87  PRO87      -0.2865
    117  CB        -2.6590    3.7760   16.6260 C.3    87  PRO87       0.0296
    118  CG        -2.1510    2.8520   15.5330 C.3    87  PRO87       0.0237
    119  CD        -2.3310    1.4660   16.1040 C.3    87  PRO87       0.0939
    120  N         -7.0180    4.5720   18.1140 N.3    90  LYS90      -0.1245
    121  CA        -7.8490    3.4570   17.6560 C.3    90  LYS90       0.1561
    122  C         -8.1890    2.5300   18.8290 C.2    90  LYS90       0.2260
    123  O         -9.3460    2.0980   18.9660 O.2    90  LYS90      -0.2867
    124  CB        -7.1260    2.6860   16.5400 C.3    90  LYS90       0.0271
    125  CG        -6.7280    3.5400   15.3560 C.3    90  LYS90       0.0035
    126  CD        -7.9140    3.9760   14.5460 C.3    90  LYS90       0.0206
    127  CE        -7.5680    5.0700   13.5100 C.3    90  LYS90       0.1093
    128  NZ        -6.1550    5.5970   13.5700 N.3    90  LYS90      -0.1314
    129  N         -2.3330    9.0550   17.4740 N.3   130  ARG130     -0.1231
    130  CA        -2.1330    8.0450   16.4270 C.3   130  ARG130      0.1694
    131  C         -0.6990    7.5490   16.4110 C.2   130  ARG130      0.2592
    132  O         -0.4300    6.5240   15.7900 O.2   130  ARG130     -0.2718
    133  CB        -2.4970    8.6030   15.0360 C.3   130  ARG130      0.0321
    134  CG        -1.7190    9.8710   14.6520 C.3   130  ARG130      0.0489
    135  CD        -2.0000   10.4070   13.2360 C.3   130  ARG130      0.2205
    136  NE        -1.2450   11.6480   13.0290 N.pl3 130  ARG130     -0.0865
    137  CZ        -1.6250   12.8320   13.5020 C.cat 130  ARG130      0.5346
    138  NH1       -2.7920   12.9640   14.1270 N.pl3 130  ARG130      0.1354
    139  NH2       -0.8560   13.8970   13.3330 N.pl3 130  ARG130      0.1354
    140  N          0.2210    8.3290   17.0370 N.am  131  ASN131     -0.1974
    141  CA         1.6480    8.0330   17.0600 C.3   131  ASN131      0.1688
    142  C          2.1410    7.5550   18.4170 C.2   131  ASN131      0.2292
    143  O          3.3500    7.4670   18.6420 O.2   131  ASN131     -0.2864
    144  CB         2.4240    9.2410   16.5410 C.3   131  ASN131      0.1181
    145  CG         2.1110    9.5130   15.0870 C.2   131  ASN131      0.2629
    146  OD1        1.6420    8.6280   14.3530 O.2   131  ASN131     -0.2716
    147  ND2        2.3020   10.7630   14.6360 N.am  131  ASN131     -0.0877
    148  N          1.9550    4.1000   20.4920 N.3   133  LEU133     -0.1245
    149  CA         1.6690    2.7100   20.1680 C.3   133  LEU133      0.1561
    150  C          1.6380    1.9110   21.4520 C.2   133  LEU133      0.2260
    151  O          2.5070    2.1050   22.3140 O.2   133  LEU133     -0.2867
    152  CB         2.8140    2.2310   19.2130 C.3   133  LEU133      0.0270
    153  CG         2.6070    2.4820   17.6810 C.3   133  LEU133      0.0019
    154  CD1        1.4850    1.5760   17.1210 C.3   133  LEU133      0.0001
    155  CD2        2.2140    3.9120   17.3410 C.3   133  LEU133      0.0001
    156  N          6.1050    6.4920   18.6710 N.3   143  SER143     -0.1202
    157  CA         6.6390    6.0730   17.3720 C.3   143  SER143      0.2020
    158  C          6.5770    7.2420   16.3900 C.2   143  SER143      0.2618
    159  O          6.2690    8.3850   16.7790 O.2   143  SER143     -0.2717
    160  CB         5.8300    4.8880   16.8290 C.3   143  SER143      0.2103
    161  OG         6.5770    4.2040   15.8340 O.3   143  SER143     -0.2182
    162  N          6.8380    6.9520   15.1030 N.am  144  ASP144     -0.1973
    163  CA         6.6270    7.8680   13.9770 C.3   144  ASP144      0.1709
    164  C          7.4610    9.1240   14.0380 C.2   144  ASP144      0.2293
    165  O          6.9630   10.2190   14.3170 O.2   144  ASP144     -0.2864
    166  CB         5.1330    8.1760   13.8870 C.3   144  ASP144      0.1436
    167  CG         4.3440    6.8900   13.6820 C.2   144  ASP144      0.3671
    168  OD1        4.4340    6.3190   12.5850 O.co2 144  ASP144     -0.2456
    169  OD2        3.6860    6.4280   14.6530 O.co2 144  ASP144     -0.2456
@<TRIPOS>BOND
     1    26    25    2
     2    25    24    1
     3    24    23    1
     4    24    27    1
     5    22    21    2
     6    21    20    1
     7    27    28    1
     8    17    18    1
     9    17    14    1
    10    29    28   ar
    11    29    31   ar
    12    28    30   ar
    13    19    20    1
    14    19    15   am
    15    49    48    2
    16    48    47    1
    17    14    15    1
    18    14    13    1
    19    31    33   ar
    20    30    32   ar
    21    15    16    2
    22    12    11    2
    23    34    35    1
    24    13    11   am
    25    33    32   ar
    26    11    10    1
    27    47    50    1
    28    47    46    1
    29    37    36    2
    30    36    35    1
    31    35    38    1
    32    50    51    1
    33     1     2    1
    34    10     9    1
    35     9     3   am
    36    51    52    1
    37    38    40    1
    38    38    39    1
    39    52    53    1
    40     3     2    1
    41     3     4    2
    42     2     5    1
    43    53    54    1
    44     5     6    1
    45     6     8    1
    46     6     7    1
    47    43    44    2
    48    43    42    1
    49    69    68    1
    50   168   167   ar
    51    42    41    1
    52    42    45    1
    53   136   135    1
    54   136   137    2
    55    62    63    1
    56   135   134    1
    57   139   137    1
    58   137   138    1
    59   127   128    1
    60   127   126    1
    61   167   166    1
    62   167   169   ar
    63    68    67    1
    64    67    66    1
    65   166   163    1
    66   163   164    1
    67   163   162    1
    68   164   165    2
    69    86    85    1
    70   146   145    2
    71    63    66    1
    72    63    64    1
    73   126   125    1
    74   147   145   am
    75   134   133    1
    76    65    64    2
    77   133   130    1
    78   145   144    1
    79   162   158   am
    80    64    70   am
    81   125   124    1
    82   118   119    1
    83   118   117    1
    84   132   131    2
    85   161   160    1
    86    85    84    1
    87   119   113    1
    88   158   159    2
    89   158   157    1
    90   131   130    1
    91   131   140   am
    92   130   129    1
    93   124   121    1
    94   144   141    1
    95    70    71    1
    96   117   114    1
    97    83    84    1
    98    83    80    1
    99   160   157    1
   100   140   141    1
   101   141   142    1
   102    73    72    2
   103   154   153    1
   104    80    79    1
   105    80    81    1
   106    72    79   am
   107    72    71    1
   108   155   153    1
   109   157   156    1
   110    71    74    1
   111   113   114    1
   112   113   111   am
   113   121   120    1
   114   121   122    1
   115   153   152    1
   116    60    59    1
   117   114   115    1
   118   110   111    1
   119   110   109    1
   120   100    98   ar
   121    90    89    2
   122   142   143    2
   123    87    81   am
   124    87    88    1
   125   111   112    2
   126    81    82    2
   127    99    98   ar
   128    95    94    2
   129    59    61    1
   130    59    56    1
   131   122   123    2
   132    98    97    1
   133    58    57    2
   134   109   103   am
   135    74    75    1
   136   115   116    2
   137   152   149    1
   138    89    88    1
   139    89    92   am
   140    57    56    1
   141    93    94    1
   142    93    92    1
   143    93    96    1
   144    94   101   am
   145   104   103    2
   146    75    76    1
   147    88    91    1
   148   103   102    1
   149    56    55    1
   150    97    96    1
   151   149   148    1
   152   149   150    1
   153   101   102    1
   154   102   105    1
   155    76    78   ar
   156    76    77   ar
   157   150   151    2
   158   105   106    1
   159   106   107    1
   160   106   108    1
