@<TRIPOS>MOLECULE
tmp/4rxaA00.pdb
 166 152 0 0 0
SMALL
GASTEIGER

@<TRIPOS>ATOM
      1  N          4.1170   35.6960  -20.8430 N.3     3  LYS3       -0.1245
      2  CA         2.6680   35.7480  -21.0570 C.3     3  LYS3        0.1561
      3  C          2.3300   35.9770  -22.5320 C.2     3  LYS3        0.2260
      4  O          1.3020   35.5230  -23.0170 O.2     3  LYS3       -0.2867
      5  CB         2.0430   36.8580  -20.1940 C.3     3  LYS3        0.0271
      6  CG         0.5410   36.7190  -19.9860 C.3     3  LYS3        0.0035
      7  CD         0.0210   37.7150  -18.9480 C.3     3  LYS3        0.0206
      8  CE         0.2260   37.2100  -17.5240 C.3     3  LYS3        0.1093
      9  NZ        -0.4130   38.0970  -16.5100 N.3     3  LYS3       -0.1314
     10  N         -6.4640   38.0370  -17.7600 N.3    46  LYS46      -0.1245
     11  CA        -5.0340   38.1970  -17.4050 C.3    46  LYS46       0.1561
     12  C         -4.1870   36.8930  -17.6510 C.2    46  LYS46       0.2260
     13  O         -2.9800   36.9270  -17.6090 O.2    46  LYS46      -0.2867
     14  CB        -4.9060   38.6350  -15.9460 C.3    46  LYS46       0.0271
     15  CG        -5.8760   39.7570  -15.5560 C.3    46  LYS46       0.0035
     16  CD        -5.7740   40.1310  -14.0810 C.3    46  LYS46       0.0206
     17  CE        -7.0050   40.9340  -13.6180 C.3    46  LYS46       0.1093
     18  NZ        -7.0200   41.1770  -12.1430 N.3    46  LYS46      -0.1314
     19  N         -3.4820   34.3680  -15.8170 N.3    48  ASN48      -0.1225
     20  CA        -2.6100   33.9610  -14.7500 C.3    48  ASN48       0.1785
     21  C         -2.6310   32.4610  -14.5390 C.2    48  ASN48       0.2597
     22  O         -1.6240   31.8860  -14.2000 O.2    48  ASN48      -0.2718
     23  CB        -2.9560   34.6770  -13.4630 C.3    48  ASN48       0.1169
     24  CG        -2.7190   36.1560  -13.5540 C.2    48  ASN48       0.2627
     25  OD1       -1.8010   36.6000  -14.2420 O.2    48  ASN48      -0.2716
     26  ND2       -3.5740   36.9390  -12.9060 N.am   48  ASN48      -0.0877
     27  N         -3.7910   31.8330  -14.7710 N.am   49  ARG49      -0.1979
     28  CA        -3.9630   30.4400  -14.5040 C.3    49  ARG49       0.1597
     29  C         -3.2800   29.5760  -15.5500 C.2    49  ARG49       0.2287
     30  O         -2.5970   28.6170  -15.2120 O.2    49  ARG49      -0.2864
     31  CB        -5.4730   30.0740  -14.4440 C.3    49  ARG49       0.0334
     32  CG        -6.2110   30.7130  -13.2640 C.3    49  ARG49       0.0492
     33  CD        -7.7340   30.4080  -13.2970 C.3    49  ARG49       0.2205
     34  NE        -8.4070   31.0670  -12.2040 N.pl3  49  ARG49      -0.0865
     35  CZ        -8.5470   32.3880  -12.1150 C.cat  49  ARG49       0.5346
     36  NH1       -8.0890   33.1820  -13.0940 N.pl3  49  ARG49       0.1354
     37  NH2       -9.0910   32.9240  -11.0420 N.pl3  49  ARG49       0.1354
     38  N         -1.0170   30.6120  -17.5630 N.3    51  LEU51      -0.1231
     39  CA         0.4220   30.9800  -17.4810 C.3    51  LEU51       0.1693
     40  C          1.1030   30.2480  -16.3080 C.2    51  LEU51       0.2592
     41  O          2.2660   29.9200  -16.3790 O.2    51  LEU51      -0.2718
     42  CB         0.6000   32.4960  -17.3260 C.3    51  LEU51       0.0284
     43  CG         2.0560   33.0320  -17.3400 C.3    51  LEU51       0.0019
     44  CD1        2.7410   32.7350  -18.6730 C.3    51  LEU51       0.0001
     45  CD2        2.1040   34.5460  -17.0410 C.3    51  LEU51       0.0001
     46  N          0.3340   29.9570  -15.2600 N.am   52  THR52      -0.1953
     47  CA         0.8670   29.3030  -14.1010 C.3    52  THR52       0.1897
     48  C          1.3110   27.9000  -14.4810 C.2    52  THR52       0.2313
     49  O          2.3230   27.4010  -13.9850 O.2    52  THR52      -0.2863
     50  CB        -0.1670   29.2560  -12.9680 C.3    52  THR52       0.1794
     51  OG1       -0.3220   30.5610  -12.4180 O.3    52  THR52      -0.2208
     52  CG2        0.2700   28.3110  -11.8810 C.3    52  THR52       0.0378
     53  N          4.9520   28.3840  -16.2750 N.3    55  VAL55      -0.1231
     54  CA         5.9600   28.7440  -15.3610 C.3    55  VAL55       0.1692
     55  C          6.2560   27.5630  -14.4180 C.2    55  VAL55       0.2591
     56  O          7.3970   27.1660  -14.2650 O.2    55  VAL55      -0.2718
     57  CB         5.5730   29.9910  -14.5690 C.3    55  VAL55       0.0266
     58  CG1        6.6450   30.3210  -13.5300 C.3    55  VAL55       0.0020
     59  CG2        5.3920   31.1720  -15.5240 C.3    55  VAL55       0.0020
     60  N          5.2170   26.9760  -13.8500 N.am   56  ALA56      -0.1980
     61  CA         5.3930   25.8220  -12.9940 C.3    56  ALA56       0.1597
     62  C          6.1540   24.7940  -13.7310 C.2    56  ALA56       0.2287
     63  O          7.1860   24.3880  -13.3070 O.2    56  ALA56      -0.2864
     64  CB         4.0690   25.2680  -12.5540 C.3    56  ALA56       0.0319
     65  N          9.7840   25.5510  -14.3410 N.3    59  GLU59      -0.1245
     66  CA        10.5020   25.5160  -13.0820 C.3    59  GLU59       0.1567
     67  C         10.6250   24.0300  -12.5490 C.2    59  GLU59       0.2260
     68  O         11.5730   23.7160  -11.7870 O.2    59  GLU59      -0.2867
     69  CB         9.7990   26.4140  -12.0140 C.3    59  GLU59       0.0388
     70  CG         9.7620   27.9150  -12.3330 C.3    59  GLU59       0.1160
     71  CD         9.3420   28.7560  -11.1230 C.2    59  GLU59       0.3649
     72  OE1        8.8880   28.1700  -10.1310 O.co2  59  GLU59      -0.2457
     73  OE2        9.4680   29.9910  -11.1660 O.co2  59  GLU59      -0.2457
     74  N        -11.7900   27.8890  -17.5770 N.3    84  GLN84      -0.1245
     75  CA       -12.2520   29.0960  -16.9830 C.3    84  GLN84       0.1566
     76  C        -13.3460   29.7830  -17.8450 C.2    84  GLN84       0.2260
     77  O        -14.3690   30.2440  -17.3150 O.2    84  GLN84      -0.2867
     78  CB       -11.1300   30.0590  -16.6990 C.3    84  GLN84       0.0367
     79  CG       -11.4630   30.9540  -15.4790 C.3    84  GLN84       0.0905
     80  CD       -10.6980   32.2260  -15.4490 C.2    84  GLN84       0.2608
     81  OE1       -9.8120   32.4440  -16.2630 O.2    84  GLN84      -0.2717
     82  NE2      -11.0150   33.0870  -14.4820 N.am   84  GLN84      -0.0878
     83  N         -0.9790   23.9880  -11.0910 N.3   197  ILE197     -0.1245
     84  CA         0.2820   23.4000  -10.5870 C.3   197  ILE197      0.1561
     85  C          0.2320   21.8690  -10.7300 C.2   197  ILE197      0.2260
     86  O          1.2090   21.2570  -11.0980 O.2   197  ILE197     -0.2867
     87  CB         0.5230   23.7500   -9.1110 C.3   197  ILE197      0.0252
     88  CG1        0.6080   25.2730   -8.9210 C.3   197  ILE197      0.0019
     89  CG2        1.7740   23.0610   -8.5790 C.3   197  ILE197      0.0019
     90  CD1        1.8160   25.8990   -9.5400 C.3   197  ILE197      0.0001
     91  N         -6.5710   34.4840   -1.5150 N.3   226  PHE226     -0.1241
     92  CA        -6.7870   35.1770   -2.7560 C.3   226  PHE226      0.1605
     93  C         -8.1820   35.7340   -2.8410 C.2   226  PHE226      0.2264
     94  O         -8.3820   36.8290   -3.3070 O.2   226  PHE226     -0.2867
     95  CB        -6.5810   34.2330   -3.8930 C.3   226  PHE226      0.0534
     96  CG        -6.8990   34.8020   -5.1900 C.ar  226  PHE226     -0.0203
     97  CD1       -6.0870   35.7600   -5.7510 C.ar  226  PHE226     -0.0042
     98  CD2       -8.0180   34.3890   -5.8800 C.ar  226  PHE226     -0.0042
     99  CE1       -6.3730   36.2940   -7.0110 C.ar  226  PHE226     -0.0003
    100  CE2       -8.3280   34.9310   -7.1270 C.ar  226  PHE226     -0.0003
    101  CZ        -7.4970   35.8770   -7.6930 C.ar  226  PHE226     -0.0000
    102  N         -8.8910   38.4390   -0.1880 N.3   229  GLN229     -0.1231
    103  CA        -8.3400   39.7010   -0.6610 C.3   229  GLN229      0.1698
    104  C         -9.2230   40.3000   -1.7530 C.2   229  GLN229      0.2592
    105  O         -9.6120   41.4620   -1.6920 O.2   229  GLN229     -0.2718
    106  CB        -6.9260   39.4980   -1.1870 C.3   229  GLN229      0.0381
    107  CG        -6.3480   40.7240   -1.8710 C.3   229  GLN229      0.0905
    108  CD        -4.8950   40.5530   -2.2460 C.2   229  GLN229      0.2608
    109  OE1       -4.0560   41.2850   -1.7940 O.2   229  GLN229     -0.2717
    110  NE2       -4.6080   39.5740   -3.0900 N.am  229  GLN229     -0.0878
    111  N         -9.5040   39.5040   -2.7550 N.am  230  ASP230     -0.1974
    112  CA       -10.5190   39.8350   -3.7640 C.3   230  ASP230      0.1709
    113  C        -11.7570   40.5270   -3.1540 C.2   230  ASP230      0.2293
    114  O        -12.2060   41.5400   -3.6510 O.2   230  ASP230     -0.2864
    115  CB       -10.9510   38.5690   -4.4940 C.3   230  ASP230      0.1436
    116  CG       -11.0520   38.7610   -5.9350 C.2   230  ASP230      0.3671
    117  OD1      -11.6740   39.7470   -6.3590 O.co2 230  ASP230     -0.2456
    118  OD2      -10.5050   37.9250   -6.6840 O.co2 230  ASP230     -0.2456
    119  N        -10.8750   43.9090   -1.6350 N.3   233  LEU233     -0.1245
    120  CA       -10.5570   44.8620   -2.6640 C.3   233  LEU233      0.1561
    121  C        -11.8050   45.2770   -3.4310 C.2   233  LEU233      0.2260
    122  O        -11.9130   46.4090   -3.8670 O.2   233  LEU233     -0.2867
    123  CB        -9.5200   44.2870   -3.6300 C.3   233  LEU233      0.0270
    124  CG        -8.0820   44.2570   -3.1350 C.3   233  LEU233      0.0019
    125  CD1       -7.1490   43.8240   -4.2570 C.3   233  LEU233      0.0001
    126  CD2       -7.6700   45.6190   -2.5910 C.3   233  LEU233      0.0001
    127  N         -7.1060   48.7840   -9.7610 N.3   242  THR242     -0.1218
    128  CA        -7.6410   47.4090   -9.8890 C.3   242  THR242      0.1862
    129  C         -8.2070   47.1260  -11.2920 C.2   242  THR242      0.2287
    130  O         -8.1250   45.9920  -11.7860 O.2   242  THR242     -0.2866
    131  CB        -8.7510   47.1300   -8.8410 C.3   242  THR242      0.1770
    132  OG1       -9.8260   48.0690   -9.0050 O.3   242  THR242     -0.2211
    133  CG2       -8.1920   47.2350   -7.4170 C.3   242  THR242      0.0375
    134  N         10.3430   27.6750   -4.9680 N.3   319  ALA319     -0.1231
    135  CA        10.0820   28.7780   -5.8940 C.3   319  ALA319      0.1694
    136  C          8.7010   28.6500   -6.5730 C.2   319  ALA319      0.2591
    137  O          8.0920   29.6400   -6.8890 O.2   319  ALA319     -0.2718
    138  CB        11.1700   28.8900   -6.9420 C.3   319  ALA319      0.0304
    139  N          8.2630   27.4250   -6.8480 N.am  320  VAL320     -0.1980
    140  CA         7.0010   27.2180   -7.5550 C.3   320  VAL320      0.1595
    141  C          5.8480   27.8260   -6.7600 C.2   320  VAL320      0.2287
    142  O          4.9120   28.3670   -7.3250 O.2   320  VAL320     -0.2864
    143  CB         6.7270   25.7080   -7.8090 C.3   320  VAL320      0.0276
    144  CG1        5.2410   25.4470   -7.9950 C.3   320  VAL320      0.0022
    145  CG2        7.4940   25.2310   -9.0270 C.3   320  VAL320      0.0022
    146  N          6.5730   31.9030   -6.0310 N.3   323  GLY323     -0.1210
    147  CA         6.2030   32.7520   -7.1400 C.3   323  GLY323      0.1956
    148  C          4.7530   33.1960   -7.0370 C.2   323  GLY323      0.2611
    149  O          4.4450   34.3910   -7.1440 O.2   323  GLY323     -0.2717
    150  N          3.8600   32.2440   -6.8010 N.am  324  LEU324     -0.1979
    151  CA         2.4210   32.5520   -6.6460 C.3   324  LEU324      0.1596
    152  C          2.1730   33.4570   -5.4770 C.2   324  LEU324      0.2287
    153  O          1.4260   34.4030   -5.5770 O.2   324  LEU324     -0.2864
    154  CB         1.6150   31.2770   -6.4730 C.3   324  LEU324      0.0297
    155  CG         1.3710   30.4650   -7.7300 C.3   324  LEU324      0.0022
    156  CD1        0.6920   29.1450   -7.3650 C.3   324  LEU324      0.0001
    157  CD2        0.5470   31.2410   -8.7240 C.3   324  LEU324      0.0001
    158  N          2.9480   37.0930   -6.0100 N.3   327  LYS327     -0.1245
    159  CA         1.8780   37.7430   -6.8070 C.3   327  LYS327      0.1561
    160  C          0.6200   38.0310   -5.9590 C.2   327  LYS327      0.2260
    161  O          0.0120   39.0550   -6.1000 O.2   327  LYS327     -0.2867
    162  CB         1.4830   36.8900   -7.9920 C.3   327  LYS327      0.0271
    163  CG         2.5940   36.5850   -8.9210 C.3   327  LYS327      0.0035
    164  CD         3.0550   37.8030   -9.6080 C.3   327  LYS327      0.0206
    165  CE         4.3490   37.5470  -10.3300 C.3   327  LYS327      0.1093
    166  NZ         4.9600   38.8050  -10.7520 N.3   327  LYS327     -0.1314
@<TRIPOS>BOND
     1     4     3    2
     2     3     2    1
     3     2     1    1
     4     2     5    1
     5     5     6    1
     6     6     7    1
     7     7     8    1
     8    44    43    1
     9    76    77    2
    10    76    75    1
    11    10    11    1
    12    12    13    2
    13    12    11    1
    14    74    75    1
    15    38    39    1
    16     8     9    1
    17    39    42    1
    18    39    40    1
    19    11    14    1
    20    43    42    1
    21    43    45    1
    22    75    78    1
    23    78    79    1
    24    41    40    2
    25    40    46   am
    26    53    54    1
    27    81    80    2
    28    14    15    1
    29    19    20    1
    30    15    16    1
    31    29    30    2
    32    29    28    1
    33    59    57    1
    34    79    80    1
    35    80    82   am
    36    54    57    1
    37    54    55    1
    38    46    47    1
    39    27    21   am
    40    27    28    1
    41    20    21    1
    42    20    23    1
    43    57    58    1
    44    21    22    2
    45    28    31    1
    46    48    47    1
    47    48    49    2
    48    31    32    1
    49    55    56    2
    50    55    60   am
    51    65    66    1
    52    25    24    2
    53    47    50    1
    54    16    17    1
    55    60    61    1
    56    62    63    2
    57    62    61    1
    58    17    18    1
    59    24    23    1
    60    24    26   am
    61    33    32    1
    62    33    34    1
    63    36    35    1
    64    66    67    1
    65    66    69    1
    66    61    64    1
    67    50    51    1
    68    50    52    1
    69    67    68    2
    70    70    69    1
    71    70    71    1
    72    34    35    2
    73    35    37    1
    74   130   129    2
    75   129   128    1
    76    73    71   ar
    77    71    72   ar
    78    86    85    2
    79    83    84    1
    80   166   165    1
    81    85    84    1
    82    84    87    1
    83   165   164    1
    84   128   127    1
    85   128   131    1
    86   164   163    1
    87    90    88    1
    88    87    88    1
    89    87    89    1
    90   145   143    1
    91   132   131    1
    92   163   162    1
    93   131   133    1
    94   157   155    1
    95   144   143    1
    96   162   159    1
    97   143   140    1
    98   155   156    1
    99   155   154    1
   100   101   100   ar
   101   101    99   ar
   102   140   139    1
   103   140   141    1
   104   142   141    2
   105   149   148    2
   106   147   148    1
   107   147   146    1
   108   100    98   ar
   109   148   150   am
   110    99    97   ar
   111   138   135    1
   112   137   136    2
   113   139   136   am
   114   159   158    1
   115   159   160    1
   116   150   151    1
   117   118   116   ar
   118   151   154    1
   119   151   152    1
   120   136   135    1
   121   117   116   ar
   122   161   160    2
   123   116   115    1
   124   135   134    1
   125    98    96   ar
   126    97    96   ar
   127   153   152    2
   128    96    95    1
   129   115   112    1
   130   125   124    1
   131    95    92    1
   132   122   121    2
   133   112   113    1
   134   112   111    1
   135   114   113    2
   136   123   124    1
   137   123   120    1
   138   121   120    1
   139    94    93    2
   140   124   126    1
   141   110   108   am
   142    93    92    1
   143    92    91    1
   144   111   104   am
   145   120   119    1
   146   108   107    1
   147   108   109    2
   148   107   106    1
   149   104   105    2
   150   104   103    1
   151   106   103    1
   152   103   102    1
