@<TRIPOS>MOLECULE
tmp/4rxcA00.pdb
 131 121 0 0 0
SMALL
GASTEIGER

@<TRIPOS>ATOM
      1  N         26.1830    6.6150    4.8500 N.3    85  GLN85      -0.1245
      2  CA        27.3230    5.8150    5.2800 C.3    85  GLN85       0.1566
      3  C         28.5290    6.7010    5.5600 C.2    85  GLN85       0.2260
      4  O         29.1730    6.5740    6.6000 O.2    85  GLN85      -0.2867
      5  CB        27.6790    4.7780    4.2150 C.3    85  GLN85       0.0367
      6  CG        28.8870    3.9260    4.5700 C.3    85  GLN85       0.0905
      7  CD        29.0390    2.7210    3.6620 C.2    85  GLN85       0.2608
      8  OE1       29.1430    2.8570    2.4440 O.2    85  GLN85      -0.2717
      9  NE2       29.0520    1.5320    4.2540 N.am   85  GLN85      -0.0878
     10  N         28.4130    8.3970    8.7880 N.3    88  TYR88      -0.1227
     11  CA        28.5970    7.5710    9.9740 C.3    88  TYR88       0.1736
     12  C         30.0570    7.1500   10.1140 C.2    88  TYR88       0.2595
     13  O         30.5800    7.0520   11.2230 O.2    88  TYR88      -0.2718
     14  CB        27.6710    6.3510    9.9360 C.3    88  TYR88       0.0548
     15  CG        26.3280    6.6220   10.5760 C.ar   88  TYR88      -0.0200
     16  CD1       26.2240    6.8550   11.9410 C.ar   88  TYR88      -0.0009
     17  CD2       25.1680    6.6710    9.8140 C.ar   88  TYR88      -0.0009
     18  CE1       25.0030    7.1180   12.5310 C.ar   88  TYR88       0.0417
     19  CE2       23.9420    6.9330   10.3970 C.ar   88  TYR88       0.0417
     20  CZ        23.8660    7.1560   11.7540 C.ar   88  TYR88       0.1957
     21  OH        22.6520    7.4170   12.3430 O.3    88  TYR88      -0.2866
     22  N         30.7160    6.9270    8.9830 N.am   89  LEU89      -0.1980
     23  CA        32.1120    6.5090    8.9820 C.3    89  LEU89       0.1596
     24  C         33.0310    7.6340    9.4440 C.2    89  LEU89       0.2287
     25  O         33.9800    7.4000   10.1950 O.2    89  LEU89      -0.2864
     26  CB        32.5190    6.0320    7.5880 C.3    89  LEU89       0.0297
     27  CG        31.6950    4.8520    7.0710 C.3    89  LEU89       0.0022
     28  CD1       32.2940    4.2850    5.7930 C.3    89  LEU89       0.0001
     29  CD2       31.5810    3.7760    8.1410 C.3    89  LEU89       0.0001
     30  N         32.4640    7.8060   13.1190 N.3    92  ASP92      -0.1225
     31  CA        32.9930    6.5750   13.6990 C.3    92  ASP92       0.1805
     32  C         34.5130    6.6320   13.8200 C.2    92  ASP92       0.2597
     33  O         35.0780    6.2520   14.8460 O.2    92  ASP92      -0.2718
     34  CB        32.5870    5.3690   12.8490 C.3    92  ASP92       0.1424
     35  CG        33.1850    4.0690   13.3590 C.2    92  ASP92       0.3668
     36  OD1       32.6810    3.5380   14.3720 O.co2  92  ASP92      -0.2456
     37  OD2       34.1580    3.5790   12.7480 O.co2  92  ASP92      -0.2456
     38  N         35.1700    7.1040   12.7660 N.am   93  ASP93      -0.1974
     39  CA        36.6240    7.1770   12.7420 C.3    93  ASP93       0.1709
     40  C         37.1450    8.1200   13.8210 C.2    93  ASP93       0.2293
     41  O         38.1940    7.8770   14.4150 O.2    93  ASP93      -0.2864
     42  CB        37.1070    7.6420   11.3680 C.3    93  ASP93       0.1436
     43  CG        37.1210    6.5240   10.3500 C.2    93  ASP93       0.3671
     44  OD1       37.0000    5.3480   10.7580 O.co2  93  ASP93      -0.2456
     45  OD2       37.2490    6.8190    9.1430 O.co2  93  ASP93      -0.2456
     46  N         36.5260    6.2510   17.1630 N.3    96  ASP96      -0.1239
     47  CA        37.3750    5.0860   17.3730 C.3    96  ASP96       0.1674
     48  C         38.8480    5.4770   17.2870 C.2    96  ASP96       0.2266
     49  O         39.7330    4.6250   17.3630 O.2    96  ASP96      -0.2867
     50  CB        37.0680    4.0070   16.3310 C.3    96  ASP96       0.1410
     51  CG        35.6510    3.4850   16.4320 C.2    96  ASP96       0.3668
     52  OD1       34.9980    3.7390   17.4660 O.co2  96  ASP96      -0.2456
     53  OD2       35.1900    2.8200   15.4760 O.co2  96  ASP96      -0.2456
     54  N         40.6080    6.1030   14.9230 N.3    98  SER98      -0.1217
     55  CA        41.2600    5.3430   13.8670 C.3    98  SER98       0.1889
     56  C         42.2140    6.2340   13.0790 C.2    98  SER98       0.2288
     57  O         42.2410    7.4520   13.2670 O.2    98  SER98      -0.2866
     58  CB        40.2190    4.7320   12.9280 C.3    98  SER98       0.2089
     59  OG        39.2070    4.0590   13.6570 O.3    98  SER98      -0.2183
     60  N         41.3630    5.1130    6.5370 N.3   101  ARG101     -0.1245
     61  CA        40.2410    4.3980    5.9450 C.3   101  ARG101      0.1563
     62  C         40.3840    4.3520    4.4320 C.2   101  ARG101      0.2260
     63  O         40.5480    5.3870    3.7840 O.2   101  ARG101     -0.2867
     64  CB        38.9220    5.0780    6.3190 C.3   101  ARG101      0.0307
     65  CG        37.6860    4.3380    5.8340 C.3   101  ARG101      0.0489
     66  CD        36.4110    5.0240    6.2930 C.3   101  ARG101      0.2205
     67  NE        36.1480    4.8080    7.7130 N.pl3 101  ARG101     -0.0865
     68  CZ        35.6070    3.7030    8.2150 C.cat 101  ARG101      0.5346
     69  NH1       35.2700    2.7020    7.4130 N.pl3 101  ARG101      0.1354
     70  NH2       35.4030    3.5970    9.5200 N.pl3 101  ARG101      0.1354
     71  N         20.5650    2.8950   12.6890 N.3   157  THR157     -0.1218
     72  CA        22.0150    2.7570   12.6140 C.3   157  THR157      0.1862
     73  C         22.7020    3.3520   13.8440 C.2   157  THR157      0.2287
     74  O         23.6200    2.7530   14.4040 O.2   157  THR157     -0.2866
     75  CB        22.5700    3.4460   11.3570 C.3   157  THR157      0.1770
     76  OG1       21.8150    3.0360   10.2090 O.3   157  THR157     -0.2211
     77  CG2       24.0310    3.0900   11.1540 C.3   157  THR157      0.0375
     78  N         25.1030    1.7300   16.8550 N.3   161  GLN161     -0.1245
     79  CA        26.3890    2.2120   17.3410 C.3   161  GLN161      0.1566
     80  C         26.4010    2.2710   18.8650 C.2   161  GLN161      0.2260
     81  O         27.4230    2.0100   19.4960 O.2   161  GLN161     -0.2867
     82  CB        26.7030    3.5910   16.7570 C.3   161  GLN161      0.0367
     83  CG        27.2530    3.5550   15.3370 C.3   161  GLN161      0.0905
     84  CD        28.7320    3.2270   15.2920 C.2   161  GLN161      0.2608
     85  OE1       29.5630    4.0900   15.0100 O.2   161  GLN161     -0.2717
     86  NE2       29.0700    1.9740   15.5710 N.am  161  GLN161     -0.0878
     87  N         27.1140   -1.2160   19.8990 N.3   164  ASP164     -0.1239
     88  CA        28.5340   -1.4790   19.6880 C.3   164  ASP164      0.1674
     89  C         29.3760   -0.9150   20.8300 C.2   164  ASP164      0.2266
     90  O         30.2430   -1.5990   21.3710 O.2   164  ASP164     -0.2867
     91  CB        29.0010   -0.8810   18.3610 C.3   164  ASP164      0.1410
     92  CG        30.4040   -1.3200   17.9870 C.2   164  ASP164      0.3668
     93  OD1       31.3700   -0.6490   18.4080 O.co2 164  ASP164     -0.2456
     94  OD2       30.5410   -2.3380   17.2770 O.co2 164  ASP164     -0.2456
     95  N         23.2210   -1.8930   13.4640 N.3   199  LYS199     -0.1231
     96  CA        24.3510   -1.0970   13.0060 C.3   199  LYS199      0.1693
     97  C         24.4860   -1.1480   11.4890 C.2   199  LYS199      0.2592
     98  O         24.8790   -0.1650   10.8610 O.2   199  LYS199     -0.2718
     99  CB        25.6470   -1.5850   13.6540 C.3   199  LYS199      0.0285
    100  CG        26.8130   -0.6240   13.4820 C.3   199  LYS199      0.0035
    101  CD        28.0420   -1.0940   14.2400 C.3   199  LYS199      0.0206
    102  CE        28.9840   -1.8750   13.3400 C.3   199  LYS199      0.1093
    103  NZ        30.2040   -2.3200   14.0670 N.3   199  LYS199     -0.1314
    104  N         24.1630   -2.2970   10.9060 N.am  200  THR200     -0.1953
    105  CA        24.6970   -2.6690    9.6030 C.3   200  THR200      0.1897
    106  C         23.5800   -3.1150    8.6690 C.2   200  THR200      0.2313
    107  O         23.4580   -2.6180    7.5490 O.2   200  THR200     -0.2863
    108  CB        25.7280   -3.8100    9.7240 C.3   200  THR200      0.1794
    109  OG1       26.9570   -3.2960   10.2500 O.3   200  THR200     -0.2208
    110  CG2       25.9870   -4.4470    8.3660 C.3   200  THR200      0.0378
    111  N         20.6650   -0.5590    6.9100 N.3   203  TYR203     -0.1241
    112  CA        21.0600    0.4540    5.9420 C.3   203  TYR203      0.1605
    113  C         21.8880   -0.1590    4.8140 C.2   203  TYR203      0.2264
    114  O         21.9780    0.4050    3.7240 O.2   203  TYR203     -0.2867
    115  CB        21.8290    1.5860    6.6320 C.3   203  TYR203      0.0534
    116  CG        23.3320    1.4140    6.6430 C.ar  203  TYR203     -0.0201
    117  CD1       24.1030    1.8030    5.5560 C.ar  203  TYR203     -0.0009
    118  CD2       23.9800    0.8760    7.7470 C.ar  203  TYR203     -0.0009
    119  CE1       25.4760    1.6520    5.5640 C.ar  203  TYR203      0.0417
    120  CE2       25.3530    0.7200    7.7640 C.ar  203  TYR203      0.0417
    121  CZ        26.0960    1.1100    6.6700 C.ar  203  TYR203      0.1957
    122  OH        27.4640    0.9580    6.6820 O.3   203  TYR203     -0.2866
    123  N         28.8240  -10.0730    8.5210 N.3   239  GLN239     -0.1245
    124  CA        29.7690   -9.7480    9.5840 C.3   239  GLN239      0.1566
    125  C         30.3900  -11.0090   10.1770 C.2   239  GLN239      0.2260
    126  O         31.5540  -11.0090   10.5770 O.2   239  GLN239     -0.2867
    127  CB        29.0750   -8.9490   10.6860 C.3   239  GLN239      0.0367
    128  CG        30.0370   -8.2520   11.6350 C.3   239  GLN239      0.0905
    129  CD        31.1160   -7.4770   10.9030 C.2   239  GLN239      0.2608
    130  OE1       30.8240   -6.6110   10.0780 O.2   239  GLN239     -0.2717
    131  NE2       32.3710   -7.7860   11.2010 N.am  239  GLN239     -0.0878
@<TRIPOS>BOND
     1     8     7    2
     2     7     9   am
     3     7     6    1
     4   114   113    2
     5    63    62    2
     6     5     6    1
     7     5     2    1
     8    62    61    1
     9   113   112    1
    10     1     2    1
    11     2     3    1
    12   117   119   ar
    13   117   116   ar
    14     3     4    2
    15   119   121   ar
    16    28    27    1
    17    65    66    1
    18    65    64    1
    19   112   115    1
    20   112   111    1
    21    61    64    1
    22    61    60    1
    23    66    67    1
    24   115   116    1
    25   116   118   ar
    26   121   122    1
    27   121   120   ar
    28    27    26    1
    29    27    29    1
    30    69    68    1
    31   107   106    2
    32    26    23    1
    33    67    68    2
    34   118   120   ar
    35    68    70    1
    36   110   108    1
    37   123   124    1
    38   106   105    1
    39    10    11    1
    40    23    22    1
    41    23    24    1
    42    22    12   am
    43    45    43   ar
    44    24    25    2
    45   124   125    1
    46   124   127    1
    47   105   108    1
    48   105   104    1
    49   108   109    1
    50    17    19   ar
    51    17    15   ar
    52    14    11    1
    53    14    15    1
    54    11    12    1
    55   130   129    2
    56    12    13    2
    57   125   126    2
    58    76    75    1
    59    43    44   ar
    60    43    42    1
    61    19    20   ar
    62    15    16   ar
    63   127   128    1
    64    98    97    2
    65   129   131   am
    66   129   128    1
    67   104    97   am
    68    77    75    1
    69    75    72    1
    70    42    39    1
    71    97    96    1
    72    20    21    1
    73    20    18   ar
    74    16    18   ar
    75    72    71    1
    76    72    73    1
    77    39    38    1
    78    39    40    1
    79    37    35   ar
    80    38    32   am
    81    34    35    1
    82    34    31    1
    83    58    59    1
    84    58    55    1
    85    96    95    1
    86    96    99    1
    87    56    57    2
    88    56    55    1
    89    30    31    1
    90   102   103    1
    91   102   101    1
    92    35    36   ar
    93   100    99    1
    94   100   101    1
    95    31    32    1
    96    32    33    2
    97    40    41    2
    98    73    74    2
    99    55    54    1
   100    85    84    2
   101    84    83    1
   102    84    86   am
   103    83    82    1
   104    53    51   ar
   105    50    51    1
   106    50    47    1
   107    51    52   ar
   108    82    79    1
   109    78    79    1
   110    46    47    1
   111    94    92   ar
   112    48    49    2
   113    48    47    1
   114    79    80    1
   115    92    91    1
   116    92    93   ar
   117    91    88    1
   118    80    81    2
   119    88    87    1
   120    88    89    1
   121    89    90    2
