@<TRIPOS>MOLECULE
tmp/4rxcA01.pdb
 104 96 0 0 0
SMALL
GASTEIGER

@<TRIPOS>ATOM
      1  N         26.0490   -0.2750   -2.2440 N.3    50  ARG50      -0.1245
      2  CA        24.7310    0.0380   -1.7110 C.3    50  ARG50       0.1563
      3  C         23.9510    0.9120   -2.6870 C.2    50  ARG50       0.2260
      4  O         22.7740    0.6650   -2.9510 O.2    50  ARG50      -0.2867
      5  CB        24.8550    0.7340   -0.3540 C.3    50  ARG50       0.0307
      6  CG        25.0120   -0.2280    0.8150 C.3    50  ARG50       0.0489
      7  CD        25.9230    0.3370    1.8920 C.3    50  ARG50       0.2205
      8  NE        27.3190   -0.0290    1.6700 N.pl3  50  ARG50      -0.0865
      9  CZ        28.0520   -0.7380    2.5230 C.cat  50  ARG50       0.5346
     10  NH1       27.5250   -1.1640    3.6630 N.pl3  50  ARG50       0.1354
     11  NH2       29.3150   -1.0230    2.2360 N.pl3  50  ARG50       0.1354
     12  N         41.3630    5.1130    6.5370 N.3   101  ARG101     -0.1245
     13  CA        40.2410    4.3980    5.9450 C.3   101  ARG101      0.1563
     14  C         40.3840    4.3520    4.4320 C.2   101  ARG101      0.2260
     15  O         40.5480    5.3870    3.7840 O.2   101  ARG101     -0.2867
     16  CB        38.9220    5.0780    6.3190 C.3   101  ARG101      0.0307
     17  CG        37.6860    4.3380    5.8340 C.3   101  ARG101      0.0489
     18  CD        36.4110    5.0240    6.2930 C.3   101  ARG101      0.2205
     19  NE        36.1480    4.8080    7.7130 N.pl3 101  ARG101     -0.0865
     20  CZ        35.6070    3.7030    8.2150 C.cat 101  ARG101      0.5346
     21  NH1       35.2700    2.7020    7.4130 N.pl3 101  ARG101      0.1354
     22  NH2       35.4030    3.5970    9.5200 N.pl3 101  ARG101      0.1354
     23  N         23.2210   -1.8930   13.4640 N.3   199  LYS199     -0.1245
     24  CA        24.3510   -1.0970   13.0060 C.3   199  LYS199      0.1561
     25  C         24.4860   -1.1480   11.4890 C.2   199  LYS199      0.2260
     26  O         24.8790   -0.1650   10.8610 O.2   199  LYS199     -0.2867
     27  CB        25.6470   -1.5850   13.6540 C.3   199  LYS199      0.0271
     28  CG        26.8130   -0.6240   13.4820 C.3   199  LYS199      0.0035
     29  CD        28.0420   -1.0940   14.2400 C.3   199  LYS199      0.0206
     30  CE        28.9840   -1.8750   13.3400 C.3   199  LYS199      0.1093
     31  NZ        30.2040   -2.3200   14.0670 N.3   199  LYS199     -0.1314
     32  N         27.0420  -11.3290    6.6740 N.3   238  PHE238     -0.1227
     33  CA        28.1620  -10.5100    6.2260 C.3   238  PHE238      0.1736
     34  C         29.2350  -10.4220    7.3050 C.2   238  PHE238      0.2595
     35  O         30.4120  -10.6590    7.0400 O.2   238  PHE238     -0.2718
     36  CB        27.6960   -9.1010    5.8570 C.3   238  PHE238      0.0547
     37  CG        28.8190   -8.1100    5.7450 C.ar  238  PHE238     -0.0202
     38  CD1       29.5550   -8.0070    4.5760 C.ar  238  PHE238     -0.0042
     39  CD2       29.1480   -7.2910    6.8120 C.ar  238  PHE238     -0.0042
     40  CE1       30.5940   -7.1010    4.4710 C.ar  238  PHE238     -0.0003
     41  CE2       30.1860   -6.3830    6.7140 C.ar  238  PHE238     -0.0003
     42  CZ        30.9100   -6.2890    5.5410 C.ar  238  PHE238     -0.0000
     43  N         28.8240  -10.0730    8.5210 N.am  239  GLN239     -0.1979
     44  CA        29.7690   -9.7480    9.5840 C.3   239  GLN239      0.1601
     45  C         30.3900  -11.0090   10.1770 C.2   239  GLN239      0.2287
     46  O         31.5540  -11.0090   10.5770 O.2   239  GLN239     -0.2864
     47  CB        29.0750   -8.9490   10.6860 C.3   239  GLN239      0.0394
     48  CG        30.0370   -8.2520   11.6350 C.3   239  GLN239      0.0908
     49  CD        31.1160   -7.4770   10.9030 C.2   239  GLN239      0.2608
     50  OE1       30.8240   -6.6110   10.0780 O.2   239  GLN239     -0.2717
     51  NE2       32.3710   -7.7860   11.2010 N.am  239  GLN239     -0.0878
     52  N         33.0270  -12.1120    7.8660 N.3   242  ASP242     -0.1225
     53  CA        34.1490  -11.1960    8.0580 C.3   242  ASP242      0.1805
     54  C         34.9210  -11.5370    9.3280 C.2   242  ASP242      0.2597
     55  O         36.1530  -11.5240    9.3390 O.2   242  ASP242     -0.2718
     56  CB        33.6610   -9.7480    8.1210 C.3   242  ASP242      0.1424
     57  CG        34.7740   -8.7460    7.8700 C.2   242  ASP242      0.3668
     58  OD1       35.2990   -8.7100    6.7360 O.co2 242  ASP242     -0.2456
     59  OD2       35.1270   -7.9950    8.8060 O.co2 242  ASP242     -0.2456
     60  N         34.1920  -11.8380   10.3980 N.am  243  ASP243     -0.1974
     61  CA        34.8150  -12.1340   11.6820 C.3   243  ASP243      0.1709
     62  C         35.6740  -13.3840   11.5690 C.2   243  ASP243      0.2293
     63  O         36.7730  -13.4510   12.1230 O.2   243  ASP243     -0.2864
     64  CB        33.7490  -12.3280   12.7620 C.3   243  ASP243      0.1436
     65  CG        33.1130  -11.0220   13.1910 C.2   243  ASP243      0.3671
     66  OD1       33.6410   -9.9550   12.8140 O.co2 243  ASP243     -0.2456
     67  OD2       32.0850  -11.0620   13.9030 O.co2 243  ASP243     -0.2456
     68  N         44.6890   -7.8540    4.3340 N.3   255  LYS255     -0.1245
     69  CA        45.2610   -7.1720    5.4890 C.3   255  LYS255      0.1561
     70  C         45.6970   -8.1760    6.5520 C.2   255  LYS255      0.2260
     71  O         45.5020   -9.3820    6.3980 O.2   255  LYS255     -0.2867
     72  CB        44.2480   -6.1920    6.0830 C.3   255  LYS255      0.0271
     73  CG        42.8790   -6.8010    6.3420 C.3   255  LYS255      0.0035
     74  CD        42.1540   -6.0960    7.4770 C.3   255  LYS255      0.0206
     75  CE        40.9100   -6.8630    7.8990 C.3   255  LYS255      0.1093
     76  NZ        39.9700   -6.0270    8.6970 N.3   255  LYS255     -0.1314
     77  N         41.1660   -8.3060   15.1190 N.3   259  ASP259     -0.1239
     78  CA        39.9530   -8.3260   15.9300 C.3   259  ASP259      0.1674
     79  C         40.2630   -8.7830   17.3550 C.2   259  ASP259      0.2266
     80  O         39.6800   -8.2840   18.3180 O.2   259  ASP259     -0.2867
     81  CB        38.9010   -9.2440   15.2990 C.3   259  ASP259      0.1410
     82  CG        38.2210   -8.6130   14.0930 C.2   259  ASP259      0.3668
     83  OD1       38.5670   -7.4660   13.7400 O.co2 259  ASP259     -0.2456
     84  OD2       37.3390   -9.2670   13.4950 O.co2 259  ASP259     -0.2456
     85  N         37.5980   -7.4340   20.1540 N.3   264  LYS264     -0.1245
     86  CA        36.3360   -7.2610   19.4460 C.3   264  LYS264      0.1561
     87  C         35.2720   -8.2050   20.0030 C.2   264  LYS264      0.2260
     88  O         35.5660   -9.3510   20.3460 O.2   264  LYS264     -0.2867
     89  CB        36.5400   -7.5210   17.9510 C.3   264  LYS264      0.0271
     90  CG        35.3180   -7.2450   17.0910 C.3   264  LYS264      0.0035
     91  CD        35.5630   -7.6440   15.6430 C.3   264  LYS264      0.0206
     92  CE        34.3740   -7.3020   14.7580 C.3   264  LYS264      0.1093
     93  NZ        33.2110   -8.2020   15.0000 N.3   264  LYS264     -0.1314
     94  N         32.7000  -15.0540   -0.0820 N.3   351  ARG351     -0.1245
     95  CA        33.5220  -14.1040   -0.8220 C.3   351  ARG351      0.1563
     96  C         34.9880  -14.5180   -0.7770 C.2   351  ARG351      0.2260
     97  O         35.3060  -15.6900   -0.5740 O.2   351  ARG351     -0.2867
     98  CB        33.3580  -12.6940   -0.2480 C.3   351  ARG351      0.0307
     99  CG        33.9150  -12.5280    1.1570 C.3   351  ARG351      0.0489
    100  CD        33.8360  -11.0820    1.6250 C.3   351  ARG351      0.2205
    101  NE        35.1040  -10.6160    2.1800 N.pl3 351  ARG351     -0.0865
    102  CZ        35.2820  -10.2590    3.4490 C.cat 351  ARG351      0.5346
    103  NH1       34.2720  -10.3090    4.3080 N.pl3 351  ARG351      0.1354
    104  NH2       36.4740   -9.8490    3.8600 N.pl3 351  ARG351      0.1354
@<TRIPOS>BOND
     1     4     3    2
     2     3     2    1
     3     1     2    1
     4     2     5    1
     5    95    96    1
     6    95    98    1
     7    95    94    1
     8    96    97    2
     9     5     6    1
    10    98    99    1
    11     6     7    1
    12    99   100    1
    13   100   101    1
    14     8     7    1
    15     8     9    2
    16   101   102    2
    17    11     9    1
    18     9    10    1
    19   102   104    1
    20   102   103    1
    21    15    14    2
    22    68    69    1
    23    14    13    1
    24    40    38   ar
    25    40    42   ar
    26    38    37   ar
    27    69    72    1
    28    69    70    1
    29    42    41   ar
    30    37    36    1
    31    37    39   ar
    32    17    18    1
    33    17    16    1
    34    36    33    1
    35    13    16    1
    36    13    12    1
    37    72    73    1
    38    33    32    1
    39    33    34    1
    40    18    19    1
    41    73    74    1
    42    71    70    2
    43    41    39   ar
    44    58    57   ar
    45    35    34    2
    46    34    43   am
    47    21    20    1
    48    74    75    1
    49    19    20    2
    50    52    53    1
    51    57    56    1
    52    57    59   ar
    53    75    76    1
    54    53    56    1
    55    53    54    1
    56    20    22    1
    57    43    44    1
    58    54    55    2
    59    54    60   am
    60    44    45    1
    61    44    47    1
    62    50    49    2
    63    45    46    2
    64    60    61    1
    65    47    48    1
    66    26    25    2
    67    49    51   am
    68    49    48    1
    69    25    24    1
    70    62    61    1
    71    62    63    2
    72    61    64    1
    73    64    65    1
    74    66    65   ar
    75    24    23    1
    76    24    27    1
    77    65    67   ar
    78    30    31    1
    79    30    29    1
    80    28    27    1
    81    28    29    1
    82    84    82   ar
    83    83    82   ar
    84    82    81    1
    85    92    93    1
    86    92    91    1
    87    77    78    1
    88    81    78    1
    89    91    90    1
    90    78    79    1
    91    90    89    1
    92    79    80    2
    93    89    86    1
    94    86    87    1
    95    86    85    1
    96    87    88    2
