@<TRIPOS>MOLECULE
tmp/4rxdB00.pdb
 183 170 0 0 0
SMALL
GASTEIGER

@<TRIPOS>ATOM
      1  N         81.5740   25.2220   81.2320 N.3    89  TYR89      -0.1227
      2  CA        80.5050   24.3940   80.6520 C.3    89  TYR89       0.1736
      3  C         80.9960   23.0470   80.1210 C.2    89  TYR89       0.2595
      4  O         80.3170   22.0290   80.3100 O.2    89  TYR89      -0.2718
      5  CB        79.6530   25.1490   79.6210 C.3    89  TYR89       0.0548
      6  CG        78.5840   25.9530   80.3240 C.ar   89  TYR89      -0.0200
      7  CD1       77.5510   25.3120   81.0080 C.ar   89  TYR89      -0.0009
      8  CD2       78.6390   27.3470   80.3640 C.ar   89  TYR89      -0.0009
      9  CE1       76.5790   26.0360   81.6960 C.ar   89  TYR89       0.0417
     10  CE2       77.6730   28.0840   81.0530 C.ar   89  TYR89       0.0417
     11  CZ        76.6520   27.4220   81.7230 C.ar   89  TYR89       0.1957
     12  OH        75.6850   28.1400   82.4070 O.3    89  TYR89      -0.2866
     13  N         82.1790   23.0340   79.5000 N.am   90  LEU90      -0.1980
     14  CA        82.7200   21.7720   78.9660 C.3    90  LEU90       0.1596
     15  C         83.1320   20.7570   80.0310 C.2    90  LEU90       0.2287
     16  O         82.9600   19.5540   79.8310 O.2    90  LEU90      -0.2864
     17  CB        83.8370   21.9920   77.9300 C.3    90  LEU90       0.0297
     18  CG        83.5810   22.9590   76.7640 C.3    90  LEU90       0.0022
     19  CD1       84.8520   23.1050   75.9220 C.3    90  LEU90       0.0001
     20  CD2       82.3980   22.5450   75.8860 C.3    90  LEU90       0.0001
     21  N         79.6520   19.5440   81.1940 N.3    93  ASP93      -0.1225
     22  CA        79.0220   18.8570   80.0630 C.3    93  ASP93       0.1805
     23  C         79.6370   17.4710   79.8460 C.2    93  ASP93       0.2597
     24  O         78.9200   16.4930   79.6270 O.2    93  ASP93      -0.2718
     25  CB        79.1780   19.6830   78.8010 C.3    93  ASP93       0.1424
     26  CG        78.5310   19.0470   77.6040 C.2    93  ASP93       0.3668
     27  OD1       77.2980   19.2310   77.4320 O.co2  93  ASP93      -0.2456
     28  OD2       79.2470   18.3790   76.8160 O.co2  93  ASP93      -0.2456
     29  N         80.9660   17.3810   79.9350 N.am   94  ASP94      -0.1974
     30  CA        81.6300   16.0850   79.7310 C.3    94  ASP94       0.1709
     31  C         81.1740   15.0490   80.7440 C.2    94  ASP94       0.2293
     32  O         80.9860   13.8940   80.3820 O.2    94  ASP94      -0.2864
     33  CB        83.1610   16.2320   79.7380 C.3    94  ASP94       0.1436
     34  CG        83.7100   16.6980   78.4130 C.2    94  ASP94       0.3671
     35  OD1       83.0640   16.4640   77.3570 O.co2  94  ASP94      -0.2456
     36  OD2       84.8090   17.2790   78.4050 O.co2  94  ASP94      -0.2456
     37  N         77.4380   14.2660   79.8490 N.3    97  ASP97      -0.1239
     38  CA        77.3350   13.4900   78.6170 C.3    97  ASP97       0.1674
     39  C         78.1460   12.1910   78.6330 C.2    97  ASP97       0.2266
     40  O         78.1760   11.4720   77.6290 O.2    97  ASP97      -0.2867
     41  CB        77.7740   14.3380   77.4310 C.3    97  ASP97       0.1410
     42  CG        76.8820   15.5590   77.2210 C.2    97  ASP97       0.3668
     43  OD1       75.7950   15.6060   77.8160 O.co2  97  ASP97      -0.2456
     44  OD2       77.2690   16.4690   76.4520 O.co2  97  ASP97      -0.2456
     45  N         81.3080   11.7090   78.4850 N.3    99  SER99      -0.1217
     46  CA        82.2780   11.7390   77.4160 C.3    99  SER99       0.1889
     47  C         83.6240   11.1760   77.8900 C.2    99  SER99       0.2288
     48  O         83.8690   11.0460   79.0960 O.2    99  SER99      -0.2866
     49  CB        82.4020   13.1640   76.8620 C.3    99  SER99       0.2089
     50  OG        81.2180   13.5060   76.1400 O.3    99  SER99      -0.2183
     51  N         88.4430   14.8720   75.1220 N.3   102  ARG102     -0.1245
     52  CA        88.2460   16.2020   74.5560 C.3   102  ARG102      0.1563
     53  C         89.5940   16.7500   74.1090 C.2   102  ARG102      0.2260
     54  O         90.5750   16.6390   74.8420 O.2   102  ARG102     -0.2867
     55  CB        87.6130   17.1580   75.5610 C.3   102  ARG102      0.0307
     56  CG        87.3470   18.5360   74.9660 C.3   102  ARG102      0.0489
     57  CD        86.5780   19.4430   75.8900 C.3   102  ARG102      0.2205
     58  NE        85.2110   18.9760   76.1040 N.pl3 102  ARG102     -0.0865
     59  CZ        84.2020   19.1840   75.2630 C.cat 102  ARG102      0.5346
     60  NH1       84.3880   19.8470   74.1240 N.pl3 102  ARG102      0.1354
     61  NH2       82.9990   18.7130   75.5640 N.pl3 102  ARG102      0.1354
     62  N         72.6960   29.7480   78.5730 N.3   158  THR158     -0.1218
     63  CA        73.4130   28.5080   78.3160 C.3   158  THR158      0.1862
     64  C         72.9080   27.3660   79.2110 C.2   158  THR158      0.2287
     65  O         72.6640   26.2630   78.7170 O.2   158  THR158     -0.2866
     66  CB        74.9350   28.7150   78.4990 C.3   158  THR158      0.1770
     67  OG1       75.3350   29.8450   77.7290 O.3   158  THR158     -0.2211
     68  CG2       75.7330   27.5000   78.0250 C.3   158  THR158      0.0375
     69  N         71.2230   23.8650   78.3020 N.3   162  GLN162     -0.1245
     70  CA        71.6470   22.5610   78.8050 C.3   162  GLN162      0.1566
     71  C         70.4910   21.7510   79.4090 C.2   162  GLN162      0.2260
     72  O         70.4610   20.5270   79.2850 O.2   162  GLN162     -0.2867
     73  CB        72.7580   22.7420   79.8310 C.3   162  GLN162      0.0367
     74  CG        74.1070   23.1640   79.2070 C.3   162  GLN162      0.0905
     75  CD        74.7170   22.0670   78.3530 C.2   162  GLN162      0.2608
     76  OE1       74.3950   21.9440   77.1690 O.2   162  GLN162     -0.2717
     77  NE2       75.6230   21.2740   78.9400 N.am  162  GLN162     -0.0878
     78  N         68.7310   20.3360   76.4800 N.3   165  ASP165     -0.1239
     79  CA        69.5590   19.2740   75.9130 C.3   165  ASP165      0.1674
     80  C         69.4110   17.9730   76.7080 C.2   165  ASP165      0.2266
     81  O         69.3060   16.8870   76.1480 O.2   165  ASP165     -0.2867
     82  CB        71.0330   19.7190   75.8850 C.3   165  ASP165      0.1410
     83  CG        71.9770   18.5810   75.5500 C.2   165  ASP165      0.3668
     84  OD1       72.2690   17.7790   76.4580 O.co2 165  ASP165     -0.2456
     85  OD2       72.4080   18.4740   74.3800 O.co2 165  ASP165     -0.2456
     86  N         71.5420   26.5460   74.2490 N.3   202  LYS202     -0.1231
     87  CA        72.7640   25.9030   74.7560 C.3   202  LYS202      0.1693
     88  C         74.0470   26.3860   74.0740 C.2   202  LYS202      0.2592
     89  O         75.1260   26.3420   74.6800 O.2   202  LYS202     -0.2718
     90  CB        72.6600   24.3680   74.7210 C.3   202  LYS202      0.0285
     91  CG        72.9780   23.6910   73.3920 C.3   202  LYS202      0.0035
     92  CD        73.0320   22.1530   73.5840 C.3   202  LYS202      0.0206
     93  CE        73.4390   21.4580   72.3120 C.3   202  LYS202      0.1093
     94  NZ        73.7380   19.9950   72.4940 N.3   202  LYS202     -0.1314
     95  N         73.9460   26.8360   72.8240 N.am  203  THR203     -0.1953
     96  CA        75.1490   27.1350   72.0500 C.3   203  THR203      0.1897
     97  C         75.2370   28.5460   71.4290 C.2   203  THR203      0.2313
     98  O         76.2720   29.2310   71.5790 O.2   203  THR203     -0.2863
     99  CB        75.4130   26.0230   71.0120 C.3   203  THR203      0.1794
    100  OG1       75.8030   24.8210   71.7030 O.3   203  THR203     -0.2208
    101  CG2       76.4930   26.4180   70.0310 C.3   203  THR203      0.0378
    102  N         76.1980   31.9410   73.7090 N.3   206  TYR206     -0.1241
    103  CA        77.5440   32.1380   74.2740 C.3   206  TYR206      0.1605
    104  C         78.6530   32.0370   73.2300 C.2   206  TYR206      0.2264
    105  O         79.7490   32.5730   73.4300 O.2   206  TYR206     -0.2867
    106  CB        77.8070   31.2150   75.4710 C.3   206  TYR206      0.0534
    107  CG        78.4330   29.8810   75.1410 C.ar  206  TYR206     -0.0201
    108  CD1       79.8250   29.7320   75.1110 C.ar  206  TYR206     -0.0009
    109  CD2       77.6420   28.7530   74.9070 C.ar  206  TYR206     -0.0009
    110  CE1       80.4100   28.5070   74.8140 C.ar  206  TYR206      0.0417
    111  CE2       78.2270   27.5120   74.6190 C.ar  206  TYR206      0.0417
    112  CZ        79.6070   27.4050   74.5880 C.ar  206  TYR206      0.1957
    113  OH        80.2030   26.1970   74.3060 O.3   206  TYR206     -0.2866
    114  N         76.5300   26.1570   63.6090 N.3   241  PHE241     -0.1227
    115  CA        77.6770   25.6760   64.3880 C.3   241  PHE241      0.1736
    116  C         77.3500   24.4100   65.1620 C.2   241  PHE241      0.2595
    117  O         78.1420   23.4650   65.1550 O.2   241  PHE241     -0.2718
    118  CB        78.1750   26.7590   65.3550 C.3   241  PHE241      0.0547
    119  CG        79.4250   26.3800   66.1220 C.ar  241  PHE241     -0.0202
    120  CD1       80.6880   26.6180   65.5870 C.ar  241  PHE241     -0.0042
    121  CD2       79.3340   25.8110   67.3870 C.ar  241  PHE241     -0.0042
    122  CE1       81.8510   26.2770   66.3030 C.ar  241  PHE241     -0.0003
    123  CE2       80.4890   25.4570   68.1040 C.ar  241  PHE241     -0.0003
    124  CZ        81.7450   25.6980   67.5550 C.ar  241  PHE241     -0.0000
    125  N         76.1960   24.3860   65.8300 N.am  242  GLN242     -0.1979
    126  CA        75.8090   23.2010   66.5910 C.3   242  GLN242      0.1601
    127  C         75.4330   22.0370   65.6750 C.2   242  GLN242      0.2287
    128  O         75.7410   20.8740   65.9660 O.2   242  GLN242     -0.2864
    129  CB        74.7080   23.5200   67.6150 C.3   242  GLN242      0.0394
    130  CG        74.3890   22.3690   68.5580 C.3   242  GLN242      0.0908
    131  CD        75.6030   21.9260   69.3580 C.2   242  GLN242      0.2608
    132  OE1       76.3390   22.7640   69.9140 O.2   242  GLN242     -0.2717
    133  NE2       75.8260   20.6140   69.4150 N.am  242  GLN242     -0.0878
    134  N         78.5780   20.5180   64.8540 N.3   245  ASP245     -0.1225
    135  CA        79.0230   19.7410   66.0170 C.3   245  ASP245      0.1805
    136  C         78.3650   18.3720   66.0390 C.2   245  ASP245      0.2597
    137  O         79.0280   17.3540   66.2640 O.2   245  ASP245     -0.2718
    138  CB        78.7340   20.4690   67.3240 C.3   245  ASP245      0.1424
    139  CG        79.4130   19.8070   68.4960 C.2   245  ASP245      0.3668
    140  OD1       80.6620   19.7840   68.5130 O.co2 245  ASP245     -0.2456
    141  OD2       78.7130   19.2350   69.3640 O.co2 245  ASP245     -0.2456
    142  N         77.0580   18.3660   65.7890 N.am  246  ASP246     -0.1974
    143  CA        76.2690   17.1440   65.7890 C.3   246  ASP246      0.1709
    144  C         76.7020   16.1970   64.6770 C.2   246  ASP246      0.2293
    145  O         76.8090   14.9950   64.9040 O.2   246  ASP246     -0.2864
    146  CB        74.7660   17.4630   65.6610 C.3   246  ASP246      0.1436
    147  CG        74.1780   18.0950   66.9160 C.2   246  ASP246      0.3671
    148  OD1       74.8880   18.2200   67.9490 O.co2 246  ASP246     -0.2456
    149  OD2       72.9770   18.4640   66.8720 O.co2 246  ASP246     -0.2456
    150  N         80.1350   14.6790   65.4240 N.3   249  ASP249     -0.1239
    151  CA        80.0280   13.6780   66.4940 C.3   249  ASP249      0.1674
    152  C         79.9660   12.2570   65.9560 C.2   249  ASP249      0.2266
    153  O         80.5380   11.3340   66.5410 O.2   249  ASP249     -0.2867
    154  CB        78.7950   13.9220   67.3660 C.3   249  ASP249      0.1410
    155  CG        78.9990   13.4560   68.7960 C.2   249  ASP249      0.3668
    156  OD1       79.8270   14.0760   69.5040 O.co2 249  ASP249     -0.2456
    157  OD2       78.3490   12.4760   69.2160 O.co2 249  ASP249     -0.2456
    158  N         87.6840   14.4530   70.0870 N.3   259  LYS259     -0.1245
    159  CA        86.7890   13.8570   71.0580 C.3   259  LYS259      0.1561
    160  C         86.0730   12.6440   70.4650 C.2   259  LYS259      0.2260
    161  O         85.8800   12.5510   69.2490 O.2   259  LYS259     -0.2867
    162  CB        85.8040   14.9110   71.5910 C.3   259  LYS259      0.0271
    163  CG        84.7570   15.3820   70.6000 C.3   259  LYS259      0.0035
    164  CD        84.2680   16.7920   70.9050 C.3   259  LYS259      0.0206
    165  CE        83.1810   17.2030   69.9070 C.3   259  LYS259      0.1093
    166  NZ        82.7720   18.6240   70.0480 N.3   259  LYS259     -0.1314
    167  N         76.7350   11.1690   71.2740 N.3   263  ASP263     -0.1239
    168  CA        75.3270   11.5570   71.0750 C.3   263  ASP263      0.1674
    169  C         74.4070   10.3370   70.9440 C.2   263  ASP263      0.2266
    170  O         73.3200   10.2910   71.5430 O.2   263  ASP263     -0.2867
    171  CB        75.1870   12.4890   69.8680 C.3   263  ASP263      0.1410
    172  CG        75.7480   13.8870   70.1340 C.2   263  ASP263      0.3668
    173  OD1       76.0770   14.1980   71.3090 O.co2 263  ASP263     -0.2456
    174  OD2       75.8750   14.6660   69.1590 O.co2 263  ASP263     -0.2456
    175  N         70.7680   11.5740   72.4170 N.3   268  LYS268     -0.1245
    176  CA        70.6010   13.0060   72.2740 C.3   268  LYS268      0.1561
    177  C         69.6520   13.3400   71.1220 C.2   268  LYS268      0.2260
    178  O         69.6070   12.6290   70.1050 O.2   268  LYS268     -0.2867
    179  CB        71.9620   13.6780   72.0560 C.3   268  LYS268      0.0271
    180  CG        72.8290   13.7060   73.3240 C.3   268  LYS268      0.0035
    181  CD        72.2280   14.7060   74.3070 C.3   268  LYS268      0.0206
    182  CE        72.4580   14.3250   75.7520 C.3   268  LYS268      0.1093
    183  NZ        73.7350   14.8450   76.2660 N.3   268  LYS268     -0.1314
@<TRIPOS>BOND
     1   114   115    1
     2   115   116    1
     3   115   118    1
     4   144   145    2
     5   144   143    1
     6   134   135    1
     7   117   116    2
     8   116   125   am
     9   118   119    1
    10   150   151    1
    11   120   119   ar
    12   120   122   ar
    13   146   143    1
    14   146   147    1
    15   127   128    2
    16   127   126    1
    17   142   143    1
    18   142   136   am
    19   125   126    1
    20   152   151    1
    21   152   153    2
    22   135   136    1
    23   135   138    1
    24   136   137    2
    25   119   121   ar
    26   122   124   ar
    27   151   154    1
    28   126   129    1
    29   149   147   ar
    30   147   148   ar
    31   138   139    1
    32   154   155    1
    33   121   123   ar
    34   124   123   ar
    35   129   130    1
    36   139   140   ar
    37   139   141   ar
    38   130   131    1
    39   155   157   ar
    40   155   156   ar
    41   174   172   ar
    42   161   160    2
    43   131   133   am
    44   131   132    2
    45   171   172    1
    46   171   168    1
    47   165   166    1
    48   165   164    1
    49   101    99    1
    50   158   159    1
    51   178   177    2
    52   172   173   ar
    53   160   159    1
    54   163   164    1
    55   163   162    1
    56   169   168    1
    57   169   170    2
    58    99   100    1
    59    99    96    1
    60   159   162    1
    61   168   167    1
    62   177   176    1
    63    97    98    2
    64    97    96    1
    65    96    95    1
    66   179   176    1
    67   179   180    1
    68   176   175    1
    69    93    94    1
    70    93    92    1
    71    95    88   am
    72   104   105    2
    73   104   103    1
    74   180   181    1
    75    91    92    1
    76    91    90    1
    77   102   103    1
    78    88    89    2
    79    88    87    1
    80    53    52    1
    81    53    54    2
    82    60    59    1
    83    86    87    1
    84   103   106    1
    85   113   112    1
    86   181   182    1
    87    85    83   ar
    88    52    51    1
    89    52    55    1
    90   112   111   ar
    91   112   110   ar
    92   111   109   ar
    93    90    87    1
    94   110   108   ar
    95   109   107   ar
    96    56    55    1
    97    56    57    1
    98   108   107   ar
    99   107   106    1
   100    59    61    1
   101    59    58    2
   102    83    82    1
   103    83    84   ar
   104   182   183    1
   105    82    79    1
   106    20    18    1
   107    57    58    1
   108    79    78    1
   109    79    80    1
   110    19    18    1
   111    50    49    1
   112    81    80    2
   113    44    42   ar
   114    18    17    1
   115    28    26   ar
   116    49    46    1
   117    76    75    2
   118    42    41    1
   119    42    43   ar
   120    35    34   ar
   121    46    47    1
   122    46    45    1
   123    41    38    1
   124    27    26   ar
   125    26    25    1
   126    40    39    2
   127    67    66    1
   128    47    48    2
   129    17    14    1
   130    68    66    1
   131    69    70    1
   132    63    66    1
   133    63    62    1
   134    63    64    1
   135    75    77   am
   136    75    74    1
   137    36    34   ar
   138    34    33    1
   139    38    39    1
   140    38    37    1
   141    65    64    2
   142    25    22    1
   143    70    71    1
   144    70    73    1
   145    14    13    1
   146    14    15    1
   147    74    73    1
   148    72    71    2
   149    13     3   am
   150     5     6    1
   151     5     2    1
   152    24    23    2
   153    30    33    1
   154    30    29    1
   155    30    31    1
   156    16    15    2
   157    23    29   am
   158    23    22    1
   159    22    21    1
   160     3     4    2
   161     3     2    1
   162     6     8   ar
   163     6     7   ar
   164     8    10   ar
   165    32    31    2
   166     2     1    1
   167     7     9   ar
   168    10    11   ar
   169     9    11   ar
   170    11    12    1
