@<TRIPOS>MOLECULE
tmp/4rxeA00.pdb
 172 158 0 0 0
SMALL
GASTEIGER

@<TRIPOS>ATOM
      1  N         35.9130  -20.4350   10.1570 N.3    87  GLN87      -0.1245
      2  CA        34.8250  -19.6480    9.5840 C.3    87  GLN87       0.1566
      3  C         33.8440  -20.5460    8.8060 C.2    87  GLN87       0.2260
      4  O         32.6150  -20.4250    8.9050 O.2    87  GLN87      -0.2867
      5  CB        35.4490  -18.6290    8.6510 C.3    87  GLN87       0.0367
      6  CG        34.4970  -17.9550    7.6880 C.3    87  GLN87       0.0905
      7  CD        33.4480  -17.1780    8.4050 C.2    87  GLN87       0.2608
      8  OE1       33.2870  -17.3020    9.5780 O.2    87  GLN87      -0.2717
      9  NE2       32.7460  -16.3690    7.7110 N.am   87  GLN87      -0.0878
     10  N         31.4720  -22.7260   10.7180 N.3    90  TYR90      -0.1227
     11  CA        30.3840  -21.9330   11.2270 C.3    90  TYR90       0.1736
     12  C         29.4750  -21.4650   10.1320 C.2    90  TYR90       0.2595
     13  O         28.2610  -21.5230   10.3100 O.2    90  TYR90      -0.2718
     14  CB        30.8620  -20.7450   12.0690 C.3    90  TYR90       0.0548
     15  CG        31.2540  -21.1380   13.4850 C.ar   90  TYR90      -0.0200
     16  CD1       30.2950  -21.6370   14.3640 C.ar   90  TYR90      -0.0009
     17  CD2       32.5790  -20.9890   13.9610 C.ar   90  TYR90      -0.0009
     18  CE1       30.6160  -21.9590   15.6640 C.ar   90  TYR90       0.0417
     19  CE2       32.9100  -21.3450   15.2680 C.ar   90  TYR90       0.0417
     20  CZ        31.9150  -21.8420   16.1020 C.ar   90  TYR90       0.1957
     21  OH        32.1730  -22.2400   17.3830 O.3    90  TYR90      -0.2866
     22  N         29.9890  -21.0650    8.9790 N.am   91  LEU91      -0.1980
     23  CA        29.0070  -20.6990    7.9290 C.3    91  LEU91       0.1596
     24  C         28.1040  -21.8910    7.6090 C.2    91  LEU91       0.2287
     25  O         26.9280  -21.7010    7.3170 O.2    91  LEU91      -0.2864
     26  CB        29.5920  -20.2830    6.5950 C.3    91  LEU91       0.0297
     27  CG        30.8860  -19.5440    6.4300 C.3    91  LEU91       0.0022
     28  CD1       31.4400  -19.8360    5.0460 C.3    91  LEU91       0.0001
     29  CD2       30.6470  -18.0600    6.6600 C.3    91  LEU91       0.0001
     30  N         25.6960  -22.0210   10.6100 N.3    94  ASP94      -0.1225
     31  CA        24.9340  -20.8110   10.7190 C.3    94  ASP94       0.1805
     32  C         23.9040  -20.7440    9.6050 C.2    94  ASP94       0.2597
     33  O         22.7960  -20.2990    9.8690 O.2    94  ASP94      -0.2718
     34  CB        25.8440  -19.6080   10.6310 C.3    94  ASP94       0.1424
     35  CG        25.1120  -18.3000   10.7730 C.2    94  ASP94       0.3668
     36  OD1       24.6670  -17.9710   11.8940 O.co2  94  ASP94      -0.2456
     37  OD2       25.0020  -17.5700    9.7600 O.co2  94  ASP94      -0.2456
     38  N         24.2300  -21.1460    8.3680 N.am   95  ASP95      -0.1974
     39  CA        23.2270  -20.9760    7.2990 C.3    95  ASP95       0.1709
     40  C         22.0570  -21.9580    7.5140 C.2    95  ASP95       0.2293
     41  O         20.9470  -21.6770    7.1120 O.2    95  ASP95      -0.2864
     42  CB        23.7940  -21.1320    5.8890 C.3    95  ASP95       0.1436
     43  CG        24.6470  -19.9920    5.4660 C.2    95  ASP95       0.3671
     44  OD1       24.5020  -18.8790    6.0390 O.co2  95  ASP95      -0.2456
     45  OD2       25.5160  -20.2300    4.5760 O.co2  95  ASP95      -0.2456
     46  N         20.1360  -20.2730   10.5900 N.3    98  ASP98      -0.1239
     47  CA        19.6190  -18.9710   10.2320 C.3    98  ASP98       0.1674
     48  C         18.6920  -19.1800    8.9930 C.2    98  ASP98       0.2266
     49  O         18.1300  -18.2180    8.4590 O.2    98  ASP98      -0.2867
     50  CB        20.7660  -18.0020    9.8290 C.3    98  ASP98       0.1410
     51  CG        21.5800  -17.4310   10.9950 C.2    98  ASP98       0.3668
     52  OD1       21.2720  -17.6860   12.1830 O.co2  98  ASP98      -0.2456
     53  OD2       22.5570  -16.6800   10.6960 O.co2  98  ASP98      -0.2456
     54  N         19.2120  -19.6150    5.8910 N.3   100  SER100     -0.1217
     55  CA        19.5540  -18.7380    4.7880 C.3   100  SER100      0.1889
     56  C         19.5260  -19.5120    3.4600 C.2   100  SER100      0.2288
     57  O         19.5110  -20.7830    3.4530 O.2   100  SER100     -0.2866
     58  CB        20.9110  -18.1090    5.0520 C.3   100  SER100      0.2089
     59  OG        20.8770  -17.2240    6.1720 O.3   100  SER100     -0.2183
     60  N         24.8800  -17.7950   -0.2910 N.3   103  ARG103     -0.1245
     61  CA        26.0060  -17.0910    0.2900 C.3   103  ARG103      0.1563
     62  C         26.9690  -16.8000   -0.8220 C.2   103  ARG103      0.2260
     63  O         27.2600  -17.6910   -1.6020 O.2   103  ARG103     -0.2867
     64  CB        26.7110  -17.9760    1.3310 C.3   103  ARG103      0.0307
     65  CG        27.9390  -17.3520    1.9520 C.3   103  ARG103      0.0489
     66  CD        28.3820  -18.2030    3.1540 C.3   103  ARG103      0.2205
     67  NE        27.4960  -18.1170    4.3330 N.pl3 103  ARG103     -0.0865
     68  CZ        27.5910  -17.1820    5.2910 C.cat 103  ARG103      0.5346
     69  NH1       28.5200  -16.2450    5.2200 N.pl3 103  ARG103      0.1354
     70  NH2       26.7420  -17.1760    6.3340 N.pl3 103  ARG103      0.1354
     71  N         33.0490  -17.9240   19.9070 N.3   159  THR159     -0.1218
     72  CA        32.1520  -17.8830   18.7360 C.3   159  THR159      0.1862
     73  C         30.8350  -18.6630   18.9920 C.2   159  THR159      0.2287
     74  O         29.7620  -18.1750   18.6800 O.2   159  THR159     -0.2866
     75  CB        32.8620  -18.3760   17.4330 C.3   159  THR159      0.1770
     76  OG1       34.1120  -17.7090   17.2600 O.3   159  THR159     -0.2211
     77  CG2       32.0590  -18.0460   16.2140 C.3   159  THR159      0.0375
     78  N         26.9400  -17.2900   19.2500 N.3   163  GLN163     -0.1245
     79  CA        25.8410  -17.8940   18.4410 C.3   163  GLN163      0.1566
     80  C         24.6740  -18.2700   19.2920 C.2   163  GLN163      0.2260
     81  O         23.5560  -18.2690   18.8410 O.2   163  GLN163     -0.2867
     82  CB        26.2950  -19.1680   17.7100 C.3   163  GLN163      0.0367
     83  CG        27.2610  -18.8980   16.5850 C.3   163  GLN163      0.0905
     84  CD        26.6540  -18.0070   15.5050 C.2   163  GLN163      0.2608
     85  OE1       26.5530  -16.7870   15.6700 O.2   163  GLN163     -0.2717
     86  NE2       26.2130  -18.6150   14.4140 N.am  163  GLN163     -0.0878
     87  N         23.0010  -14.8460   19.9520 N.3   166  ASP166     -0.1239
     88  CA        22.2510  -14.5030   18.7360 C.3   166  ASP166      0.1674
     89  C         20.9560  -15.2890   18.6380 C.2   166  ASP166      0.2266
     90  O         19.9160  -14.7620   18.3390 O.2   166  ASP166     -0.2867
     91  CB        23.1510  -14.8000   17.5150 C.3   166  ASP166      0.1410
     92  CG        22.5070  -14.4050   16.1510 C.2   166  ASP166      0.3668
     93  OD1       21.7610  -15.2100   15.5380 O.co2 166  ASP166     -0.2456
     94  OD2       22.7880  -13.2860   15.6660 O.co2 166  ASP166     -0.2456
     95  N         30.3160  -13.4740   19.0290 N.3   203  LYS203     -0.1231
     96  CA        30.0680  -14.2400   17.8210 C.3   203  LYS203      0.1693
     97  C         30.9130  -13.8670   16.6410 C.2   203  LYS203      0.2592
     98  O         31.0360  -14.6490   15.7380 O.2   203  LYS203     -0.2718
     99  CB        28.5980  -14.1350   17.4100 C.3   203  LYS203      0.0285
    100  CG        28.2020  -12.8600   16.6900 C.3   203  LYS203      0.0035
    101  CD        26.8360  -13.0600   16.0640 C.3   203  LYS203      0.0206
    102  CE        26.3910  -11.8290   15.2950 C.3   203  LYS203      0.1093
    103  NZ        25.0790  -12.1640   14.7340 N.3   203  LYS203     -0.1314
    104  N         31.4450  -12.6500   16.6240 N.am  204  THR204     -0.1953
    105  CA        32.2040  -12.1460   15.5000 C.3   204  THR204      0.1897
    106  C         33.6080  -11.6800   15.8970 C.2   204  THR204      0.2313
    107  O         34.6400  -12.0770   15.2970 O.2   204  THR204     -0.2863
    108  CB        31.3980  -11.0170   14.8440 C.3   204  THR204      0.1794
    109  OG1       30.1990  -11.5650   14.2850 O.3   204  THR204     -0.2208
    110  CG2       32.1670  -10.3320   13.7230 C.3   204  THR204      0.0378
    111  N         36.8070  -14.2310   16.7960 N.3   207  TYR207     -0.1241
    112  CA        37.4630  -15.0230   15.7160 C.3   207  TYR207      0.1605
    113  C         37.8190  -14.2130   14.5150 C.2   207  TYR207      0.2264
    114  O         38.7760  -14.5640   13.7780 O.2   207  TYR207     -0.2867
    115  CB        36.6390  -16.2080   15.2590 C.3   207  TYR207      0.0534
    116  CG        35.6180  -15.9830   14.1400 C.ar  207  TYR207     -0.0201
    117  CD1       35.8540  -16.4720   12.8470 C.ar  207  TYR207     -0.0009
    118  CD2       34.3670  -15.3690   14.3950 C.ar  207  TYR207     -0.0009
    119  CE1       34.9060  -16.3450   11.8390 C.ar  207  TYR207      0.0417
    120  CE2       33.4170  -15.2370   13.4220 C.ar  207  TYR207      0.0417
    121  CZ        33.6780  -15.7040   12.1340 C.ar  207  TYR207      0.1957
    122  OH        32.6930  -15.6000   11.1430 O.3   207  TYR207     -0.2866
    123  N         30.4710   -6.0000   12.3630 N.3   243  GLN243     -0.1245
    124  CA        29.1700   -6.6600   12.4440 C.3   243  GLN243      0.1566
    125  C         28.0590   -5.6700   12.2810 C.2   243  GLN243      0.2260
    126  O         27.0290   -5.9870   11.6900 O.2   243  GLN243     -0.2867
    127  CB        29.0190   -7.3680   13.7870 C.3   243  GLN243      0.0367
    128  CG        27.7900   -8.2420   13.9320 C.3   243  GLN243      0.0905
    129  CD        27.6770   -9.2580   12.8340 C.2   243  GLN243      0.2608
    130  OE1       28.5270  -10.1380   12.7020 O.2   243  GLN243     -0.2717
    131  NE2       26.6070   -9.1700   12.0530 N.am  243  GLN243     -0.0878
    132  N         27.9860   -5.5150    8.8220 N.3   246  ASP246     -0.1225
    133  CA        27.2620   -6.6900    8.3030 C.3   246  ASP246      0.1805
    134  C         25.7300   -6.5300    8.4130 C.2   246  ASP246      0.2597
    135  O         25.0170   -6.7600    7.4680 O.2   246  ASP246     -0.2718
    136  CB        27.6820   -7.9690    9.0290 C.3   246  ASP246      0.1424
    137  CG        27.1920   -9.2230    8.3270 C.2   246  ASP246      0.3668
    138  OD1       27.6100   -9.4090    7.1570 O.co2 246  ASP246     -0.2456
    139  OD2       26.4070  -10.0040    8.9360 O.co2 246  ASP246     -0.2456
    140  N         25.2400   -6.1450    9.5820 N.am  247  ASP247     -0.1974
    141  CA        23.8150   -5.8200    9.7730 C.3   247  ASP247      0.1709
    142  C         23.2280   -4.7520    8.7900 C.2   247  ASP247      0.2293
    143  O         22.1030   -4.9190    8.2250 O.2   247  ASP247     -0.2864
    144  CB        23.6060   -5.3650   11.2110 C.3   247  ASP247      0.1436
    145  CG        23.7700   -6.5050   12.2280 C.2   247  ASP247      0.3671
    146  OD1       23.8000   -7.6910   11.8360 O.co2 247  ASP247     -0.2456
    147  OD2       23.8430   -6.1950   13.4460 O.co2 247  ASP247     -0.2456
    148  N         22.9730   -6.1110    5.3130 N.3   250  ASP250     -0.1239
    149  CA        21.9650   -7.1150    5.2400 C.3   250  ASP250      0.1674
    150  C         20.6630   -6.4660    4.7970 C.2   250  ASP250      0.2266
    151  O         19.9610   -7.0140    3.9500 O.2   250  ASP250     -0.2867
    152  CB        21.7700   -7.8040    6.5850 C.3   250  ASP250      0.1410
    153  CG        21.0120   -9.1040    6.4380 C.2   250  ASP250      0.3668
    154  OD1       21.6080  -10.0530    5.8530 O.co2 250  ASP250     -0.2456
    155  OD2       19.8190   -9.1490    6.8610 O.co2 250  ASP250     -0.2456
    156  N         23.5590  -12.3910   -1.5190 N.3   260  LYS260     -0.1245
    157  CA        22.3660  -13.0450   -0.9510 C.3   260  LYS260      0.1561
    158  C         21.2300  -12.0090   -0.7220 C.2   260  LYS260      0.2260
    159  O         21.4630  -10.7970   -0.6410 O.2   260  LYS260     -0.2867
    160  CB        22.7060  -13.7460    0.3770 C.3   260  LYS260      0.0271
    161  CG        23.2790  -12.7830    1.3950 C.3   260  LYS260      0.0035
    162  CD        23.6470  -13.3940    2.7350 C.3   260  LYS260      0.0206
    163  CE        23.7200  -12.2800    3.7940 C.3   260  LYS260      0.1093
    164  NZ        24.6690  -12.4810    4.9260 N.3   260  LYS260     -0.1314
    165  N         17.9230  -10.9720    8.2140 N.3   264  ASP264     -0.1239
    166  CA        17.8680  -10.4680    9.6170 C.3   264  ASP264      0.1674
    167  C         16.4600   -9.9780   10.0990 C.2   264  ASP264      0.2266
    168  O         16.0250  -10.2540   11.2370 O.2   264  ASP264     -0.2867
    169  CB        18.9710   -9.4130    9.8430 C.3   264  ASP264      0.1410
    170  CG        20.3730  -10.0160    9.8120 C.2   264  ASP264      0.3668
    171  OD1       20.5010  -11.1910    9.4100 O.co2 264  ASP264     -0.2456
    172  OD2       21.3500   -9.3390   10.1930 O.co2 264  ASP264     -0.2456
@<TRIPOS>BOND
     1    63    62    2
     2   156   157    1
     3   157   158    1
     4   157   160    1
     5    62    61    1
     6   158   159    2
     7    60    61    1
     8    61    64    1
     9   160   161    1
    10    64    65    1
    11   161   162    1
    12    65    66    1
    13   162   163    1
    14    66    67    1
    15    57    56    2
    16    56    55    1
    17   163   164    1
    18   151   150    2
    19    67    68    2
    20    45    43   ar
    21    55    58    1
    22    55    54    1
    23   150   149    1
    24    28    27    1
    25    58    59    1
    26    69    68    1
    27   149   148    1
    28   149   152    1
    29    68    70    1
    30    43    42    1
    31    43    44   ar
    32   154   153   ar
    33    42    39    1
    34    27    26    1
    35    27    29    1
    36   153   152    1
    37   153   155   ar
    38    26    23    1
    39    41    40    2
    40   138   137   ar
    41    39    40    1
    42    39    38    1
    43    25    24    2
    44   135   134    2
    45    24    23    1
    46     6     7    1
    47     6     5    1
    48     9     7   am
    49    23    22    1
    50   165   166    1
    51   143   142    2
    52   133   134    1
    53   133   132    1
    54   133   136    1
    55   137   139   ar
    56   137   136    1
    57    38    32   am
    58     7     8    2
    59   134   140   am
    60    49    48    2
    61     5     2    1
    62   142   141    1
    63     3     4    2
    64     3     2    1
    65    22    12   am
    66    48    47    1
    67   171   170   ar
    68   140   141    1
    69     2     1    1
    70    32    33    2
    71    32    31    1
    72   166   169    1
    73   166   167    1
    74    37    35   ar
    75   141   144    1
    76   170   169    1
    77   170   172   ar
    78    50    47    1
    79    50    51    1
    80   167   168    2
    81    12    13    2
    82    12    11    1
    83    47    46    1
    84    30    31    1
    85    34    31    1
    86    34    35    1
    87    53    51   ar
    88    10    11    1
    89    35    36   ar
    90    51    52   ar
    91   122   121    1
    92   144   145    1
    93    11    14    1
    94   126   125    2
    95   146   145   ar
    96   119   121   ar
    97   119   117   ar
    98   131   129   am
    99    14    15    1
   100   121   120   ar
   101   145   147   ar
   102   125   124    1
   103   123   124    1
   104   124   127    1
   105   130   129    2
   106   129   128    1
   107   117   116   ar
   108   120   118   ar
   109    15    17   ar
   110    15    16   ar
   111   110   108    1
   112   114   113    2
   113   127   128    1
   114    17    19   ar
   115   116   118   ar
   116   116   115    1
   117   109   108    1
   118    16    18   ar
   119    86    84   am
   120   113   112    1
   121   103   102    1
   122   108   105    1
   123   115   112    1
   124    19    20   ar
   125   102   101    1
   126   107   106    2
   127   105   106    1
   128   105   104    1
   129    84    85    2
   130    84    83    1
   131    93    92   ar
   132    18    20   ar
   133    94    92   ar
   134   112   111    1
   135    98    97    2
   136   101   100    1
   137    20    21    1
   138    92    91    1
   139    77    75    1
   140    83    82    1
   141   104    97   am
   142    97    96    1
   143   100    99    1
   144    76    75    1
   145    99    96    1
   146    75    72    1
   147    91    88    1
   148    82    79    1
   149    96    95    1
   150    90    89    2
   151    79    78    1
   152    79    80    1
   153    89    88    1
   154    74    73    2
   155    72    73    1
   156    72    71    1
   157    88    87    1
   158    81    80    2
