@<TRIPOS>MOLECULE
tmp/4rxgI00.pdb
 69 66 0 0 0
SMALL
GASTEIGER

@<TRIPOS>ATOM
      1  N        -11.1820  -13.9990  -41.8470 N.3   112  TYR112     -0.1227
      2  CA       -10.7790  -12.6500  -42.2510 C.3   112  TYR112      0.1736
      3  C         -9.3480  -12.3900  -41.8120 C.2   112  TYR112      0.2596
      4  O         -8.8480  -11.2910  -41.9490 O.2   112  TYR112     -0.2718
      5  CB       -11.7050  -11.5980  -41.6230 C.3   112  TYR112      0.0548
      6  CG       -13.0640  -11.4580  -42.2700 C.ar  112  TYR112     -0.0200
      7  CD1      -13.9760  -12.5060  -42.2670 C.ar  112  TYR112     -0.0009
      8  CD2      -13.4650  -10.2630  -42.8390 C.ar  112  TYR112     -0.0009
      9  CE1      -15.2500  -12.3800  -42.8550 C.ar  112  TYR112      0.0417
     10  CE2      -14.7210  -10.1240  -43.4240 C.ar  112  TYR112      0.0417
     11  CZ       -15.6250  -11.1850  -43.4280 C.ar  112  TYR112      0.1957
     12  OH       -16.8820  -11.0470  -44.0220 O.3   112  TYR112     -0.2866
     13  N         -8.6960  -13.3950  -41.2620 N.am  113  GLY113     -0.1942
     14  CA        -7.3410  -13.2410  -40.7830 C.3   113  GLY113      0.2014
     15  C         -6.5970  -14.5660  -40.7990 C.2   113  GLY113      0.2639
     16  O         -7.1890  -15.6500  -40.6840 O.2   113  GLY113     -0.2714
     17  N         -5.2900  -14.4640  -40.8550 N.am  114  ALA114     -0.1963
     18  CA        -4.4420  -15.5630  -41.1570 C.3   114  ALA114      0.1728
     19  C         -4.3310  -16.4240  -39.9350 C.2   114  ALA114      0.2616
     20  O         -4.4720  -17.6230  -40.0320 O.2   114  ALA114     -0.2715
     21  CB        -3.0690  -15.0590  -41.5740 C.3   114  ALA114      0.0334
     22  N         -4.0580  -15.8120  -38.7810 N.am  115  ALA115     -0.1963
     23  CA        -3.9670  -16.5590  -37.5290 C.3   115  ALA115      0.1728
     24  C         -5.2720  -17.2840  -37.2140 C.2   115  ALA115      0.2616
     25  O         -5.2810  -18.4580  -36.8900 O.2   115  ALA115     -0.2715
     26  CB        -3.5790  -15.6410  -36.4030 C.3   115  ALA115      0.0334
     27  N         -6.3790  -16.5820  -37.3680 N.am  116  GLN116     -0.1977
     28  CA        -7.7070  -17.1490  -37.2070 C.3   116  GLN116      0.1601
     29  C         -7.7850  -18.4390  -38.0630 C.2   116  GLN116      0.2287
     30  O         -8.1610  -19.5260  -37.5610 O.2   116  GLN116     -0.2864
     31  CB        -8.7460  -16.1270  -37.6720 C.3   116  GLN116      0.0394
     32  CG       -10.1970  -16.5410  -37.5660 C.3   116  GLN116      0.0908
     33  CD       -11.0880  -15.8110  -38.5450 C.2   116  GLN116      0.2608
     34  OE1      -10.6140  -15.0800  -39.4320 O.2   116  GLN116     -0.2717
     35  NE2      -12.3890  -16.0480  -38.4290 N.am  116  GLN116     -0.0878
     36  N         -8.5330   -4.0030  -46.0160 N.3   140  GLY140     -0.1210
     37  CA        -7.3820   -4.8590  -45.8100 C.3   140  GLY140      0.1956
     38  C         -6.7570   -5.2280  -47.1320 C.2   140  GLY140      0.2612
     39  O         -6.9690   -4.5290  -48.1430 O.2   140  GLY140     -0.2717
     40  N         -5.9720   -6.3100  -47.1050 N.am  141  SER141     -0.1952
     41  CA        -5.4410   -6.9250  -48.3060 C.3   141  SER141      0.1924
     42  C         -5.7470   -8.4020  -48.3350 C.2   141  SER141      0.2314
     43  O         -5.1030   -9.2190  -47.6660 O.2   141  SER141     -0.2863
     44  CB        -3.9430   -6.7240  -48.4030 C.3   141  SER141      0.2116
     45  OG        -3.4600   -7.6050  -49.4000 O.3   141  SER141     -0.2180
     46  N         -2.7810  -10.4570  -49.2670 N.3   144  GLN144     -0.1231
     47  CA        -1.7850  -10.6310  -48.2080 C.3   144  GLN144      0.1698
     48  C         -2.3100  -11.6250  -47.1500 C.2   144  GLN144      0.2592
     49  O         -1.5860  -12.4420  -46.6330 O.2   144  GLN144     -0.2718
     50  CB        -1.4210   -9.2770  -47.5920 C.3   144  GLN144      0.0381
     51  CG        -0.2230   -9.3600  -46.6470 C.3   144  GLN144      0.0905
     52  CD         1.0540   -9.7250  -47.3750 C.2   144  GLN144      0.2608
     53  OE1        1.7420  -10.7170  -47.0330 O.2   144  GLN144     -0.2717
     54  NE2        1.3830   -8.9400  -48.3900 N.am  144  GLN144     -0.0878
     55  N         -3.5950  -11.5930  -46.8650 N.am  145  THR145     -0.1953
     56  CA        -4.1400  -12.4890  -45.8750 C.3   145  THR145      0.1897
     57  C         -3.9950  -13.9460  -46.3620 C.2   145  THR145      0.2313
     58  O         -3.5810  -14.8350  -45.5830 O.2   145  THR145     -0.2863
     59  CB        -5.6060  -12.1190  -45.5480 C.3   145  THR145      0.1794
     60  OG1       -5.6850  -10.7350  -45.1570 O.3   145  THR145     -0.2208
     61  CG2       -6.1630  -13.0080  -44.4500 C.3   145  THR145      0.0378
     62  N         -0.2860  -14.9460  -46.3020 N.3   148  ASP148     -0.1239
     63  CA         0.1140  -15.2240  -44.9210 C.3   148  ASP148      0.1674
     64  C         -0.4700  -16.5400  -44.4480 C.2   148  ASP148      0.2266
     65  O          0.2400  -17.3700  -43.8790 O.2   148  ASP148     -0.2867
     66  CB        -0.3030  -14.0800  -43.9960 C.3   148  ASP148      0.1410
     67  CG         0.5270  -12.8210  -44.2130 C.2   148  ASP148      0.3668
     68  OD1        1.5410  -12.8420  -44.9540 O.co2 148  ASP148     -0.2456
     69  OD2        0.1550  -11.8100  -43.6250 O.co2 148  ASP148     -0.2456
@<TRIPOS>BOND
     1    45    44    1
     2    46    47    1
     3    44    41    1
     4    54    52   am
     5    42    41    1
     6    42    43    2
     7    41    40    1
     8    47    50    1
     9    47    48    1
    10    39    38    2
    11    50    51    1
    12    52    53    2
    13    52    51    1
    14    48    55   am
    15    48    49    2
    16    38    40   am
    17    38    37    1
    18    55    56    1
    19    57    56    1
    20    57    58    2
    21    62    63    1
    22    36    37    1
    23    56    59    1
    24    59    60    1
    25    59    61    1
    26    68    67   ar
    27    63    64    1
    28    63    66    1
    29    64    65    2
    30    67    66    1
    31    67    69   ar
    32    12    11    1
    33    11    10   ar
    34    11     9   ar
    35    10     8   ar
    36     9     7   ar
    37     8     6   ar
    38     6     7   ar
    39     6     5    1
    40     2     1    1
    41     2     3    1
    42     2     5    1
    43     4     3    2
    44     3    13   am
    45    21    18    1
    46    13    14    1
    47    18    17    1
    48    18    19    1
    49    17    15   am
    50    15    14    1
    51    15    16    2
    52    20    19    2
    53    19    22   am
    54    34    33    2
    55    22    23    1
    56    33    35   am
    57    33    32    1
    58    29    30    2
    59    29    28    1
    60    31    32    1
    61    31    28    1
    62    23    24    1
    63    23    26    1
    64    27    24   am
    65    27    28    1
    66    24    25    2
