@<TRIPOS>MOLECULE
tmp/4rxhA00.pdb
 193 182 0 0 0
SMALL
GASTEIGER

@<TRIPOS>ATOM
      1  N        -44.8170   75.3150  205.7400 N.3   159  LYS159     -0.1245
      2  CA       -44.8800   76.5840  205.0140 C.3   159  LYS159      0.1561
      3  C        -45.9530   76.6260  203.9290 C.2   159  LYS159      0.2260
      4  O        -46.0780   77.6250  203.2200 O.2   159  LYS159     -0.2867
      5  CB       -43.5220   76.9030  204.3750 C.3   159  LYS159      0.0271
      6  CG       -42.4100   77.1450  205.3720 C.3   159  LYS159      0.0035
      7  CD       -41.1120   77.5290  204.6670 C.3   159  LYS159      0.0206
      8  CE       -41.1840   78.9390  204.1200 C.3   159  LYS159      0.1093
      9  NZ       -39.8610   79.3830  203.5600 N.3   159  LYS159     -0.1314
     10  N        -38.3530   82.0900  210.1230 N.3   199  ASP199     -0.1225
     11  CA       -38.3310   82.1480  208.6690 C.3   199  ASP199      0.1805
     12  C        -39.5740   82.8640  208.1520 C.2   199  ASP199      0.2598
     13  O        -40.6590   82.2850  208.1190 O.2   199  ASP199     -0.2718
     14  CB       -38.2460   80.7510  208.0610 C.3   199  ASP199      0.1424
     15  CG       -38.2320   80.7810  206.5340 C.2   199  ASP199      0.3668
     16  OD1      -37.8770   81.8350  205.9570 O.co2 199  ASP199     -0.2456
     17  OD2      -38.5790   79.7550  205.9110 O.co2 199  ASP199     -0.2456
     18  N        -39.4160   84.1180  207.7430 N.am  200  GLY200     -0.1942
     19  CA       -40.5660   84.8770  207.2710 C.3   200  GLY200      0.2014
     20  C        -40.3570   86.3750  207.2640 C.2   200  GLY200      0.2640
     21  O        -39.2330   86.8530  207.1550 O.2   200  GLY200     -0.2714
     22  N        -41.4490   87.1280  207.3780 N.am  201  SER201     -0.1935
     23  CA       -41.3480   88.5800  207.2860 C.3   201  SER201      0.2055
     24  C        -40.6680   89.1660  208.5240 C.2   201  SER201      0.2643
     25  O        -40.5850   88.5260  209.5680 O.2   201  SER201     -0.2714
     26  CB       -42.7370   89.1940  207.0580 C.3   201  SER201      0.2130
     27  OG       -43.6710   88.7310  208.0170 O.3   201  SER201     -0.2179
     28  N        -40.1500   90.3830  208.3970 N.am  202  ASN202     -0.1971
     29  CA       -39.3080   90.9610  209.4340 C.3   202  ASN202      0.1688
     30  C        -40.0200   91.2580  210.7460 C.2   202  ASN202      0.2292
     31  O        -39.3800   91.4010  211.7760 O.2   202  ASN202     -0.2864
     32  CB       -38.6340   92.2350  208.8990 C.3   202  ASN202      0.1181
     33  CG       -37.5710   91.9390  207.8430 C.2   202  ASN202      0.2629
     34  OD1      -37.2940   90.7800  207.5170 O.2   202  ASN202     -0.2716
     35  ND2      -36.9770   92.9930  207.2960 N.am  202  ASN202     -0.0877
     36  N        -39.2740   88.2480  212.7640 N.3   205  ILE205     -0.1245
     37  CA       -37.9190   88.3140  213.2900 C.3   205  ILE205      0.1561
     38  C        -37.8740   89.2320  214.5100 C.2   205  ILE205      0.2260
     39  O        -37.2280   88.9270  215.5200 O.2   205  ILE205     -0.2867
     40  CB       -36.9280   88.7880  212.1990 C.3   205  ILE205      0.0252
     41  CG1      -36.7890   87.7070  211.1190 C.3   205  ILE205      0.0019
     42  CG2      -35.5670   89.1210  212.8040 C.3   205  ILE205      0.0019
     43  CD1      -36.0220   88.1390  209.8610 C.3   205  ILE205      0.0001
     44  N        -29.4080   77.8450  211.5250 N.3   234  ARG234     -0.1245
     45  CA       -30.5040   78.2320  210.6240 C.3   234  ARG234      0.1563
     46  C        -31.2890   79.4170  211.2080 C.2   234  ARG234      0.2260
     47  O        -31.6320   80.3530  210.4820 O.2   234  ARG234     -0.2867
     48  CB       -31.4360   77.0490  210.3360 C.3   234  ARG234      0.0307
     49  CG       -32.7800   77.4330  209.6440 C.3   234  ARG234      0.0489
     50  CD       -32.5780   78.1680  208.3020 C.3   234  ARG234      0.2205
     51  NE       -32.0240   77.2960  207.2730 N.pl3 234  ARG234     -0.0865
     52  CZ       -32.7410   76.4730  206.5140 C.cat 234  ARG234      0.5346
     53  NH1      -34.0660   76.4020  206.6530 N.pl3 234  ARG234      0.1354
     54  NH2      -32.1300   75.7150  205.6100 N.pl3 234  ARG234      0.1354
     55  N        -31.6840   83.0950  209.7260 N.3   238  ASN238     -0.1240
     56  CA       -32.9770   83.7190  209.4700 C.3   238  ASN238      0.1653
     57  C        -33.0310   85.1510  210.0040 C.2   238  ASN238      0.2266
     58  O        -33.5600   86.0550  209.3420 O.2   238  ASN238     -0.2867
     59  CB       -34.1080   82.8810  210.0840 C.3   238  ASN238      0.1155
     60  CG       -34.4100   81.6340  209.2760 C.2   238  ASN238      0.2627
     61  OD1      -34.0720   81.5540  208.0940 O.2   238  ASN238     -0.2716
     62  ND2      -35.0750   80.6550  209.9050 N.am  238  ASN238     -0.0877
     63  N        -30.6410   87.3430  210.4620 N.3   240  VAL240     -0.1231
     64  CA       -29.8890   88.3190  209.6760 C.3   240  VAL240      0.1692
     65  C        -30.4320   88.4820  208.2480 C.2   240  VAL240      0.2593
     66  O        -29.8380   89.1930  207.4440 O.2   240  VAL240     -0.2718
     67  CB       -28.3620   87.9810  209.6380 C.3   240  VAL240      0.0266
     68  CG1      -27.8060   87.9710  211.0460 C.3   240  VAL240      0.0020
     69  CG2      -28.0970   86.6490  208.9280 C.3   240  VAL240      0.0020
     70  N        -31.5810   87.8730  207.9420 N.am  241  THR241     -0.1939
     71  CA       -32.2950   88.2300  206.7090 C.3   241  THR241      0.2028
     72  C        -33.1990   89.4330  206.9710 C.2   241  THR241      0.2643
     73  O        -33.9090   89.8940  206.0770 O.2   241  THR241     -0.2714
     74  CB       -33.1560   87.0750  206.1300 C.3   241  THR241      0.1808
     75  OG1      -34.2810   86.8150  206.9900 O.3   241  THR241     -0.2208
     76  CG2      -32.3330   85.7990  205.9140 C.3   241  THR241      0.0379
     77  N        -33.1700   89.9320  208.2030 N.am  242  GLY242     -0.1939
     78  CA       -33.9450   91.0990  208.5890 C.3   242  GLY242      0.2014
     79  C        -33.2400   92.3920  208.2100 C.2   242  GLY242      0.2639
     80  O        -32.2840   92.3760  207.4300 O.2   242  GLY242     -0.2714
     81  N        -33.6950   93.5180  208.7580 N.am  243  ASP243     -0.1957
     82  CA       -33.1040   94.7990  208.3800 C.3   243  ASP243      0.1840
     83  C        -31.7720   95.0070  209.1020 C.2   243  ASP243      0.2622
     84  O        -31.3000   94.1140  209.8060 O.2   243  ASP243     -0.2715
     85  CB       -34.0770   95.9680  208.6390 C.3   243  ASP243      0.1450
     86  CG       -34.4660   96.1320  210.1010 C.2   243  ASP243      0.3671
     87  OD1      -33.6460   95.8980  211.0030 O.co2 243  ASP243     -0.2456
     88  OD2      -35.6300   96.5260  210.3630 O.co2 243  ASP243     -0.2456
     89  N        -31.1700   96.1780  208.9250 N.am  244  ASP244     -0.1971
     90  CA       -29.8120   96.4140  209.4320 C.3   244  ASP244      0.1709
     91  C        -29.7630   96.4270  210.9580 C.2   244  ASP244      0.2293
     92  O        -28.7930   95.9570  211.5650 O.2   244  ASP244     -0.2864
     93  CB       -29.2520   97.7320  208.8770 C.3   244  ASP244      0.1436
     94  CG       -28.9980   97.6800  207.3760 C.2   244  ASP244      0.3671
     95  OD1      -29.1240   96.5900  206.7750 O.co2 244  ASP244     -0.2456
     96  OD2      -28.6470   98.7310  206.7900 O.co2 244  ASP244     -0.2456
     97  N        -30.1870   92.8070  212.1150 N.3   247  THR247     -0.1218
     98  CA       -28.9380   92.1180  211.8270 C.3   247  THR247      0.1862
     99  C        -27.8730   92.5090  212.8410 C.2   247  THR247      0.2287
    100  O        -27.0640   91.6690  213.2530 O.2   247  THR247     -0.2866
    101  CB       -28.4680   92.4180  210.3910 C.3   247  THR247      0.1770
    102  OG1      -29.4330   91.8940  209.4730 O.3   247  THR247     -0.2211
    103  CG2      -27.0890   91.7890  210.1010 C.3   247  THR247      0.0375
    104  N        -24.0470   81.3160  204.0110 N.3   276  TRP276     -0.1241
    105  CA       -25.3170   81.9720  203.7240 C.3   276  TRP276      0.1605
    106  C        -25.5640   83.0920  204.7430 C.2   276  TRP276      0.2264
    107  O        -25.8820   84.2260  204.3750 O.2   276  TRP276     -0.2867
    108  CB       -26.4550   80.9350  203.7350 C.3   276  TRP276      0.0550
    109  CG       -27.8280   81.5250  203.6830 C.ar  276  TRP276      0.0003
    110  CD1      -28.3880   82.2340  202.6570 C.ar  276  TRP276      0.0946
    111  CD2      -28.8310   81.4270  204.7000 C.ar  276  TRP276      0.0152
    112  NE1      -29.6770   82.5970  202.9810 N.ar  276  TRP276     -0.2442
    113  CE2      -29.9730   82.1190  204.2330 C.ar  276  TRP276      0.0810
    114  CE3      -28.8680   80.8400  205.9690 C.ar  276  TRP276      0.0012
    115  CZ2      -31.1460   82.2300  204.9870 C.ar  276  TRP276      0.0191
    116  CZ3      -30.0420   80.9470  206.7190 C.ar  276  TRP276      0.0001
    117  CH2      -31.1580   81.6390  206.2250 C.ar  276  TRP276      0.0015
    118  N        -23.2780   85.9560  204.2250 N.3   279  SER279     -0.1202
    119  CA       -23.6950   86.7100  203.0350 C.3   279  SER279      0.2020
    120  C        -24.8160   87.7070  203.3410 C.2   279  SER279      0.2618
    121  O        -24.8990   88.7690  202.7290 O.2   279  SER279     -0.2717
    122  CB       -24.1390   85.7690  201.9110 C.3   279  SER279      0.2103
    123  OG       -25.4920   85.3490  202.0650 O.3   279  SER279     -0.2182
    124  N        -25.6880   87.3830  204.2870 N.am  280  ASN280     -0.1974
    125  CA       -26.7740   88.3020  204.5750 C.3   280  ASN280      0.1688
    126  C        -26.3190   89.3820  205.5420 C.2   280  ASN280      0.2292
    127  O        -27.0130   90.3670  205.7500 O.2   280  ASN280     -0.2864
    128  CB       -28.0020   87.5460  205.0970 C.3   280  ASN280      0.1181
    129  CG       -28.8290   86.9630  203.9650 C.2   280  ASN280      0.2629
    130  OD1      -29.0330   87.6160  202.9330 O.2   280  ASN280     -0.2716
    131  ND2      -29.2880   85.7290  204.1340 N.am  280  ASN280     -0.0877
    132  N        -23.0210   90.6920  204.9840 N.3   282  THR282     -0.1203
    133  CA       -22.2870   91.5450  204.0420 C.3   282  THR282      0.1994
    134  C        -23.2510   92.2110  203.0520 C.2   282  THR282      0.2618
    135  O        -22.8550   93.0790  202.2750 O.2   282  THR282     -0.2717
    136  CB       -21.1760   90.7750  203.2610 C.3   282  THR282      0.1784
    137  OG1      -21.7390   89.7070  202.4990 O.3   282  THR282     -0.2211
    138  CG2      -20.1010   90.2160  204.2160 C.3   282  THR282      0.0376
    139  N        -24.5190   91.8030  203.0960 N.am  283  ALA283     -0.1965
    140  CA       -25.5780   92.5020  202.3730 C.3   283  ALA283      0.1728
    141  C        -26.0320   93.7440  203.1420 C.2   283  ALA283      0.2616
    142  O        -26.8690   94.5220  202.6620 O.2   283  ALA283     -0.2715
    143  CB       -26.7550   91.5690  202.1300 C.3   283  ALA283      0.0334
    144  N        -25.4780   93.9220  204.3390 N.am  284  GLY284     -0.1955
    145  CA       -25.8620   95.0050  205.2260 C.3   284  GLY284      0.1869
    146  C        -25.1480   96.3070  204.9110 C.2   284  GLY284      0.2309
    147  O        -24.7280   96.5300  203.7780 O.2   284  GLY284     -0.2863
    148  N        -22.8830   80.1290  197.9690 N.3   315  GLU315     -0.1245
    149  CA       -23.0880   81.0010  199.1190 C.3   315  GLU315      0.1567
    150  C        -21.8970   81.9310  199.3510 C.2   315  GLU315      0.2260
    151  O        -22.0810   83.1110  199.6400 O.2   315  GLU315     -0.2867
    152  CB       -23.3650   80.1840  200.3850 C.3   315  GLU315      0.0388
    153  CG       -24.6530   79.3440  200.3230 C.3   315  GLU315      0.1160
    154  CD       -25.9000   80.1650  200.0100 C.2   315  GLU315      0.3649
    155  OE1      -25.9120   81.3980  200.2200 O.co2 315  GLU315     -0.2457
    156  OE2      -26.8870   79.5640  199.5530 O.co2 315  GLU315     -0.2457
    157  N        -22.0540   84.8220  196.9340 N.3   318  TRP318     -0.1241
    158  CA       -22.9290   85.8790  197.4150 C.3   318  TRP318      0.1605
    159  C        -22.2550   86.7250  198.4980 C.2   318  TRP318      0.2264
    160  O        -22.3520   87.9490  198.4920 O.2   318  TRP318     -0.2867
    161  CB       -24.2380   85.3000  197.9640 C.3   318  TRP318      0.0550
    162  CG       -25.2630   84.9590  196.9260 C.ar  318  TRP318      0.0003
    163  CD1      -25.4910   83.7350  196.3630 C.ar  318  TRP318      0.0946
    164  CD2      -26.2130   85.8560  196.3400 C.ar  318  TRP318      0.0152
    165  NE1      -26.5310   83.8150  195.4600 N.ar  318  TRP318     -0.2442
    166  CE2      -26.9900   85.1070  195.4290 C.ar  318  TRP318      0.0810
    167  CE3      -26.4830   87.2170  196.4980 C.ar  318  TRP318      0.0012
    168  CZ2      -28.0240   85.6780  194.6820 C.ar  318  TRP318      0.0191
    169  CZ3      -27.5080   87.7810  195.7560 C.ar  318  TRP318      0.0001
    170  CH2      -28.2630   87.0130  194.8580 C.ar  318  TRP318      0.0015
    171  N        -21.5790   90.5920  197.7410 N.3   322  ASN322     -0.1240
    172  CA       -22.3160   91.5510  198.5630 C.3   322  ASN322      0.1653
    173  C        -21.3820   92.5450  199.2420 C.2   322  ASN322      0.2266
    174  O        -21.7020   93.7250  199.3690 O.2   322  ASN322     -0.2867
    175  CB       -23.1650   90.8410  199.6360 C.3   322  ASN322      0.1155
    176  CG       -24.3760   90.1150  199.0530 C.2   322  ASN322      0.2627
    177  OD1      -24.6830   90.2460  197.8650 O.2   322  ASN322     -0.2716
    178  ND2      -25.0780   89.3500  199.8970 N.am  322  ASN322     -0.0877
    179  N        -20.2730   96.1460  197.8540 N.3   325  SER325     -0.1217
    180  CA       -21.3240   97.1420  197.6440 C.3   325  SER325      0.1889
    181  C        -20.9600   98.5760  198.0460 C.2   325  SER325      0.2288
    182  O        -21.6780   99.5080  197.6980 O.2   325  SER325     -0.2866
    183  CB       -22.5880   96.7350  198.4070 C.3   325  SER325      0.2089
    184  OG       -22.3910   96.9280  199.7940 O.3   325  SER325     -0.2183
    185  N        -27.9990   82.8660  187.9950 N.3   356  LYS356     -0.1245
    186  CA       -28.0340   83.7690  189.1360 C.3   356  LYS356      0.1561
    187  C        -26.6170   84.0100  189.6530 C.2   356  LYS356      0.2260
    188  O        -26.2480   85.1400  189.9740 O.2   356  LYS356     -0.2867
    189  CB       -28.9180   83.2220  190.2540 C.3   356  LYS356      0.0271
    190  CG       -29.3440   84.2880  191.2440 C.3   356  LYS356      0.0035
    191  CD       -29.8940   85.5130  190.5170 C.3   356  LYS356      0.0206
    192  CE       -30.1730   86.6590  191.4770 C.3   356  LYS356      0.1093
    193  NZ       -31.0320   86.2330  192.6170 N.3   356  LYS356     -0.1314
@<TRIPOS>BOND
     1   185   186    1
     2   186   187    1
     3   186   189    1
     4   187   188    2
     5   189   190    1
     6   191   190    1
     7   191   192    1
     8   192   193    1
     9   168   170   ar
    10   168   166   ar
    11   170   169   ar
    12   166   165   ar
    13   166   164   ar
    14   165   163   ar
    15   169   167   ar
    16   164   167   ar
    17   164   162   ar
    18   163   162   ar
    19   162   161    1
    20   157   158    1
    21   158   161    1
    22   158   159    1
    23   180   179    1
    24   180   181    1
    25   180   183    1
    26   182   181    2
    27   171   172    1
    28   177   176    2
    29   148   149    1
    30   183   184    1
    31   160   159    2
    32   172   173    1
    33   172   175    1
    34   176   175    1
    35   176   178   am
    36   149   150    1
    37   149   152    1
    38   173   174    2
    39   150   151    2
    40   156   154   ar
    41   154   155   ar
    42   154   153    1
    43   153   152    1
    44   122   123    1
    45   122   119    1
    46   143   140    1
    47   135   134    2
    48   140   139    1
    49   140   141    1
    50   137   136    1
    51   110   112   ar
    52   110   109   ar
    53   142   141    2
    54   121   120    2
    55   130   129    2
    56   112   113   ar
    57   119   120    1
    58   119   118    1
    59   134   139   am
    60   134   133    1
    61   141   144   am
    62     4     3    2
    63   136   133    1
    64   136   138    1
    65   120   124   am
    66     9     8    1
    67   109   108    1
    68   109   111   ar
    69   105   108    1
    70   105   104    1
    71   105   106    1
    72   147   146    2
    73     3     2    1
    74   129   131   am
    75   129   128    1
    76   133   132    1
    77     8     7    1
    78   113   111   ar
    79   113   115   ar
    80   124   125    1
    81   144   145    1
    82   107   106    2
    83     5     2    1
    84     5     6    1
    85   125   128    1
    86   125   126    1
    87     7     6    1
    88   111   114   ar
    89   146   145    1
    90   115   117   ar
    91     2     1    1
    92   126   127    2
    93    54    52    1
    94    17    15   ar
    95    76    74    1
    96    16    15   ar
    97   114   116   ar
    98    73    72    2
    99    74    71    1
   100    74    75    1
   101   117   116   ar
   102    52    53    1
   103    52    51    2
   104    15    14    1
   105    71    72    1
   106    71    70    1
   107    95    94   ar
   108    96    94   ar
   109    72    77   am
   110    26    23    1
   111    26    27    1
   112    21    20    2
   113    20    19    1
   114    20    22   am
   115    19    18    1
   116    51    50    1
   117    23    22    1
   118    23    24    1
   119    35    33   am
   120    94    93    1
   121    80    79    2
   122    66    65    2
   123    34    33    2
   124    18    12   am
   125    33    32    1
   126    70    65   am
   127    14    11    1
   128    61    60    2
   129    13    12    2
   130    12    11    1
   131    77    78    1
   132    79    78    1
   133    79    81   am
   134    65    64    1
   135    50    49    1
   136    82    85    1
   137    82    81    1
   138    82    83    1
   139    28    24   am
   140    28    29    1
   141    24    25    2
   142    85    86    1
   143    11    10    1
   144    93    90    1
   145    32    29    1
   146    89    83   am
   147    89    90    1
   148    69    67    1
   149    83    84    2
   150    60    62   am
   151    60    59    1
   152    58    57    2
   153    90    91    1
   154    29    30    1
   155    56    55    1
   156    56    57    1
   157    56    59    1
   158   102   101    1
   159    67    64    1
   160    67    68    1
   161    49    48    1
   162    64    63    1
   163    43    41    1
   164    86    88   ar
   165    86    87   ar
   166   103   101    1
   167    48    45    1
   168   101    98    1
   169    47    46    2
   170    45    46    1
   171    45    44    1
   172    30    31    2
   173    91    92    2
   174    41    40    1
   175    98    97    1
   176    98    99    1
   177    40    42    1
   178    40    37    1
   179    36    37    1
   180    99   100    2
   181    37    38    1
   182    38    39    2
