@<TRIPOS>MOLECULE
tmp/4rxmA00.pdb
 109 102 0 0 0
SMALL
GASTEIGER

@<TRIPOS>ATOM
      1  N         46.0500   48.6910   46.9340 N.3    13  ASN13      -0.1240
      2  CA        45.3130   49.9280   46.7930 C.3    13  ASN13       0.1653
      3  C         44.9470   50.4470   48.1820 C.2    13  ASN13       0.2266
      4  O         45.1080   49.7310   49.1560 O.2    13  ASN13      -0.2867
      5  CB        44.0640   49.7100   45.9620 C.3    13  ASN13       0.1155
      6  CG        43.0220   48.8530   46.6910 C.2    13  ASN13       0.2627
      7  OD1       42.3280   49.3330   47.5930 O.2    13  ASN13      -0.2716
      8  ND2       42.9260   47.5820   46.3190 N.am   13  ASN13      -0.0877
      9  N         39.6490   50.3640   48.3900 N.3    16  SER16      -0.1217
     10  CA        38.6660   49.3430   48.8890 C.3    16  SER16       0.1889
     11  C         38.5690   49.4090   50.4120 C.2    16  SER16       0.2288
     12  O         39.6030   49.5440   51.0730 O.2    16  SER16      -0.2866
     13  CB        39.1110   47.9510   48.4700 C.3    16  SER16       0.2089
     14  OG        38.7810   47.7010   47.0990 O.3    16  SER16      -0.2183
     15  N         38.3570   47.2290   52.8240 N.3    18  PHE18      -0.1227
     16  CA        39.1950   46.3050   53.5710 C.3    18  PHE18       0.1736
     17  C         40.6560   46.8140   53.6560 C.2    18  PHE18       0.2595
     18  O         41.2650   46.8180   54.7500 O.2    18  PHE18      -0.2718
     19  CB        39.1460   44.8960   53.0170 C.3    18  PHE18       0.0547
     20  CG        39.8490   43.8940   53.8790 C.ar   18  PHE18      -0.0202
     21  CD1       39.2960   43.5150   55.1210 C.ar   18  PHE18      -0.0042
     22  CD2       41.0320   43.3190   53.4810 C.ar   18  PHE18      -0.0042
     23  CE1       39.9380   42.6020   55.9220 C.ar   18  PHE18      -0.0003
     24  CE2       41.6680   42.3910   54.2780 C.ar   18  PHE18      -0.0003
     25  CZ        41.1180   42.0260   55.4950 C.ar   18  PHE18      -0.0000
     26  N         41.2080   47.2160   52.5180 N.am   19  GLU19      -0.1979
     27  CA        42.5610   47.8130   52.4850 C.3    19  GLU19       0.1602
     28  C         42.6490   49.0180   53.3820 C.2    19  GLU19       0.2287
     29  O         43.6580   49.2110   54.0840 O.2    19  GLU19      -0.2864
     30  CB        42.9970   48.1560   51.0400 C.3    19  GLU19       0.0415
     31  CG        43.5750   47.0200   50.2070 C.3    19  GLU19       0.1163
     32  CD        42.5560   45.9450   49.7570 C.2    19  GLU19       0.3649
     33  OE1       41.3220   46.1780   49.8290 O.co2  19  GLU19      -0.2457
     34  OE2       43.0250   44.8710   49.3080 O.co2  19  GLU19      -0.2457
     35  N         47.1070   39.0230   53.7330 N.3    92  ASP92      -0.1225
     36  CA        45.8770   39.0090   52.9210 C.3    92  ASP92       0.1805
     37  C         46.1130   38.2810   51.6020 C.2    92  ASP92       0.2597
     38  O         45.7740   37.1140   51.4810 O.2    92  ASP92      -0.2718
     39  CB        45.2590   40.4130   52.7440 C.3    92  ASP92       0.1424
     40  CG        44.1140   40.4490   51.7600 C.2    92  ASP92       0.3668
     41  OD1       43.4110   39.4110   51.5910 O.co2  92  ASP92      -0.2456
     42  OD2       43.8780   41.5350   51.1820 O.co2  92  ASP92      -0.2456
     43  N         46.7120   38.9590   50.6310 N.am   93  ARG93      -0.1979
     44  CA        47.0780   38.3820   49.3690 C.3    93  ARG93       0.1597
     45  C         48.4490   37.7210   49.4530 C.2    93  ARG93       0.2287
     46  O         49.1710   37.8760   50.4450 O.2    93  ARG93      -0.2864
     47  CB        47.0790   39.4520   48.2750 C.3    93  ARG93       0.0334
     48  CG        45.6860   39.8840   47.8170 C.3    93  ARG93       0.0492
     49  CD        45.5390   41.3720   47.8310 C.3    93  ARG93       0.2205
     50  NE        44.2910   41.8920   47.2580 N.pl3  93  ARG93      -0.0865
     51  CZ        44.0970   42.1790   45.9660 C.cat  93  ARG93       0.5346
     52  NH1       45.0680   42.0290   45.0920 N.pl3  93  ARG93       0.1354
     53  NH2       42.9260   42.6600   45.5640 N.pl3  93  ARG93       0.1354
     54  N         43.4730   36.2410   47.1120 N.3   140  SER140     -0.1217
     55  CA        42.3420   36.2360   48.0140 C.3   140  SER140      0.1889
     56  C         41.0830   35.8330   47.2170 C.2   140  SER140      0.2288
     57  O         40.2760   35.0240   47.6930 O.2   140  SER140     -0.2866
     58  CB        42.1860   37.5720   48.7320 C.3   140  SER140      0.2089
     59  OG        42.1650   38.6250   47.7980 O.3   140  SER140     -0.2183
     60  N         39.3980   31.9720   47.7250 N.3   144  ARG144     -0.1245
     61  CA        38.0780   32.0700   48.3440 C.3   144  ARG144      0.1563
     62  C         37.0170   31.5120   47.3850 C.2   144  ARG144      0.2260
     63  O         36.1150   30.7370   47.8070 O.2   144  ARG144     -0.2867
     64  CB        37.7580   33.5200   48.7080 C.3   144  ARG144      0.0307
     65  CG        36.6130   33.7030   49.7030 C.3   144  ARG144      0.0489
     66  CD        36.4030   35.1810   50.0200 C.3   144  ARG144      0.2205
     67  NE        37.6010   35.7210   50.6440 N.pl3 144  ARG144     -0.0865
     68  CZ        37.9430   37.0100   50.6670 C.cat 144  ARG144      0.5346
     69  NH1       37.1170   37.9400   50.1900 N.pl3 144  ARG144      0.1354
     70  NH2       39.0890   37.3670   51.2550 N.pl3 144  ARG144      0.1354
     71  N         35.9550   43.2280   43.0560 N.3   169  TRP169     -0.1241
     72  CA        35.7710   43.6300   44.4490 C.3   169  TRP169      0.1605
     73  C         34.9760   44.9100   44.6740 C.2   169  TRP169      0.2264
     74  O         34.8170   45.3220   45.8230 O.2   169  TRP169     -0.2867
     75  CB        37.0760   43.7820   45.1960 C.3   169  TRP169      0.0550
     76  CG        38.0310   42.5830   45.2720 C.ar  169  TRP169      0.0003
     77  CD1       39.3110   42.5760   44.8500 C.ar  169  TRP169      0.0946
     78  CD2       37.8070   41.2990   45.8870 C.ar  169  TRP169      0.0152
     79  NE1       39.9080   41.3900   45.1310 N.ar  169  TRP169     -0.2442
     80  CE2       39.0100   40.5680   45.7590 C.ar  169  TRP169      0.0810
     81  CE3       36.7190   40.6940   46.5090 C.ar  169  TRP169      0.0012
     82  CZ2       39.1660   39.2920   46.2530 C.ar  169  TRP169      0.0191
     83  CZ3       36.8760   39.4280   47.0020 C.ar  169  TRP169      0.0001
     84  CH2       38.0900   38.7280   46.8780 C.ar  169  TRP169      0.0015
     85  N         32.9450   39.4130   48.4690 N.3   196  ASN196     -0.1240
     86  CA        33.1780   40.3270   49.5580 C.3   196  ASN196      0.1653
     87  C         31.9660   41.1710   49.9270 C.2   196  ASN196      0.2266
     88  O         30.9390   41.1680   49.2410 O.2   196  ASN196     -0.2867
     89  CB        34.3920   41.2530   49.2230 C.3   196  ASN196      0.1155
     90  CG        34.0710   42.3380   48.1980 C.2   196  ASN196      0.2627
     91  OD1       33.0580   42.3370   47.5100 O.2   196  ASN196     -0.2716
     92  ND2       34.9790   43.3180   48.1030 N.am  196  ASN196     -0.0877
     93  N         34.2060   40.0330   54.9520 N.3   223  ASP223     -0.1239
     94  CA        35.0560   41.1440   55.4620 C.3   223  ASP223      0.1674
     95  C         34.5790   41.7240   56.7960 C.2   223  ASP223      0.2266
     96  O         35.3470   42.3590   57.4960 O.2   223  ASP223     -0.2867
     97  CB        35.2120   42.3110   54.4820 C.3   223  ASP223      0.1410
     98  CG        36.1660   42.0130   53.3420 C.2   223  ASP223      0.3668
     99  OD1       36.9140   41.0060   53.3850 O.co2 223  ASP223     -0.2456
    100  OD2       36.1520   42.8260   52.3970 O.co2 223  ASP223     -0.2456
    101  N         37.6920   38.0600   58.6580 N.3   243  GLN243     -0.1245
    102  CA        39.0470   37.5460   58.4550 C.3   243  GLN243      0.1566
    103  C         40.0810   38.2670   59.3540 C.2   243  GLN243      0.2260
    104  O         41.2790   38.0710   59.1800 O.2   243  GLN243     -0.2867
    105  CB        39.4420   37.6130   56.9630 C.3   243  GLN243      0.0367
    106  CG        39.3230   38.9630   56.2840 C.3   243  GLN243      0.0905
    107  CD        40.0160   38.9880   54.9310 C.2   243  GLN243      0.2608
    108  OE1       41.1050   38.4160   54.7660 O.2   243  GLN243     -0.2717
    109  NE2       39.3730   39.6070   53.9430 N.am  243  GLN243     -0.0878
@<TRIPOS>BOND
     1    71    72    1
     2    72    73    1
     3    72    75    1
     4    73    74    2
     5    77    79   ar
     6    77    76   ar
     7    52    51    1
     8    79    80   ar
     9    75    76    1
    10    76    78   ar
    11    53    51    1
    12    80    78   ar
    13    80    82   ar
    14    78    81   ar
    15     5     6    1
    16     5     2    1
    17    51    50    2
    18    82    84   ar
    19     8     6   am
    20    81    83   ar
    21     6     7    2
    22     2     1    1
    23     2     3    1
    24    84    83   ar
    25    14    13    1
    26    54    55    1
    27    56    57    2
    28    56    55    1
    29    50    49    1
    30    62    63    2
    31    62    61    1
    32    91    90    2
    33    60    61    1
    34    59    58    1
    35    48    49    1
    36    48    47    1
    37    55    58    1
    38    92    90   am
    39     3     4    2
    40    90    89    1
    41    47    44    1
    42    61    64    1
    43     9    10    1
    44    85    86    1
    45    13    10    1
    46    64    65    1
    47    10    11    1
    48    89    86    1
    49    88    87    2
    50    34    32   ar
    51    44    45    1
    52    44    43    1
    53    45    46    2
    54    86    87    1
    55    65    66    1
    56    32    33   ar
    57    32    31    1
    58    66    67    1
    59    69    68    1
    60    31    30    1
    61    11    12    2
    62    43    37   am
    63    67    68    2
    64    68    70    1
    65    30    27    1
    66    42    40   ar
    67    38    37    2
    68    41    40   ar
    69    37    36    1
    70    40    39    1
    71   100    98   ar
    72    27    26    1
    73    27    28    1
    74    26    17   am
    75    39    36    1
    76    15    16    1
    77    36    35    1
    78    19    16    1
    79    19    20    1
    80    98    99   ar
    81    98    97    1
    82    28    29    2
    83    22    20   ar
    84    22    24   ar
    85    16    17    1
    86    17    18    2
    87    20    21   ar
    88   109   107   am
    89    24    25   ar
    90    97    94    1
    91   108   107    2
    92   107   106    1
    93    93    94    1
    94    21    23   ar
    95    94    95    1
    96    25    23   ar
    97   106   105    1
    98    95    96    2
    99   105   102    1
   100   102   101    1
   101   102   103    1
   102   104   103    2
