@<TRIPOS>MOLECULE
tmp/4rxqB02.pdb
 123 123 0 0 0
SMALL
GASTEIGER

@<TRIPOS>ATOM
      1  N         39.1320    7.7920   21.8080 N.3    53  TYR53      -0.1227
      2  CA        38.6340    9.1390   22.0670 C.3    53  TYR53       0.1736
      3  C         37.1050    9.1750   22.2760 C.2    53  TYR53       0.2595
      4  O         36.6000   10.0890   22.9080 O.2    53  TYR53      -0.2718
      5  CB        38.9710   10.0590   20.9060 C.3    53  TYR53       0.0548
      6  CG        38.5040   11.5090   20.9770 C.ar   53  TYR53      -0.0200
      7  CD1       38.6220   12.2510   22.1330 C.ar   53  TYR53      -0.0009
      8  CD2       38.0070   12.1470   19.8460 C.ar   53  TYR53      -0.0009
      9  CE1       38.2220   13.5660   22.1880 C.ar   53  TYR53       0.0417
     10  CE2       37.6240   13.4710   19.8750 C.ar   53  TYR53       0.0417
     11  CZ        37.7130   14.1750   21.0620 C.ar   53  TYR53       0.1957
     12  OH        37.3420   15.4900   21.1290 O.3    53  TYR53      -0.2866
     13  N         36.4010    8.2370   21.6440 N.am   54  TYR54      -0.1962
     14  CA        34.9360    8.1620   21.7510 C.3    54  TYR54       0.1771
     15  C         34.4620    7.5120   23.0640 C.2    54  TYR54       0.2619
     16  O         33.2470    7.4330   23.3230 O.2    54  TYR54      -0.2715
     17  CB        34.3550    7.4580   20.5030 C.3    54  TYR54       0.0574
     18  CG        34.5520    8.2970   19.2620 C.ar   54  TYR54      -0.0198
     19  CD1       35.7250    8.1780   18.4890 C.ar   54  TYR54      -0.0009
     20  CD2       33.6120    9.2300   18.8710 C.ar   54  TYR54      -0.0009
     21  CE1       35.9280    8.9750   17.3760 C.ar   54  TYR54       0.0417
     22  CE2       33.8130   10.0370   17.7610 C.ar   54  TYR54       0.0417
     23  CZ        34.9790    9.8930   17.0070 C.ar   54  TYR54       0.1957
     24  OH        35.1860   10.6840   15.8960 O.3    54  TYR54      -0.2866
     25  N         35.4170    7.0640   23.8900 N.am   55  VAL55      -0.1977
     26  CA        35.1470    6.5350   25.2480 C.3    55  VAL55       0.1596
     27  C         35.8370    7.3640   26.3440 C.2    55  VAL55       0.2287
     28  O         35.2490    7.6450   27.4190 O.2    55  VAL55      -0.2864
     29  CB        35.5650    5.0670   25.3290 C.3    55  VAL55       0.0276
     30  CG1       35.3550    4.4890   26.7250 C.3    55  VAL55       0.0022
     31  CG2       34.7850    4.2500   24.3150 C.3    55  VAL55       0.0022
     32  N         37.2050   11.0200   26.7480 N.3    57  PRO57      -0.2116
     33  CA        37.2210   12.3000   26.0730 C.3    57  PRO57       0.1372
     34  C         38.5390   13.0760   26.1500 C.2    57  PRO57       0.2244
     35  O         38.6850   14.0700   25.4610 O.2    57  PRO57      -0.2868
     36  CB        36.1370   13.0890   26.7960 C.3    57  PRO57       0.0268
     37  CG        36.0430   12.4740   28.1430 C.3    57  PRO57       0.0207
     38  CD        36.3040   11.0190   27.9110 C.3    57  PRO57       0.0892
     39  N         39.1970   -1.4320   25.6210 N.3   270  HIS270     -0.1226
     40  CA        37.8820   -1.1210   26.2200 C.3   270  HIS270      0.1752
     41  C         36.7950   -1.6880   25.3000 C.2   270  HIS270      0.2596
     42  O         36.8190   -1.4760   24.0890 O.2   270  HIS270     -0.2718
     43  CB        37.6880    0.3690   26.3740 C.3   270  HIS270      0.0759
     44  CG        36.4650    0.7420   27.1550 C.ar  270  HIS270      0.0818
     45  ND1       35.2170    0.8560   26.5790 N.ar  270  HIS270     -0.2268
     46  CD2       36.3040    1.0460   28.4670 C.ar  270  HIS270      0.1154
     47  CE1       34.3360    1.1980   27.5050 C.ar  270  HIS270      0.1986
     48  NE2       34.9710    1.3230   28.6590 N.ar  270  HIS270     -0.2212
     49  N         35.8390   -2.3930   25.8860 N.am  271  LYS271     -0.1966
     50  CA        34.8310   -3.1180   25.0940 C.3   271  LYS271      0.1728
     51  C         34.0430   -2.2130   24.1460 C.2   271  LYS271      0.2616
     52  O         33.7260   -2.6180   23.0240 O.2   271  LYS271     -0.2715
     53  CB        33.9010   -3.9010   26.0170 C.3   271  LYS271      0.0311
     54  CG        33.1010   -3.0180   26.9580 C.3   271  LYS271      0.0038
     55  CD        32.4500   -3.8270   28.0680 C.3   271  LYS271      0.0206
     56  CE        31.1850   -3.1450   28.5810 C.3   271  LYS271      0.1093
     57  NZ        31.4730   -1.8120   29.1780 N.3   271  LYS271     -0.1314
     58  N         33.7550   -0.9990   24.5870 N.am  272  VAL272     -0.1977
     59  CA        33.0890   -0.0150   23.7590 C.3   272  VAL272      0.1596
     60  C         34.0260    0.6830   22.7510 C.2   272  VAL272      0.2287
     61  O         33.6440    0.9180   21.6050 O.2   272  VAL272     -0.2864
     62  CB        32.3430    1.0420   24.5800 C.3   272  VAL272      0.0276
     63  CG1       31.6250    2.0060   23.6510 C.3   272  VAL272      0.0022
     64  CG2       31.3360    0.3850   25.5160 C.3   272  VAL272      0.0022
     65  N         34.2790   -1.6250   19.8530 N.3   275  ILE275     -0.1245
     66  CA        33.1090   -1.7300   19.0070 C.3   275  ILE275      0.1561
     67  C         33.0080   -0.4800   18.1580 C.2   275  ILE275      0.2260
     68  O         32.5530   -0.5250   17.0290 O.2   275  ILE275     -0.2867
     69  CB        31.8090   -2.0420   19.7920 C.3   275  ILE275      0.0252
     70  CG1       30.8350   -2.8170   18.9070 C.3   275  ILE275      0.0019
     71  CG2       31.1490   -0.7780   20.2770 C.3   275  ILE275      0.0019
     72  CD1       31.3640   -4.1590   18.4300 C.3   275  ILE275      0.0001
     73  N         24.9560    7.4860   19.1060 N.3   345  ARG345     -0.1245
     74  CA        25.2960    6.5260   20.1350 C.3   345  ARG345      0.1563
     75  C         24.3680    5.3350   20.0910 C.2   345  ARG345      0.2260
     76  O         24.0620    4.7160   21.1140 O.2   345  ARG345     -0.2867
     77  CB        25.3010    7.1680   21.5260 C.3   345  ARG345      0.0307
     78  CG        26.2750    6.4760   22.4680 C.3   345  ARG345      0.0489
     79  CD        27.7030    6.9520   22.1650 C.3   345  ARG345      0.2205
     80  NE        28.6630    6.3480   23.0700 N.pl3 345  ARG345     -0.0865
     81  CZ        29.9730    6.6090   23.0720 C.cat 345  ARG345      0.5346
     82  NH1       30.5130    7.4830   22.2070 N.pl3 345  ARG345      0.1354
     83  NH2       30.7320    5.9860   23.9510 N.pl3 345  ARG345      0.1354
     84  N         25.0240    2.1950   19.2460 N.3   347  LEU347     -0.1231
     85  CA        26.1420    1.2780   19.0300 C.3   347  LEU347      0.1693
     86  C         25.7120   -0.1530   19.1440 C.2   347  LEU347      0.2592
     87  O         24.7330   -0.4650   19.8140 O.2   347  LEU347     -0.2718
     88  CB        27.2490    1.5180   20.0670 C.3   347  LEU347      0.0284
     89  CG        27.6670    2.9600   20.2950 C.3   347  LEU347      0.0019
     90  CD1       28.8390    3.0060   21.2660 C.3   347  LEU347      0.0001
     91  CD2       28.0240    3.6650   18.9980 C.3   347  LEU347      0.0001
     92  N         26.4730   -1.0420   18.5270 N.am  348  PHE348     -0.1962
     93  CA        26.2440   -2.4430   18.7320 C.3   348  PHE348      0.1771
     94  C         26.3180   -2.7140   20.2340 C.2   348  PHE348      0.2619
     95  O         27.0400   -2.0380   20.9780 O.2   348  PHE348     -0.2715
     96  CB        27.2310   -3.3200   17.9770 C.3   348  PHE348      0.0574
     97  CG        27.2780   -3.0740   16.4920 C.ar  348  PHE348     -0.0200
     98  CD1       26.1740   -2.6150   15.7910 C.ar  348  PHE348     -0.0042
     99  CD2       28.4330   -3.3710   15.7830 C.ar  348  PHE348     -0.0042
    100  CE1       26.2350   -2.4200   14.4200 C.ar  348  PHE348     -0.0003
    101  CE2       28.5030   -3.1730   14.4190 C.ar  348  PHE348     -0.0003
    102  CZ        27.4020   -2.6960   13.7310 C.ar  348  PHE348     -0.0000
    103  N         25.5420   -3.6880   20.6840 N.am  349  LYS349     -0.1963
    104  CA        25.3880   -3.9140   22.1080 C.3   349  LYS349      0.1728
    105  C         26.3500   -4.9700   22.6120 C.2   349  LYS349      0.2616
    106  O         26.4780   -6.0340   22.0330 O.2   349  LYS349     -0.2715
    107  CB        23.9300   -4.2770   22.4430 C.3   349  LYS349      0.0311
    108  CG        22.9770   -3.0860   22.4780 C.3   349  LYS349      0.0038
    109  CD        23.3750   -2.1240   23.5850 C.3   349  LYS349      0.0206
    110  CE        22.6650   -0.7980   23.4810 C.3   349  LYS349      0.1093
    111  NZ        23.3000    0.1830   24.4140 N.3   349  LYS349     -0.1314
    112  N         27.0360   -4.6560   23.7040 N.am  350  TYR350     -0.1974
    113  CA        27.9490   -5.6100   24.3330 C.3   350  TYR350      0.1639
    114  C         27.1270   -6.6860   25.0180 C.2   350  TYR350      0.2290
    115  O         26.2390   -6.3720   25.7910 O.2   350  TYR350     -0.2864
    116  CB        28.8200   -4.8880   25.3550 C.3   350  TYR350      0.0560
    117  CG        29.6620   -5.7880   26.2260 C.ar  350  TYR350     -0.0198
    118  CD1       30.7790   -6.4300   25.7090 C.ar  350  TYR350     -0.0009
    119  CD2       29.3710   -5.9670   27.5870 C.ar  350  TYR350     -0.0009
    120  CE1       31.5850   -7.2310   26.5000 C.ar  350  TYR350      0.0417
    121  CE2       30.1770   -6.7760   28.3880 C.ar  350  TYR350      0.0417
    122  CZ        31.2900   -7.3920   27.8340 C.ar  350  TYR350      0.1957
    123  OH        32.1100   -8.2010   28.5940 O.3   350  TYR350     -0.2866
@<TRIPOS>BOND
     1   102   101   ar
     2   102   100   ar
     3   101    99   ar
     4   100    98   ar
     5    99    97   ar
     6    98    97   ar
     7    24    23    1
     8    97    96    1
     9    23    21   ar
    10    23    22   ar
    11    68    67    2
    12    21    19   ar
    13    22    20   ar
    14    96    93    1
    15    67    66    1
    16    72    70    1
    17    19    18   ar
    18    92    93    1
    19    92    86   am
    20    93    94    1
    21    20    18   ar
    22    70    69    1
    23    91    89    1
    24    66    69    1
    25    66    65    1
    26    85    86    1
    27    85    84    1
    28    85    88    1
    29    73    74    1
    30    86    87    2
    31    18    17    1
    32    69    71    1
    33     8    10   ar
    34     8     6   ar
    35    10    11   ar
    36    88    89    1
    37    75    74    1
    38    75    76    2
    39    74    77    1
    40    94   103   am
    41    94    95    2
    42    89    90    1
    43    17    14    1
    44   103   104    1
    45     5     6    1
    46     5     2    1
    47     6     7   ar
    48    11    12    1
    49    11     9   ar
    50    77    78    1
    51    61    60    2
    52    13    14    1
    53    13     3   am
    54    14    15    1
    55     1     2    1
    56   106   105    2
    57     2     3    1
    58   104   107    1
    59   104   105    1
    60     7     9   ar
    61    79    78    1
    62    79    80    1
    63    82    81    1
    64     3     4    2
    65   107   108    1
    66   108   109    1
    67   105   112   am
    68    60    59    1
    69    52    51    2
    70    15    16    2
    71    15    25   am
    72    80    81    2
    73    81    83    1
    74   110   109    1
    75   110   111    1
    76    63    62    1
    77   112   113    1
    78    59    62    1
    79    59    58    1
    80    25    26    1
    81    42    41    2
    82    51    58   am
    83    51    50    1
    84    31    29    1
    85   113   114    1
    86   113   116    1
    87    62    64    1
    88   114   115    2
    89    50    49    1
    90    50    53    1
    91    26    29    1
    92    26    27    1
    93    41    49   am
    94    41    40    1
    95    29    30    1
    96   116   117    1
    97    35    34    2
    98    39    40    1
    99   118   117   ar
   100   118   120   ar
   101    53    54    1
   102    33    34    1
   103    33    32    1
   104    33    36    1
   105    40    43    1
   106   117   119   ar
   107    27    28    2
   108    43    44    1
   109   120   122   ar
   110    45    44   ar
   111    45    47   ar
   112    32    38    1
   113    36    37    1
   114    54    55    1
   115    44    46   ar
   116    47    48   ar
   117   119   121   ar
   118   122   121   ar
   119   122   123    1
   120    38    37    1
   121    55    56    1
   122    46    48   ar
   123    56    57    1
