@<TRIPOS>MOLECULE
tmp/4rxqB04.pdb
 93 92 0 0 0
SMALL
GASTEIGER

@<TRIPOS>ATOM
      1  N         35.4170    7.0640   23.8900 N.3    55  VAL55      -0.1231
      2  CA        35.1470    6.5350   25.2480 C.3    55  VAL55       0.1692
      3  C         35.8370    7.3640   26.3440 C.2    55  VAL55       0.2592
      4  O         35.2490    7.6450   27.4190 O.2    55  VAL55      -0.2718
      5  CB        35.5650    5.0670   25.3290 C.3    55  VAL55       0.0266
      6  CG1       35.3550    4.4890   26.7250 C.3    55  VAL55       0.0020
      7  CG2       34.7850    4.2500   24.3150 C.3    55  VAL55       0.0020
      8  N         37.0630    7.7930   26.0430 N.am   56  PHE56      -0.1963
      9  CA        37.8560    8.6480   26.9010 C.3    56  PHE56       0.1756
     10  C         37.9880   10.0340   26.2820 C.2    56  PHE56       0.2461
     11  O         38.8300   10.2430   25.4010 O.2    56  PHE56      -0.2730
     12  CB        39.2610    8.0310   27.0530 C.3    56  PHE56       0.0574
     13  CG        39.3050    6.7580   27.8350 C.ar   56  PHE56      -0.0200
     14  CD1       39.5970    6.7780   29.1910 C.ar   56  PHE56      -0.0042
     15  CD2       39.0960    5.5420   27.2360 C.ar   56  PHE56      -0.0042
     16  CE1       39.6450    5.6130   29.9230 C.ar   56  PHE56      -0.0003
     17  CE2       39.1400    4.3690   27.9710 C.ar   56  PHE56      -0.0003
     18  CZ        39.4250    4.4090   29.3180 C.ar   56  PHE56      -0.0000
     19  N         37.2050   11.0200   26.7480 N.am   57  PRO57      -0.2727
     20  CA        37.2210   12.3000   26.0730 C.3    57  PRO57       0.1402
     21  C         38.5390   13.0760   26.1500 C.2    57  PRO57       0.2269
     22  O         38.6850   14.0700   25.4610 O.2    57  PRO57      -0.2865
     23  CB        36.1370   13.0890   26.7960 C.3    57  PRO57       0.0296
     24  CG        36.0430   12.4740   28.1430 C.3    57  PRO57       0.0237
     25  CD        36.3040   11.0190   27.9110 C.3    57  PRO57       0.0939
     26  N         44.2380   10.0730   29.1380 N.3   217  LEU217     -0.1231
     27  CA        43.1700    9.1720   29.4930 C.3   217  LEU217      0.1693
     28  C         42.5470    9.5170   30.8740 C.2   217  LEU217      0.2593
     29  O         41.3730    9.2590   31.1050 O.2   217  LEU217     -0.2718
     30  CB        43.6740    7.7590   29.5060 C.3   217  LEU217      0.0284
     31  CG        43.9660    7.0550   28.1880 C.3   217  LEU217      0.0019
     32  CD1       44.7370    5.7830   28.4720 C.3   217  LEU217      0.0001
     33  CD2       42.6780    6.7470   27.4330 C.3   217  LEU217      0.0001
     34  N         43.3360   10.0960   31.7720 N.am  218  GLY218     -0.1942
     35  CA        42.9110   10.2760   33.1590 C.3   218  GLY218      0.2014
     36  C         43.1110    9.0010   33.9610 C.2   218  GLY218      0.2638
     37  O         42.3530    8.7110   34.8800 O.2   218  GLY218     -0.2714
     38  N         44.1150    8.2240   33.5720 N.am  219  ILE219     -0.1977
     39  CA        44.6000    7.0790   34.3400 C.3   219  ILE219      0.1596
     40  C         46.0360    7.4020   34.6700 C.2   219  ILE219      0.2287
     41  O         46.7460    7.9590   33.8290 O.2   219  ILE219     -0.2864
     42  CB        44.6340    5.8010   33.5150 C.3   219  ILE219      0.0276
     43  CG1       43.2310    5.3900   33.0800 C.3   219  ILE219      0.0022
     44  CG2       45.3120    4.6840   34.3050 C.3   219  ILE219      0.0022
     45  CD1       43.2650    4.3120   32.0200 C.3   219  ILE219      0.0001
     46  N         43.9660   -3.3730   29.2080 N.3   265  ARG265     -0.1231
     47  CA        42.7690   -3.8020   29.8850 C.3   265  ARG265      0.1694
     48  C         41.7810   -2.6630   30.1320 C.2   265  ARG265      0.2591
     49  O         40.6090   -2.7870   29.8270 O.2   265  ARG265     -0.2718
     50  CB        43.1320   -4.4750   31.2050 C.3   265  ARG265      0.0321
     51  CG        41.9430   -5.0800   31.9270 C.3   265  ARG265      0.0489
     52  CD        42.3530   -5.7160   33.2580 C.3   265  ARG265      0.2205
     53  NE        42.9300   -4.7570   34.2150 N.pl3 265  ARG265     -0.0865
     54  CZ        42.2410   -3.8280   34.8820 C.cat 265  ARG265      0.5346
     55  NH1       40.9300   -3.6880   34.7000 N.pl3 265  ARG265      0.1354
     56  NH2       42.8670   -3.0190   35.7340 N.pl3 265  ARG265      0.1354
     57  N         42.2560   -1.5590   30.6840 N.am  266  ARG266     -0.1980
     58  CA        41.3900   -0.4600   31.0450 C.3   266  ARG266      0.1597
     59  C         40.9720    0.3970   29.8610 C.2   266  ARG266      0.2287
     60  O         39.8290    0.8650   29.7990 O.2   266  ARG266     -0.2864
     61  CB        42.0770    0.4610   32.0560 C.3   266  ARG266      0.0334
     62  CG        42.2390   -0.1420   33.4190 C.3   266  ARG266      0.0492
     63  CD        42.9240    0.8270   34.3480 C.3   266  ARG266      0.2205
     64  NE        43.2950    0.1520   35.5780 N.pl3 266  ARG266     -0.0865
     65  CZ        44.0280    0.6830   36.5500 C.cat 266  ARG266      0.5346
     66  NH1       44.4870    1.9270   36.4390 N.pl3 266  ARG266      0.1354
     67  NH2       44.3110   -0.0360   37.6320 N.pl3 266  ARG266      0.1354
     68  N         39.1970   -1.4320   25.6210 N.3   270  HIS270     -0.1226
     69  CA        37.8820   -1.1210   26.2200 C.3   270  HIS270      0.1752
     70  C         36.7950   -1.6880   25.3000 C.2   270  HIS270      0.2596
     71  O         36.8190   -1.4760   24.0890 O.2   270  HIS270     -0.2718
     72  CB        37.6880    0.3690   26.3740 C.3   270  HIS270      0.0759
     73  CG        36.4650    0.7420   27.1550 C.ar  270  HIS270      0.0818
     74  ND1       35.2170    0.8560   26.5790 N.ar  270  HIS270     -0.2268
     75  CD2       36.3040    1.0460   28.4670 C.ar  270  HIS270      0.1154
     76  CE1       34.3360    1.1980   27.5050 C.ar  270  HIS270      0.1986
     77  NE2       34.9710    1.3230   28.6590 N.ar  270  HIS270     -0.2212
     78  N         35.8390   -2.3930   25.8860 N.am  271  LYS271     -0.1966
     79  CA        34.8310   -3.1180   25.0940 C.3   271  LYS271      0.1728
     80  C         34.0430   -2.2130   24.1460 C.2   271  LYS271      0.2616
     81  O         33.7260   -2.6180   23.0240 O.2   271  LYS271     -0.2715
     82  CB        33.9010   -3.9010   26.0170 C.3   271  LYS271      0.0311
     83  CG        33.1010   -3.0180   26.9580 C.3   271  LYS271      0.0038
     84  CD        32.4500   -3.8270   28.0680 C.3   271  LYS271      0.0206
     85  CE        31.1850   -3.1450   28.5810 C.3   271  LYS271      0.1093
     86  NZ        31.4730   -1.8120   29.1780 N.3   271  LYS271     -0.1314
     87  N         33.7550   -0.9990   24.5870 N.am  272  VAL272     -0.1977
     88  CA        33.0890   -0.0150   23.7590 C.3   272  VAL272      0.1596
     89  C         34.0260    0.6830   22.7510 C.2   272  VAL272      0.2287
     90  O         33.6440    0.9180   21.6050 O.2   272  VAL272     -0.2864
     91  CB        32.3430    1.0420   24.5800 C.3   272  VAL272      0.0276
     92  CG1       31.6250    2.0060   23.6510 C.3   272  VAL272      0.0022
     93  CG2       31.3360    0.3850   25.5160 C.3   272  VAL272      0.0022
@<TRIPOS>BOND
     1    90    89    2
     2    89    88    1
     3    81    80    2
     4    92    91    1
     5    88    91    1
     6    88    87    1
     7     1     2    1
     8    71    70    2
     9    80    87   am
    10    80    79    1
    11     7     5    1
    12    91    93    1
    13    79    78    1
    14    79    82    1
    15     2     5    1
    16     2     3    1
    17    70    78   am
    18    70    69    1
    19     5     6    1
    20    11    10    2
    21    22    21    2
    22    68    69    1
    23    82    83    1
    24     8     3   am
    25     8     9    1
    26    20    21    1
    27    20    19    1
    28    20    23    1
    29    69    72    1
    30    10    19   am
    31    10     9    1
    32     3     4    2
    33    72    73    1
    34    74    73   ar
    35    74    76   ar
    36    19    25    1
    37    23    24    1
    38     9    12    1
    39    83    84    1
    40    12    13    1
    41    73    75   ar
    42    15    13   ar
    43    15    17   ar
    44    33    31    1
    45    76    77   ar
    46    13    14   ar
    47    25    24    1
    48    17    18   ar
    49    84    85    1
    50    31    32    1
    51    31    30    1
    52    75    77   ar
    53    85    86    1
    54    26    27    1
    55    14    16   ar
    56    46    47    1
    57    18    16   ar
    58    27    30    1
    59    27    28    1
    60    60    59    2
    61    49    48    2
    62    59    58    1
    63    47    48    1
    64    47    50    1
    65    48    57   am
    66    57    58    1
    67    28    29    2
    68    28    34   am
    69    58    61    1
    70    50    51    1
    71    34    35    1
    72    51    52    1
    73    45    43    1
    74    61    62    1
    75    43    42    1
    76    35    36    1
    77    52    53    1
    78    62    63    1
    79    42    44    1
    80    42    39    1
    81    38    36   am
    82    38    39    1
    83    41    40    2
    84    36    37    2
    85    53    54    2
    86    39    40    1
    87    63    64    1
    88    55    54    1
    89    54    56    1
    90    64    65    2
    91    66    65    1
    92    65    67    1
