@<TRIPOS>MOLECULE
tmp/4rxqB00.pdb
 94 88 0 0 0
SMALL
GASTEIGER

@<TRIPOS>ATOM
      1  N         66.0710   24.6810   18.2240 N.3    15  LYS15      -0.1231
      2  CA        64.6710   25.0060   18.4550 C.3    15  LYS15       0.1693
      3  C         64.2820   24.2960   19.7450 C.2    15  LYS15       0.2592
      4  O         64.6710   23.1540   19.9830 O.2    15  LYS15      -0.2718
      5  CB        63.7020   24.5720   17.3450 C.3    15  LYS15       0.0285
      6  CG        63.6710   25.4910   16.1430 C.3    15  LYS15       0.0035
      7  CD        62.3410   25.4120   15.4050 C.3    15  LYS15       0.0206
      8  CE        62.3890   26.3020   14.1870 C.3    15  LYS15       0.1093
      9  NZ        62.4130   27.7440   14.5270 N.3    15  LYS15      -0.1314
     10  N         63.5220   25.0100   20.5570 N.am   16  VAL16      -0.1966
     11  CA        62.9650   24.4650   21.7840 C.3    16  VAL16       0.1727
     12  C         61.4440   24.3300   21.5910 C.2    16  VAL16       0.2616
     13  O         60.7880   25.2550   21.0830 O.2    16  VAL16      -0.2715
     14  CB        63.2890   25.3840   22.9780 C.3    16  VAL16       0.0290
     15  CG1       62.6090   24.8930   24.2400 C.3    16  VAL16       0.0023
     16  CG2       64.8010   25.4370   23.2020 C.3    16  VAL16       0.0023
     17  N         60.9230   23.1760   21.9840 N.am   17  ILE17      -0.1963
     18  CA        59.4910   22.8820   21.9320 C.3    17  ILE17       0.1727
     19  C         59.0070   22.4150   23.3070 C.2    17  ILE17       0.2616
     20  O         59.6750   21.6100   23.9720 O.2    17  ILE17      -0.2715
     21  CB        59.1640   21.8410   20.8330 C.3    17  ILE17       0.0290
     22  CG1       57.6450   21.6820   20.6550 C.3    17  ILE17       0.0022
     23  CG2       59.7980   20.4970   21.1200 C.3    17  ILE17       0.0023
     24  CD1       57.2640   21.1400   19.2820 C.3    17  ILE17       0.0001
     25  N         57.8460   22.9240   23.7170 N.am   18  ASN18      -0.1972
     26  CA        57.2400   22.5490   24.9980 C.3    18  ASN18       0.1688
     27  C         56.2070   21.4370   24.8250 C.2    18  ASN18       0.2292
     28  O         55.1500   21.6260   24.2220 O.2    18  ASN18      -0.2864
     29  CB        56.5970   23.7460   25.6560 C.3    18  ASN18       0.1181
     30  CG        56.1220   23.4590   27.0840 C.2    18  ASN18       0.2629
     31  OD1       56.3740   22.3990   27.6310 O.2    18  ASN18      -0.2716
     32  ND2       55.4600   24.4310   27.6870 N.am   18  ASN18      -0.0877
     33  N         65.2510   20.4840   19.7830 N.3    27  LEU27      -0.1245
     34  CA        65.2500   19.7640   18.4990 C.3    27  LEU27       0.1561
     35  C         66.4360   20.1950   17.6240 C.2    27  LEU27       0.2260
     36  O         66.5150   21.3390   17.2100 O.2    27  LEU27      -0.2867
     37  CB        63.9510   20.0160   17.7340 C.3    27  LEU27       0.0270
     38  CG        62.6630   19.6060   18.4610 C.3    27  LEU27       0.0019
     39  CD1       61.4230   20.1050   17.7180 C.3    27  LEU27       0.0001
     40  CD2       62.6410   18.1030   18.6550 C.3    27  LEU27       0.0001
     41  N         64.3350   19.0080   12.9520 N.3    32  VAL32      -0.1245
     42  CA        63.3810   20.0180   12.5120 C.3    32  VAL32       0.1561
     43  C         63.0680   19.8840   11.0120 C.2    32  VAL32       0.2260
     44  O         61.9020   19.9450   10.5920 O.2    32  VAL32      -0.2867
     45  CB        63.8810   21.4280   12.8280 C.3    32  VAL32       0.0252
     46  CG1       62.9590   22.4880   12.2460 C.3    32  VAL32       0.0019
     47  CG2       63.9940   21.6160   14.3360 C.3    32  VAL32       0.0019
     48  N         60.8320   17.0320   10.4810 N.3    35  ILE35      -0.1231
     49  CA        59.5200   17.2710   11.1060 C.3    35  ILE35       0.1692
     50  C         58.6400   18.1560   10.2300 C.2    35  ILE35       0.2592
     51  O         57.4340   17.9180   10.0570 O.2    35  ILE35      -0.2718
     52  CB        59.7310   17.8770   12.5150 C.3    35  ILE35       0.0266
     53  CG1       60.1250   16.7410   13.4810 C.3    35  ILE35       0.0019
     54  CG2       58.4830   18.5820   13.0240 C.3    35  ILE35       0.0020
     55  CD1       60.7650   17.2280   14.7580 C.3    35  ILE35       0.0001
     56  N         59.2540   19.1760    9.6540 N.am   36  ASP36      -0.1974
     57  CA        58.5300   20.1530    8.8670 C.3    36  ASP36       0.1709
     58  C         58.3580   19.7100    7.3920 C.2    36  ASP36       0.2293
     59  O         58.7540   20.4010    6.4630 O.2    36  ASP36      -0.2864
     60  CB        59.2020   21.5070    9.0210 C.3    36  ASP36       0.1436
     61  CG        58.9780   22.1060   10.4150 C.2    36  ASP36       0.3671
     62  OD1       57.9710   21.7380   11.0860 O.co2  36  ASP36      -0.2456
     63  OD2       59.7890   22.9540   10.8590 O.co2  36  ASP36      -0.2456
     64  N         54.1200   15.8980    9.2870 N.3    41  GLN41      -0.1245
     65  CA        53.0070   16.6860    9.7430 C.3    41  GLN41       0.1566
     66  C         51.6590   15.9610    9.6270 C.2    41  GLN41       0.2260
     67  O         50.7210   16.2940   10.3450 O.2    41  GLN41      -0.2867
     68  CB        52.9430   18.0160    9.0170 C.3    41  GLN41       0.0367
     69  CG        54.1000   18.9470    9.3340 C.3    41  GLN41       0.0905
     70  CD        54.1300   19.4300   10.7860 C.2    41  GLN41       0.2608
     71  OE1       53.1540   20.0100   11.2930 O.2    41  GLN41      -0.2717
     72  NE2       55.2800   19.2220   11.4570 N.am   41  GLN41      -0.0878
     73  N         49.7420   14.6670   12.7210 N.3    44  ARG44      -0.1245
     74  CA        48.8540   15.5210   13.4590 C.3    44  ARG44       0.1563
     75  C         47.3690   15.1520   13.2680 C.2    44  ARG44       0.2260
     76  O         46.5290   15.6450   14.0190 O.2    44  ARG44      -0.2867
     77  CB        49.0360   16.9670   13.0420 C.3    44  ARG44       0.0307
     78  CG        50.3100   17.6210   13.5370 C.3    44  ARG44       0.0489
     79  CD        50.3310   19.0460   13.0660 C.3    44  ARG44       0.2205
     80  NE        51.5240   19.8150   13.4230 N.pl3  44  ARG44      -0.0865
     81  CZ        51.6950   20.5210   14.5430 C.cat  44  ARG44       0.5346
     82  NH1       50.7900   20.4980   15.5310 N.pl3  44  ARG44       0.1354
     83  NH2       52.8230   21.1960   14.7110 N.pl3  44  ARG44       0.1354
     84  N         51.5510   12.5340   16.1130 N.3    64  PHE64      -0.1241
     85  CA        52.5490   13.5620   15.9620 C.3    64  PHE64       0.1605
     86  C         53.3370   13.8120   17.2670 C.2    64  PHE64       0.2264
     87  O         54.5810   13.6420   17.3230 O.2    64  PHE64      -0.2867
     88  CB        51.8700   14.8450   15.5040 C.3    64  PHE64       0.0534
     89  CG        52.7930   16.0360   15.4070 C.ar   64  PHE64      -0.0203
     90  CD1       53.6240   16.1990   14.3040 C.ar   64  PHE64      -0.0042
     91  CD2       52.8410   16.9780   16.4060 C.ar   64  PHE64      -0.0042
     92  CE1       54.4760   17.2730   14.2210 C.ar   64  PHE64      -0.0003
     93  CE2       53.6940   18.0540   16.3350 C.ar   64  PHE64      -0.0003
     94  CZ        54.5190   18.2110   15.2350 C.ar   64  PHE64      -0.0000
@<TRIPOS>BOND
     1    59    58    2
     2    58    57    1
     3    57    60    1
     4    57    56    1
     5    68    69    1
     6    68    65    1
     7    60    61    1
     8    64    65    1
     9    69    70    1
    10    66    65    1
    11    66    67    2
    12    56    50   am
    13    51    50    2
    14    50    49    1
    15    61    63   ar
    16    61    62   ar
    17    48    49    1
    18    44    43    2
    19    70    71    2
    20    70    72   am
    21    43    42    1
    22    49    52    1
    23    46    45    1
    24    42    45    1
    25    42    41    1
    26    52    54    1
    27    52    53    1
    28    73    74    1
    29    45    47    1
    30    77    74    1
    31    77    78    1
    32    79    80    1
    33    79    78    1
    34    75    74    1
    35    75    76    2
    36    80    81    2
    37    53    55    1
    38     8     9    1
    39     8     7    1
    40    92    90   ar
    41    92    94   ar
    42    90    89   ar
    43    81    83    1
    44    81    82    1
    45    94    93   ar
    46     7     6    1
    47    89    88    1
    48    89    91   ar
    49    88    85    1
    50    85    84    1
    51    85    86    1
    52     6     5    1
    53    93    91   ar
    54    36    35    2
    55    86    87    2
    56     5     2    1
    57    35    34    1
    58    39    38    1
    59    37    38    1
    60    37    34    1
    61     1     2    1
    62     2     3    1
    63    38    40    1
    64    34    33    1
    65    24    22    1
    66     3     4    2
    67     3    10   am
    68    10    11    1
    69    22    21    1
    70    21    23    1
    71    21    18    1
    72    13    12    2
    73    12    11    1
    74    12    17   am
    75    11    14    1
    76    18    17    1
    77    18    19    1
    78    14    16    1
    79    14    15    1
    80    19    25   am
    81    19    20    2
    82    25    26    1
    83    28    27    2
    84    27    26    1
    85    26    29    1
    86    29    30    1
    87    30    31    2
    88    30    32   am
