@<TRIPOS>MOLECULE
tmp/4rxqB03.pdb
 161 153 0 0 0
SMALL
GASTEIGER

@<TRIPOS>ATOM
      1  N         46.1660    8.8720   18.2510 N.3    48  GLN48      -0.1231
      2  CA        46.9910    7.8230   18.8560 C.3    48  GLN48       0.1698
      3  C         46.1840    6.5830   19.1910 C.2    48  GLN48       0.2592
      4  O         46.6050    5.4600   18.8980 O.2    48  GLN48      -0.2718
      5  CB        47.6350    8.3480   20.1490 C.3    48  GLN48       0.0381
      6  CG        48.5070    7.3400   20.8830 C.3    48  GLN48       0.0905
      7  CD        49.9220    7.2530   20.2840 C.2    48  GLN48       0.2608
      8  OE1       50.2750    8.0290   19.3980 O.2    48  GLN48      -0.2717
      9  NE2       50.7250    6.3050   20.7770 N.am   48  GLN48      -0.0878
     10  N         45.0410    6.7830   19.8480 N.am   49  LEU49      -0.1980
     11  CA        44.2500    5.6540   20.3730 C.3    49  LEU49       0.1596
     12  C         43.0090    5.3340   19.5360 C.2    49  LEU49       0.2287
     13  O         42.1520    4.5420   19.9600 O.2    49  LEU49      -0.2864
     14  CB        43.8500    5.9230   21.8320 C.3    49  LEU49       0.0297
     15  CG        45.0430    6.1590   22.7790 C.3    49  LEU49       0.0022
     16  CD1       44.5470    6.2830   24.2180 C.3    49  LEU49       0.0001
     17  CD2       46.0870    5.0700   22.6790 C.3    49  LEU49       0.0001
     18  N         49.3410   11.0320   16.8100 N.3    63  ARG63      -0.1245
     19  CA        50.6290   10.3550   16.6440 C.3    63  ARG63       0.1563
     20  C         51.8020   11.3280   16.5940 C.2    63  ARG63       0.2260
     21  O         52.8990   10.9710   16.9910 O.2    63  ARG63      -0.2867
     22  CB        50.6140    9.4730   15.3940 C.3    63  ARG63       0.0307
     23  CG        49.7660    8.2290   15.4990 C.3    63  ARG63       0.0489
     24  CD        50.5300    7.1050   16.1690 C.3    63  ARG63       0.2205
     25  NE        49.6540    6.1200   16.7670 N.pl3  63  ARG63      -0.0865
     26  CZ        50.0580    5.1070   17.5160 C.cat  63  ARG63       0.5346
     27  NH1       51.3470    4.9080   17.7460 N.pl3  63  ARG63       0.1354
     28  NH2       49.1740    4.2820   18.0470 N.pl3  63  ARG63       0.1354
     29  N         53.2900   12.1470   20.0490 N.3    66  HIS66      -0.1241
     30  CA        53.8860   10.9270   20.5340 C.3    66  HIS66       0.1621
     31  C         55.2500   10.6870   19.8480 C.2    66  HIS66       0.2264
     32  O         56.2130   10.3100   20.5090 O.2    66  HIS66      -0.2867
     33  CB        52.9650    9.7430   20.2940 C.3    66  HIS66       0.0745
     34  CG        53.6160    8.4150   20.4490 C.ar   66  HIS66       0.0817
     35  ND1       54.1880    7.9910   21.6280 N.ar   66  HIS66      -0.2268
     36  CD2       53.7950    7.4050   19.5660 C.ar   66  HIS66       0.1154
     37  CE1       54.6720    6.7760   21.4720 C.ar   66  HIS66       0.1986
     38  NE2       54.4630    6.4020   20.2260 N.ar   66  HIS66      -0.2212
     39  N         59.2700    6.3680   13.4600 N.3   105  HIS105     -0.1241
     40  CA        58.7770    5.0050   13.6850 C.3   105  HIS105      0.1621
     41  C         57.2760    4.8370   13.3760 C.2   105  HIS105      0.2264
     42  O         56.8450    3.7880   12.9180 O.2   105  HIS105     -0.2867
     43  CB        59.0760    4.5470   15.1280 C.3   105  HIS105      0.0745
     44  CG        58.5170    3.1960   15.4620 C.ar  105  HIS105      0.0817
     45  ND1       57.3170    3.0260   16.1240 N.ar  105  HIS105     -0.2268
     46  CD2       58.9800    1.9500   15.2020 C.ar  105  HIS105      0.1154
     47  CE1       57.0680    1.7340   16.2560 C.ar  105  HIS105      0.1986
     48  NE2       58.0630    1.0600   15.7060 N.ar  105  HIS105     -0.2212
     49  N         45.0380    4.8670   13.7290 N.3   113  SER113     -0.1202
     50  CA        46.1590    4.0430   14.1470 C.3   113  SER113      0.2020
     51  C         45.9110    2.5560   14.0200 C.2   113  SER113      0.2618
     52  O         45.7210    2.0640   12.9170 O.2   113  SER113     -0.2717
     53  CB        46.6150    4.4440   15.5620 C.3   113  SER113      0.2103
     54  OG        47.0320    5.7960   15.5670 O.3   113  SER113     -0.2182
     55  N         45.8820    1.8180   15.1300 N.am  114  HIS114     -0.1975
     56  CA        45.8390    0.3660   15.0530 C.3   114  HIS114      0.1656
     57  C         44.5590   -0.2190   14.4460 C.2   114  HIS114      0.2291
     58  O         44.5250   -1.3800   14.0570 O.2   114  HIS114     -0.2864
     59  CB        46.1260   -0.2480   16.4200 C.3   114  HIS114      0.0771
     60  CG        47.5460   -0.0510   16.8690 C.ar  114  HIS114      0.0820
     61  ND1       48.5160   -1.0190   16.7120 N.ar  114  HIS114     -0.2267
     62  CD2       48.1670    1.0140   17.4290 C.ar  114  HIS114      0.1154
     63  CE1       49.6670   -0.5690   17.1820 C.ar  114  HIS114      0.1986
     64  NE2       49.4800    0.6620   17.6280 N.ar  114  HIS114     -0.2212
     65  N         62.5780    0.4660   19.0500 N.3   196  SER196     -0.1217
     66  CA        61.6940   -0.6640   18.9780 C.3   196  SER196      0.1889
     67  C         62.4720   -1.9210   19.3030 C.2   196  SER196      0.2288
     68  O         63.1950   -2.4600   18.4670 O.2   196  SER196     -0.2866
     69  CB        61.0690   -0.7560   17.5930 C.3   196  SER196      0.2089
     70  OG        60.0990   -1.7840   17.5730 O.3   196  SER196     -0.2183
     71  N         61.6500   -0.5030   25.4370 N.3   203  ASP203     -0.1239
     72  CA        62.0870    0.5550   24.5550 C.3   203  ASP203      0.1674
     73  C         61.4340    1.8410   24.9620 C.2   203  ASP203      0.2266
     74  O         60.5140    1.8600   25.8270 O.2   203  ASP203     -0.2867
     75  CB        61.8160    0.1870   23.0800 C.3   203  ASP203      0.1410
     76  CG        60.3860   -0.2210   22.8220 C.2   203  ASP203      0.3668
     77  OD1       59.4860    0.5410   23.1880 O.co2 203  ASP203     -0.2456
     78  OD2       60.1710   -1.3050   22.2520 O.co2 203  ASP203     -0.2456
     79  N         59.5590    3.7720   23.1600 N.3   205  ASP205     -0.1225
     80  CA        58.2350    3.9510   22.5770 C.3   205  ASP205      0.1805
     81  C         57.1960    3.7760   23.6960 C.2   205  ASP205      0.2597
     82  O         56.3710    4.6460   23.8950 O.2   205  ASP205     -0.2718
     83  CB        58.0030    2.9340   21.4610 C.3   205  ASP205      0.1424
     84  CG        56.7210    3.1940   20.6630 C.2   205  ASP205      0.3668
     85  OD1       56.0680    4.2320   20.8440 O.co2 205  ASP205     -0.2456
     86  OD2       56.3730    2.3460   19.8100 O.co2 205  ASP205     -0.2456
     87  N         57.2840    2.6550   24.4050 N.am  206  LYS206     -0.1979
     88  CA        56.4660    2.3880   25.5980 C.3   206  LYS206      0.1596
     89  C         56.5390    3.4990   26.6070 C.2   206  LYS206      0.2287
     90  O         55.5250    3.9190   27.1500 O.2   206  LYS206     -0.2864
     91  CB        56.9130    1.1360   26.3300 C.3   206  LYS206      0.0298
     92  CG        56.5580   -0.1140   25.6260 C.3   206  LYS206      0.0038
     93  CD        56.8450   -1.3200   26.4920 C.3   206  LYS206      0.0206
     94  CE        56.3810   -2.5730   25.7970 C.3   206  LYS206      0.1093
     95  NZ        56.9560   -2.7190   24.4350 N.3   206  LYS206     -0.1314
     96  N         54.4650    6.4030   25.5170 N.3   209  TYR209     -0.1241
     97  CA        53.0130    6.2160   25.4240 C.3   209  TYR209      0.1605
     98  C         52.3700    5.9160   26.7970 C.2   209  TYR209      0.2264
     99  O         51.2670    6.3820   27.0550 O.2   209  TYR209     -0.2867
    100  CB        52.5690    5.2790   24.2740 C.3   209  TYR209      0.0534
    101  CG        52.6240    3.8030   24.4940 C.ar  209  TYR209     -0.0201
    102  CD1       51.8190    3.1840   25.4610 C.ar  209  TYR209     -0.0009
    103  CD2       53.4180    2.9890   23.6890 C.ar  209  TYR209     -0.0009
    104  CE1       51.8530    1.8200   25.6520 C.ar  209  TYR209      0.0417
    105  CE2       53.4470    1.6150   23.8740 C.ar  209  TYR209      0.0417
    106  CZ        52.6650    1.0440   24.8650 C.ar  209  TYR209      0.1957
    107  OH        52.6730   -0.2970   25.0740 O.3   209  TYR209     -0.2866
    108  N         49.6890    8.5930   27.1320 N.3   213  ASP213     -0.1239
    109  CA        48.3290    8.0800   27.1270 C.3   213  ASP213      0.1674
    110  C         47.6890    8.2830   28.4980 C.2   213  ASP213      0.2266
    111  O         46.5200    8.6810   28.5900 O.2   213  ASP213     -0.2867
    112  CB        48.2720    6.6200   26.7660 C.3   213  ASP213      0.1410
    113  CG        48.6430    6.3430   25.3100 C.2   213  ASP213      0.3668
    114  OD1       48.6800    7.2770   24.5110 O.co2 213  ASP213     -0.2456
    115  OD2       48.8760    5.1660   25.0150 O.co2 213  ASP213     -0.2456
    116  N         51.6760   -1.9490   31.1410 N.3   260  ARG260     -0.1245
    117  CA        51.2540   -2.1520   29.7630 C.3   260  ARG260      0.1563
    118  C         49.9380   -2.9430   29.6820 C.2   260  ARG260      0.2260
    119  O         49.0100   -2.5410   28.9930 O.2   260  ARG260     -0.2867
    120  CB        52.3150   -2.8910   28.9500 C.3   260  ARG260      0.0307
    121  CG        51.8790   -3.1490   27.5180 C.3   260  ARG260      0.0489
    122  CD        53.0400   -3.6010   26.6460 C.3   260  ARG260      0.2205
    123  NE        52.5780   -3.9750   25.3200 N.pl3 260  ARG260     -0.0865
    124  CZ        52.0150   -5.1360   25.0210 C.cat 260  ARG260      0.5346
    125  NH1       51.8360   -6.0760   25.9510 N.pl3 260  ARG260      0.1354
    126  NH2       51.6170   -5.3600   23.7800 N.pl3 260  ARG260      0.1354
    127  N         46.0890   -1.7780   28.4000 N.3   264  HIS264     -0.1241
    128  CA        45.3110   -2.4970   27.4010 C.3   264  HIS264      0.1621
    129  C         43.9380   -2.8930   27.9740 C.2   264  HIS264      0.2264
    130  O         42.8890   -2.7290   27.3320 O.2   264  HIS264     -0.2867
    131  CB        46.0740   -3.7190   26.9090 C.3   264  HIS264      0.0745
    132  CG        47.0560   -3.4020   25.8200 C.ar  264  HIS264      0.0817
    133  ND1       46.6910   -3.3410   24.4910 N.ar  264  HIS264     -0.2268
    134  CD2       48.3650   -3.0560   25.8650 C.ar  264  HIS264      0.1154
    135  CE1       47.7420   -3.0130   23.7600 C.ar  264  HIS264      0.1986
    136  NE2       48.7730   -2.8440   24.5700 N.ar  264  HIS264     -0.2212
    137  N         42.8940    0.4730   26.0750 N.3   268  TYR268     -0.1227
    138  CA        43.0950    0.2000   24.6430 C.3   268  TYR268      0.1736
    139  C         42.1500   -0.8800   24.1220 C.2   268  TYR268      0.2595
    140  O         41.7140   -0.8190   22.9810 O.2   268  TYR268     -0.2718
    141  CB        44.5570   -0.1890   24.3090 C.3   268  TYR268      0.0548
    142  CG        45.6320    0.7010   24.9200 C.ar  268  TYR268     -0.0200
    143  CD1       45.4740    2.0630   25.0130 C.ar  268  TYR268     -0.0009
    144  CD2       46.8280    0.1580   25.3570 C.ar  268  TYR268     -0.0009
    145  CE1       46.4650    2.8650   25.5450 C.ar  268  TYR268      0.0417
    146  CE2       47.8330    0.9440   25.8790 C.ar  268  TYR268      0.0417
    147  CZ        47.6470    2.2840   25.9830 C.ar  268  TYR268      0.1957
    148  OH        48.6370    3.0550   26.5230 O.3   268  TYR268     -0.2866
    149  N         41.8780   -1.8910   24.9430 N.am  269  GLN269     -0.1979
    150  CA        40.8920   -2.9040   24.6120 C.3   269  GLN269      0.1601
    151  C         39.5230   -2.6750   25.3130 C.2   269  GLN269      0.2287
    152  O         38.7780   -3.6220   25.5550 O.2   269  GLN269     -0.2864
    153  CB        41.4200   -4.2840   24.9640 C.3   269  GLN269      0.0394
    154  CG        42.7840   -4.5910   24.3680 C.3   269  GLN269      0.0908
    155  CD        42.8180   -4.3430   22.8710 C.2   269  GLN269      0.2608
    156  OE1       41.8430   -4.6250   22.1620 O.2   269  GLN269     -0.2717
    157  NE2       43.9240   -3.8020   22.3830 N.am  269  GLN269     -0.0878
    158  N         53.8360   -9.0480   25.4640 N.3   402  GLY402     -0.1225
    159  CA        54.5570   -8.5410   24.2950 C.3   402  GLY402      0.1811
    160  C         55.3040   -9.5760   23.4810 C.2   402  GLY402      0.2280
    161  O         55.7490   -9.2900   22.3900 O.2   402  GLY402     -0.2866
@<TRIPOS>BOND
     1    52    51    2
     2    42    41    2
     3    41    40    1
     4    39    40    1
     5    40    43    1
     6    49    50    1
     7    51    50    1
     8    51    55   am
     9    58    57    2
    10    50    53    1
    11    57    56    1
    12    56    55    1
    13    56    59    1
    14    43    44    1
    15    46    44   ar
    16    46    48   ar
    17    22    23    1
    18    22    19    1
    19    44    45   ar
    20    23    24    1
    21    53    54    1
    22    48    47   ar
    23    45    47   ar
    24    24    25    1
    25    59    60    1
    26    20    19    1
    27    20    21    2
    28    19    18    1
    29    61    60   ar
    30    61    63   ar
    31    25    26    2
    32    60    62   ar
    33    63    64   ar
    34    62    64   ar
    35    26    27    1
    36    26    28    1
    37    70    69    1
    38    69    66    1
    39     1     2    1
    40    68    67    2
    41     2     3    1
    42     2     5    1
    43     4     3    2
    44    66    65    1
    45    66    67    1
    46     3    10   am
    47     8     7    2
    48    12    13    2
    49    12    11    1
    50    36    38   ar
    51    36    34   ar
    52    86    84   ar
    53    31    32    2
    54    31    30    1
    55    10    11    1
    56    29    30    1
    57     5     6    1
    58    38    37   ar
    59     7     9   am
    60     7     6    1
    61    33    34    1
    62    33    30    1
    63    11    14    1
    64    34    35   ar
    65    84    85   ar
    66    84    83    1
    67    83    80    1
    68    37    35   ar
    69    14    15    1
    70   156   155    2
    71    78    76   ar
    72   157   155   am
    73   161   160    2
    74    80    79    1
    75    80    81    1
    76    17    15    1
    77    15    16    1
    78    76    75    1
    79    76    77   ar
    80   155   154    1
    81   140   139    2
    82    75    72    1
    83   160   159    1
    84   103   105   ar
    85   103   101   ar
    86    81    82    2
    87    81    87   am
    88   135   133   ar
    89   135   136   ar
    90   126   124    1
    91   105   106   ar
    92   139   138    1
    93   139   149   am
    94   100   101    1
    95   100    97    1
    96   159   158    1
    97   141   138    1
    98   141   142    1
    99   154   153    1
   100    87    88    1
   101    95    94    1
   102   133   132   ar
   103   101   102   ar
   104   114   113   ar
   105    72    73    1
   106    72    71    1
   107   136   134   ar
   108   150   149    1
   109   150   153    1
   110   150   151    1
   111   138   137    1
   112   106   107    1
   113   106   104   ar
   114   142   143   ar
   115   142   144   ar
   116    73    74    2
   117   143   145   ar
   118   115   113   ar
   119   124   123    2
   120   124   125    1
   121   113   112    1
   122   151   152    2
   123   123   122    1
   124   144   146   ar
   125    97    96    1
   126    97    98    1
   127   102   104   ar
   128   145   147   ar
   129    88    91    1
   130    88    89    1
   131    92    91    1
   132    92    93    1
   133    94    93    1
   134   132   134   ar
   135   132   131    1
   136   146   147   ar
   137   147   148    1
   138    89    90    2
   139   122   121    1
   140   112   109    1
   141    98    99    2
   142   131   128    1
   143   109   108    1
   144   109   110    1
   145   130   129    2
   146   128   129    1
   147   128   127    1
   148   121   120    1
   149   110   111    2
   150   120   117    1
   151   119   118    2
   152   118   117    1
   153   117   116    1
