@<TRIPOS>MOLECULE
tmp/4rxtA00.pdb
 118 112 0 0 0
SMALL
GASTEIGER

@<TRIPOS>ATOM
      1  N         49.6390    2.4810   11.4370 N.3    12  LYS12      -0.1245
      2  CA        50.1910    3.0060   12.7140 C.3    12  LYS12       0.1561
      3  C         51.0800    1.9840   13.4380 C.2    12  LYS12       0.2260
      4  O         51.9780    2.3610   14.1680 O.2    12  LYS12      -0.2867
      5  CB        49.0750    3.4260   13.6800 C.3    12  LYS12       0.0271
      6  CG        48.1350    4.5050   13.1780 C.3    12  LYS12       0.0035
      7  CD        47.2590    5.0080   14.2980 C.3    12  LYS12       0.0206
      8  CE        46.2550    6.0440   13.8460 C.3    12  LYS12       0.1093
      9  NZ        45.5570    6.6170   15.0380 N.3    12  LYS12      -0.1314
     10  N         44.1230   -5.0190   14.5170 N.3    18  TYR18      -0.1227
     11  CA        43.3390   -4.0930   13.7320 C.3    18  TYR18       0.1736
     12  C         44.0680   -3.6880   12.4330 C.2    18  TYR18       0.2595
     13  O         43.4930   -3.7200   11.3410 O.2    18  TYR18      -0.2718
     14  CB        43.0640   -2.8490   14.5550 C.3    18  TYR18       0.0548
     15  CG        42.2700   -1.8100   13.8030 C.ar   18  TYR18      -0.0200
     16  CD1       40.8800   -1.8450   13.7540 C.ar   18  TYR18      -0.0009
     17  CD2       42.9110   -0.7430   13.1440 C.ar   18  TYR18      -0.0009
     18  CE1       40.1580   -0.8710   13.0740 C.ar   18  TYR18       0.0417
     19  CE2       42.1820    0.2080   12.4520 C.ar   18  TYR18       0.0417
     20  CZ        40.8100    0.1700   12.4500 C.ar   18  TYR18       0.1957
     21  OH        40.0750    1.1260   11.7790 O.3    18  TYR18      -0.2866
     22  N         45.3290   -3.2800   12.5860 N.am   19  TRP19      -0.1976
     23  CA        46.1260   -2.8710   11.4120 C.3    19  TRP19       0.1640
     24  C         46.4320   -4.0160   10.4820 C.2    19  TRP19       0.2290
     25  O         46.5840   -3.8190    9.2970 O.2    19  TRP19      -0.2864
     26  CB        47.4180   -2.1130   11.8100 C.3    19  TRP19       0.0576
     27  CG        47.0780   -0.8260   12.4780 C.ar   19  TRP19       0.0006
     28  CD1       47.2250   -0.5300   13.7820 C.ar   19  TRP19       0.0946
     29  CD2       46.3470    0.2430   11.8920 C.ar   19  TRP19       0.0152
     30  NE1       46.6630    0.6890   14.0630 N.ar   19  TRP19      -0.2442
     31  CE2       46.1290    1.1920   12.9030 C.ar   19  TRP19       0.0810
     32  CE3       45.8690    0.4940   10.6150 C.ar   19  TRP19       0.0012
     33  CZ2       45.4650    2.3530   12.6580 C.ar   19  TRP19       0.0191
     34  CZ3       45.2180    1.6540   10.3690 C.ar   19  TRP19       0.0001
     35  CH2       45.0160    2.5600   11.3840 C.ar   19  TRP19       0.0015
     36  N         52.0080    2.4840   17.8890 N.3    45  GLU45      -0.1245
     37  CA        51.2580    3.7120   17.5200 C.3    45  GLU45       0.1567
     38  C         51.9240    4.9840   18.0930 C.2    45  GLU45       0.2260
     39  O         51.7850    6.1120   17.5650 O.2    45  GLU45      -0.2867
     40  CB        49.7890    3.6640   17.9880 C.3    45  GLU45       0.0388
     41  CG        48.9820    2.5460   17.3700 C.3    45  GLU45       0.1160
     42  CD        47.4770    2.7740   17.3380 C.2    45  GLU45       0.3649
     43  OE1       46.9650    3.7310   17.9500 O.co2  45  GLU45      -0.2457
     44  OE2       46.8320    1.9170   16.7080 O.co2  45  GLU45      -0.2457
     45  N         41.5110    6.1820    8.3490 N.3    93  ASP93      -0.1239
     46  CA        41.3660    5.8960    9.7960 C.3    93  ASP93       0.1674
     47  C         41.4010    7.0710   10.7750 C.2    93  ASP93       0.2266
     48  O         40.6190    7.0730   11.7150 O.2    93  ASP93      -0.2867
     49  CB        42.3200    4.7640   10.2320 C.3    93  ASP93       0.1410
     50  CG        42.1620    4.4060   11.7070 C.2    93  ASP93       0.3668
     51  OD1       41.2460    3.6070   12.0120 O.co2  93  ASP93      -0.2456
     52  OD2       42.9230    4.9590   12.5350 O.co2  93  ASP93      -0.2456
     53  N         41.7280    9.9990   15.4090 N.3   146  SER146     -0.1202
     54  CA        40.5730    9.1050   15.6140 C.3   146  SER146      0.2020
     55  C         40.1550    9.1150   17.0980 C.2   146  SER146      0.2618
     56  O         38.9700    9.2630   17.4370 O.2   146  SER146     -0.2717
     57  CB        40.8820    7.6810   15.1400 C.3   146  SER146      0.2103
     58  OG        42.0360    7.2370   15.7980 O.3   146  SER146     -0.2182
     59  N         41.1330    8.9390   17.9760 N.am  147  LEU147     -0.1979
     60  CA        40.8280    8.7700   19.4120 C.3   147  LEU147      0.1596
     61  C         40.3210   10.0620   20.0810 C.2   147  LEU147      0.2287
     62  O         39.4480   10.0210   20.9660 O.2   147  LEU147     -0.2864
     63  CB        42.0340    8.2320   20.1700 C.3   147  LEU147      0.0297
     64  CG        42.6490    6.9470   19.5720 C.3   147  LEU147      0.0022
     65  CD1       43.7970    6.4590   20.4680 C.3   147  LEU147      0.0001
     66  CD2       41.6380    5.8270   19.3010 C.3   147  LEU147      0.0001
     67  N         36.7040   10.3890   19.1330 N.3   150  ARG150     -0.1245
     68  CA        35.8600    9.4540   19.9210 C.3   150  ARG150      0.1563
     69  C         35.6490   10.0140   21.3190 C.2   150  ARG150      0.2260
     70  O         34.5370    9.9960   21.8680 O.2   150  ARG150     -0.2867
     71  CB        36.4820    8.0680   19.9820 C.3   150  ARG150      0.0307
     72  CG        36.5460    7.4360   18.6310 C.3   150  ARG150      0.0489
     73  CD        37.3370    6.1520   18.6480 C.3   150  ARG150      0.2205
     74  NE        37.6320    5.7710   17.2730 N.pl3 150  ARG150     -0.0865
     75  CZ        38.4490    4.8190   16.8800 C.cat 150  ARG150      0.5346
     76  NH1       39.0270    4.0020   17.7670 N.pl3 150  ARG150      0.1354
     77  NH2       38.6230    4.6710   15.5880 N.pl3 150  ARG150      0.1354
     78  N         39.6100    2.1200   21.8110 N.3   201  ASN201     -0.1225
     79  CA        40.1630    1.4030   20.6650 C.3   201  ASN201      0.1785
     80  C         40.4000   -0.0730   21.0360 C.2   201  ASN201      0.2597
     81  O         40.1990   -0.4620   22.1770 O.2   201  ASN201     -0.2718
     82  CB        41.4130    2.1160   20.1120 C.3   201  ASN201      0.1169
     83  CG        42.6920    1.7740   20.8730 C.2   201  ASN201      0.2627
     84  OD1       42.6630    1.4810   22.0730 O.2   201  ASN201     -0.2716
     85  ND2       43.8050    1.7940   20.1820 N.am  201  ASN201     -0.0877
     86  N         40.9040   -0.8400   20.0800 N.am  202  LEU202     -0.1966
     87  CA        41.0950   -2.2750   20.3240 C.3   202  LEU202      0.1728
     88  C         41.9980   -2.5290   21.5440 C.2   202  LEU202      0.2616
     89  O         41.7440   -3.4060   22.3560 O.2   202  LEU202     -0.2715
     90  CB        41.7170   -2.9170   19.1030 C.3   202  LEU202      0.0311
     91  CG        42.0960   -4.3900   19.2490 C.3   202  LEU202      0.0022
     92  CD1       40.8260   -5.1640   19.5130 C.3   202  LEU202      0.0001
     93  CD2       42.7970   -4.8440   17.9830 C.3   202  LEU202      0.0001
     94  N         43.0970   -1.7950   21.6080 N.am  203  ILE203     -0.1977
     95  CA        44.1390   -2.0270   22.5900 C.3   203  ILE203      0.1596
     96  C         43.6200   -1.7720   23.9990 C.2   203  ILE203      0.2287
     97  O         43.8440   -2.5240   24.9210 O.2   203  ILE203     -0.2864
     98  CB        45.4120   -1.1760   22.2990 C.3   203  ILE203      0.0276
     99  CG1       45.8950   -1.3700   20.8440 C.3   203  ILE203      0.0022
    100  CG2       46.5220   -1.4850   23.3020 C.3   203  ILE203      0.0022
    101  CD1       46.0920   -2.8230   20.4490 C.3   203  ILE203      0.0001
    102  N         36.3510   -2.0700   18.2180 N.3   227  ASP227     -0.1239
    103  CA        37.0330   -3.0140   17.3560 C.3   227  ASP227      0.1674
    104  C         36.7850   -4.4500   17.8100 C.2   227  ASP227      0.2266
    105  O         35.9330   -4.7160   18.6400 O.2   227  ASP227     -0.2867
    106  CB        38.5400   -2.6790   17.2670 C.3   227  ASP227      0.1410
    107  CG        38.7760   -1.2250   16.8590 C.2   227  ASP227      0.3668
    108  OD1       38.0960   -0.7580   15.8900 O.co2 227  ASP227     -0.2456
    109  OD2       39.6260   -0.5910   17.5200 O.co2 227  ASP227     -0.2456
    110  N         34.3880   -1.0820   13.3570 N.3   247  GLN247     -0.1245
    111  CA        34.6550   -0.3070   12.1650 C.3   247  GLN247      0.1566
    112  C         34.8220   -1.2440   10.9750 C.2   247  GLN247      0.2260
    113  O         34.5730   -2.4350   11.0970 O.2   247  GLN247     -0.2867
    114  CB        35.9590    0.4560   12.3950 C.3   247  GLN247      0.0367
    115  CG        35.9930    1.3560   13.6210 C.3   247  GLN247      0.0905
    116  CD        37.2920    2.1320   13.6860 C.2   247  GLN247      0.2608
    117  OE1       37.4640    3.1850   13.0390 O.2   247  GLN247     -0.2717
    118  NE2       38.2490    1.5960   14.4340 N.am  247  GLN247     -0.0878
@<TRIPOS>BOND
     1    45    46    1
     2    25    24    2
     3    46    49    1
     4    46    47    1
     5    49    50    1
     6    34    32   ar
     7    34    35   ar
     8    24    23    1
     9    32    29   ar
    10    47    48    2
    11   112   113    2
    12   112   111    1
    13    13    12    2
    14    35    33   ar
    15    23    26    1
    16    23    22    1
    17     1     2    1
    18    50    51   ar
    19    50    52   ar
    20    21    20    1
    21    26    27    1
    22    29    27   ar
    23    29    31   ar
    24   111   114    1
    25   111   110    1
    26   114   115    1
    27    12    22   am
    28    12    11    1
    29    20    19   ar
    30    20    18   ar
    31    19    17   ar
    32    27    28   ar
    33    33    31   ar
    34     2     3    1
    35     2     5    1
    36    31    30   ar
    37   117   116    2
    38    18    16   ar
    39    17    15   ar
    40     6     5    1
    41     6     7    1
    42     3     4    2
    43   115   116    1
    44   116   118   am
    45    11    10    1
    46    11    14    1
    47    16    15   ar
    48    28    30   ar
    49    15    14    1
    50     8     7    1
    51     8     9    1
    52    57    54    1
    53    57    58    1
    54    53    54    1
    55    77    75    1
    56    54    55    1
    57   108   107   ar
    58    44    42   ar
    59   107   106    1
    60   107   109   ar
    61    75    74    2
    62    75    76    1
    63    55    56    2
    64    55    59   am
    65   106   103    1
    66    74    73    1
    67    42    41    1
    68    42    43   ar
    69   103   104    1
    70   103   102    1
    71    41    40    1
    72    37    36    1
    73    37    40    1
    74    37    38    1
    75    39    38    2
    76   104   105    2
    77    59    60    1
    78    93    91    1
    79    72    73    1
    80    72    71    1
    81    90    91    1
    82    90    87    1
    83    67    68    1
    84    91    92    1
    85    66    64    1
    86    60    61    1
    87    60    63    1
    88    64    63    1
    89    64    65    1
    90    68    71    1
    91    68    69    1
    92    86    87    1
    93    86    80   am
    94    61    62    2
    95    82    79    1
    96    82    83    1
    97    85    83   am
    98    87    88    1
    99   101    99    1
   100    79    80    1
   101    79    78    1
   102    99    98    1
   103    83    84    2
   104    80    81    2
   105    69    70    2
   106    88    94   am
   107    88    89    2
   108    94    95    1
   109    98    95    1
   110    98   100    1
   111    95    96    1
   112    96    97    2
