@<TRIPOS>MOLECULE
tmp/4rxuA01.pdb
 128 123 0 0 0
SMALL
GASTEIGER

@<TRIPOS>ATOM
      1  N         33.4650   16.5380  122.1080 N.3    15  GLU15      -0.1245
      2  CA        32.0390   16.6850  121.8290 C.3    15  GLU15       0.1567
      3  C         31.9450   17.3750  120.4910 C.2    15  GLU15       0.2260
      4  O         32.4870   18.4650  120.3450 O.2    15  GLU15      -0.2867
      5  CB        31.3300   17.5140  122.9140 C.3    15  GLU15       0.0388
      6  CG        31.3100   16.8570  124.2950 C.3    15  GLU15       0.1160
      7  CD        30.8480   17.7920  125.4050 C.2    15  GLU15       0.3649
      8  OE1       30.1590   18.8200  125.1340 O.co2  15  GLU15      -0.2457
      9  OE2       31.1740   17.4680  126.5710 O.co2  15  GLU15      -0.2457
     10  N         29.9200   19.1670  118.9010 N.3    17  ARG17      -0.1231
     11  CA        29.3180   20.4930  118.8510 C.3    17  ARG17       0.1694
     12  C         30.3870   21.5700  118.7280 C.2    17  ARG17       0.2592
     13  O         30.2570   22.4690  117.8980 O.2    17  ARG17      -0.2718
     14  CB        28.4540   20.7550  120.0920 C.3    17  ARG17       0.0321
     15  CG        28.0440   22.2120  120.3070 C.3    17  ARG17       0.0489
     16  CD        27.2660   22.8440  119.1600 C.3    17  ARG17       0.2205
     17  NE        27.3460   24.2890  119.3030 N.pl3  17  ARG17      -0.0865
     18  CZ        26.6110   25.0460  120.1140 C.cat  17  ARG17       0.5346
     19  NH1       26.8910   26.3460  120.2160 N.pl3  17  ARG17       0.1354
     20  NH2       25.5950   24.5530  120.8120 N.pl3  17  ARG17       0.1354
     21  N         31.4480   21.4570  119.5420 N.am   18  TRP18      -0.1976
     22  CA        32.4160   22.5650  119.6330 C.3    18  TRP18       0.1640
     23  C         33.3070   22.6970  118.4100 C.2    18  TRP18       0.2290
     24  O         33.8850   23.7540  118.1930 O.2    18  TRP18      -0.2864
     25  CB        33.2270   22.5450  120.9450 C.3    18  TRP18       0.0576
     26  CG        32.2720   22.3020  122.0540 C.ar   18  TRP18       0.0006
     27  CD1       32.1700   21.1790  122.7860 C.ar   18  TRP18       0.0946
     28  CD2       31.1380   23.1160  122.4050 C.ar   18  TRP18       0.0152
     29  NE1       31.0650   21.2410  123.6100 N.ar   18  TRP18      -0.2442
     30  CE2       30.4220   22.4270  123.3910 C.ar   18  TRP18       0.0810
     31  CE3       30.6780   24.3670  121.9970 C.ar   18  TRP18       0.0012
     32  CZ2       29.2590   22.9280  123.9500 C.ar   18  TRP18       0.0191
     33  CZ3       29.5330   24.8660  122.5620 C.ar   18  TRP18       0.0001
     34  CH2       28.8380   24.1550  123.5250 C.ar   18  TRP18       0.0015
     35  N         27.1470   29.9210  124.9320 N.3    91  ASP91      -0.1225
     36  CA        26.3280   28.7160  124.7830 C.3    91  ASP91       0.1805
     37  C         25.8590   28.1610  126.1180 C.2    91  ASP91       0.2597
     38  O         24.6700   27.9440  126.3020 O.2    91  ASP91      -0.2718
     39  CB        26.9870   27.6070  123.9720 C.3    91  ASP91       0.1424
     40  CG        25.9960   26.5500  123.6110 C.2    91  ASP91       0.3668
     41  OD1       25.2840   26.7580  122.6010 O.co2  91  ASP91      -0.2456
     42  OD2       25.8670   25.5490  124.3700 O.co2  91  ASP91      -0.2456
     43  N         26.8060   27.8700  127.0090 N.am   92  ARG92      -0.1979
     44  CA        26.5370   27.3590  128.3500 C.3    92  ARG92       0.1597
     45  C         26.8100   28.4540  129.3420 C.2    92  ARG92       0.2287
     46  O         27.6830   29.3080  129.1200 O.2    92  ARG92      -0.2864
     47  CB        27.4610   26.1920  128.6880 C.3    92  ARG92       0.0334
     48  CG        27.2980   24.9950  127.8030 C.3    92  ARG92       0.0492
     49  CD        28.3600   23.9690  128.1300 C.3    92  ARG92       0.2205
     50  NE        28.1710   22.7480  127.3870 N.pl3  92  ARG92      -0.0865
     51  CZ        29.0230   21.7400  127.3790 C.cat  92  ARG92       0.5346
     52  NH1       30.1660   21.8290  128.0450 N.pl3  92  ARG92       0.1354
     53  NH2       28.7360   20.6540  126.6880 N.pl3  92  ARG92       0.1354
     54  N         26.7370   20.5510  132.7280 N.3   139  ASP139     -0.1239
     55  CA        26.2800   21.5180  131.7210 C.3   139  ASP139      0.1674
     56  C         24.9270   22.0630  132.1410 C.2   139  ASP139      0.2266
     57  O         23.9530   21.3220  132.1770 O.2   139  ASP139     -0.2867
     58  CB        26.1590   20.7660  130.3860 C.3   139  ASP139      0.1410
     59  CG        25.6690   21.6100  129.2560 C.2   139  ASP139      0.3668
     60  OD1       25.4660   22.8340  129.4350 O.co2 139  ASP139     -0.2456
     61  OD2       25.5150   20.9980  128.1660 O.co2 139  ASP139     -0.2456
     62  N         22.9430   23.6710  130.4700 N.3   141  ASN141     -0.1240
     63  CA        21.9940   23.4400  129.3750 C.3   141  ASN141      0.1653
     64  C         21.3190   22.0800  129.4850 C.2   141  ASN141      0.2266
     65  O         20.1970   21.9350  129.0450 O.2   141  ASN141     -0.2867
     66  CB        22.6750   23.5490  128.0100 C.3   141  ASN141      0.1155
     67  CG        23.0430   24.9600  127.6390 C.2   141  ASN141      0.2627
     68  OD1       22.5630   25.9200  128.2150 O.2   141  ASN141     -0.2716
     69  ND2       23.8610   25.0850  126.6140 N.am  141  ASN141     -0.0877
     70  N         17.4790   21.8180  128.7920 N.3   145  PHE145     -0.1241
     71  CA        16.8860   20.9590  127.7810 C.3   145  PHE145      0.1605
     72  C         15.9140   19.9870  128.4470 C.2   145  PHE145      0.2264
     73  O         14.8570   19.6890  127.9150 O.2   145  PHE145     -0.2867
     74  CB        17.9270   20.1310  127.0490 C.3   145  PHE145      0.0534
     75  CG        18.9860   20.9170  126.3380 C.ar  145  PHE145     -0.0203
     76  CD1       18.7210   22.0810  125.6190 C.ar  145  PHE145     -0.0042
     77  CD2       20.2720   20.4270  126.3450 C.ar  145  PHE145     -0.0042
     78  CE1       19.7510   22.7650  124.9710 C.ar  145  PHE145     -0.0003
     79  CE2       21.2830   21.0840  125.6870 C.ar  145  PHE145     -0.0003
     80  CZ        21.0330   22.2540  125.0050 C.ar  145  PHE145     -0.0000
     81  N         26.9390   13.4260  127.4730 N.3   195  TRP195     -0.1241
     82  CA        27.2580   13.9680  126.1370 C.3   195  TRP195      0.1605
     83  C         28.3100   13.1260  125.4190 C.2   195  TRP195      0.2264
     84  O         29.1950   13.6400  124.7200 O.2   195  TRP195     -0.2867
     85  CB        27.7240   15.4160  126.2310 C.3   195  TRP195      0.0550
     86  CG        26.7630   16.4420  126.6990 C.ar  195  TRP195      0.0003
     87  CD1       27.0410   17.4720  127.5710 C.ar  195  TRP195      0.0946
     88  CD2       25.4060   16.6550  126.2520 C.ar  195  TRP195      0.0152
     89  NE1       25.9320   18.2890  127.7130 N.ar  195  TRP195     -0.2442
     90  CE2       24.9150   17.8110  126.9200 C.ar  195  TRP195      0.0810
     91  CE3       24.5740   16.0030  125.3510 C.ar  195  TRP195      0.0012
     92  CZ2       23.6370   18.3140  126.6970 C.ar  195  TRP195      0.0191
     93  CZ3       23.2770   16.4870  125.1580 C.ar  195  TRP195      0.0001
     94  CH2       22.8330   17.6370  125.8240 C.ar  195  TRP195      0.0015
     95  N         20.9020   15.0780  122.2170 N.3   225  ASN225     -0.1240
     96  CA        21.5720   15.7200  121.0850 C.3   225  ASN225      0.1653
     97  C         21.8100   14.7230  119.9770 C.2   225  ASN225      0.2266
     98  O         21.4550   13.5660  120.1160 O.2   225  ASN225     -0.2867
     99  CB        22.8660   16.4540  121.4930 C.3   225  ASN225      0.1155
    100  CG        24.0500   15.5290  121.7130 C.2   225  ASN225      0.2627
    101  OD1       23.9260   14.2990  121.7840 O.2   225  ASN225     -0.2716
    102  ND2       25.2270   16.1370  121.8730 N.am  225  ASN225     -0.0877
    103  N         19.6110   17.2410  118.5890 N.3   250  GLN250     -0.1231
    104  CA        19.8980   18.6370  118.3040 C.3   250  GLN250      0.1698
    105  C         21.3350   18.7920  117.8370 C.2   250  GLN250      0.2592
    106  O         22.1680   17.9470  118.1360 O.2   250  GLN250     -0.2718
    107  CB        19.6870   19.5430  119.5240 C.3   250  GLN250      0.0381
    108  CG        20.7260   19.3770  120.6150 C.3   250  GLN250      0.0905
    109  CD        20.4870   20.3330  121.7600 C.2   250  GLN250      0.2608
    110  OE1       20.5520   21.5530  121.5940 O.2   250  GLN250     -0.2717
    111  NE2       20.1940   19.7850  122.9260 N.am  250  GLN250     -0.0878
    112  N         21.5430   19.8910  117.1070 N.am  251  ASP251     -0.1974
    113  CA        22.8390   20.4200  116.6230 C.3   251  ASP251      0.1709
    114  C         22.9850   20.2710  115.1010 C.2   251  ASP251      0.2293
    115  O         23.8810   20.8670  114.5080 O.2   251  ASP251     -0.2864
    116  CB        24.0560   19.7560  117.2770 C.3   251  ASP251      0.1436
    117  CG        24.1850   20.0390  118.7810 C.2   251  ASP251      0.3671
    118  OD1       23.5180   20.9450  119.3300 O.co2 251  ASP251     -0.2456
    119  OD2       25.0250   19.3490  119.3990 O.co2 251  ASP251     -0.2456
    120  N         20.2880   24.6530  115.5920 N.3   271  LYS271     -0.1245
    121  CA        20.7510   25.8340  116.3110 C.3   271  LYS271      0.1561
    122  C         21.8230   26.4940  115.4440 C.2   271  LYS271      0.2260
    123  O         22.8950   25.9220  115.2530 O.2   271  LYS271     -0.2867
    124  CB        21.2940   25.4380  117.6920 C.3   271  LYS271      0.0271
    125  CG        20.3920   24.4600  118.4490 C.3   271  LYS271      0.0035
    126  CD        20.6170   24.3750  119.9380 C.3   271  LYS271      0.0206
    127  CE        22.0490   24.0320  120.2740 C.3   271  LYS271      0.1093
    128  NZ        22.1440   23.7130  121.7280 N.3   271  LYS271     -0.1314
@<TRIPOS>BOND
     1   115   114    2
     2   114   113    1
     3   123   122    2
     4   122   121    1
     5   120   121    1
     6   121   124    1
     7   113   112    1
     8   113   116    1
     9   112   105   am
    10   116   117    1
    11   124   125    1
    12   105   106    2
    13   105   104    1
    14    13    12    2
    15    24    23    2
    16   104   103    1
    17   104   107    1
    18    23    22    1
    19   125   126    1
    20    12    11    1
    21    12    21   am
    22   117   118   ar
    23   117   119   ar
    24    11    10    1
    25    11    14    1
    26    16    17    1
    27    16    15    1
    28    17    18    2
    29   107   108    1
    30    21    22    1
    31    22    25    1
    32   126   127    1
    33    97    98    2
    34    97    96    1
    35    14    15    1
    36    18    19    1
    37    18    20    1
    38   127   128    1
    39     4     3    2
    40     3     2    1
    41   108   109    1
    42    25    26    1
    43    96    99    1
    44    96    95    1
    45    99   100    1
    46   110   109    2
    47   100   101    2
    48   100   102   am
    49   109   111   am
    50     2     1    1
    51     2     5    1
    52    31    28   ar
    53    31    33   ar
    54    26    28   ar
    55    26    27   ar
    56    28    30   ar
    57    33    34   ar
    58    41    40   ar
    59    27    29   ar
    60     5     6    1
    61    30    29   ar
    62    30    32   ar
    63    34    32   ar
    64    40    39    1
    65    40    42   ar
    66    39    36    1
    67     6     7    1
    68    84    83    2
    69    36    35    1
    70    36    37    1
    71    78    80   ar
    72    78    76   ar
    73    80    79   ar
    74     8     7   ar
    75    93    91   ar
    76    93    94   ar
    77    91    88   ar
    78     7     9   ar
    79    83    82    1
    80    76    75   ar
    81    79    77   ar
    82    94    92   ar
    83    37    38    2
    84    37    43   am
    85    82    85    1
    86    82    81    1
    87    85    86    1
    88    88    86   ar
    89    88    90   ar
    90    75    77   ar
    91    75    74    1
    92    69    67   am
    93    53    51    1
    94    92    90   ar
    95    86    87   ar
    96    90    89   ar
    97    43    44    1
    98    74    71    1
    99    51    50    2
   100    51    52    1
   101    50    49    1
   102    87    89   ar
   103    67    66    1
   104    67    68    2
   105    71    72    1
   106    71    70    1
   107    48    49    1
   108    48    47    1
   109    73    72    2
   110    66    63    1
   111    61    59   ar
   112    44    47    1
   113    44    45    1
   114    65    64    2
   115    46    45    2
   116    59    60   ar
   117    59    58    1
   118    63    64    1
   119    63    62    1
   120    58    55    1
   121    55    56    1
   122    55    54    1
   123    56    57    2
