@<TRIPOS>MOLECULE
tmp/4rxzA00.pdb
 126 121 0 0 0
SMALL
GASTEIGER

@<TRIPOS>ATOM
      1  N         16.3060   21.3940    0.7060 N.3    29  MET29      -0.1230
      2  CA        17.1590   20.3990    1.3730 C.3    29  MET29       0.1702
      3  C         17.5490   20.8450    2.7690 C.2    29  MET29       0.2592
      4  O         17.5440   19.9960    3.6720 O.2    29  MET29      -0.2718
      5  CB        18.4000   20.0400    0.5230 C.3    29  MET29       0.0401
      6  CG        18.0120   19.2650   -0.7400 C.3    29  MET29       0.0596
      7  SD        17.1440   17.6820   -0.5220 S.3    29  MET29      -0.1393
      8  CE        18.3720   16.6650    0.2720 C.3    29  MET29       0.0692
      9  N         17.8860   22.1190    2.9580 N.am   30  HIS30      -0.1976
     10  CA        18.2380   22.6270    4.2630 C.3    30  HIS30       0.1656
     11  C         17.0950   22.4260    5.2430 C.2    30  HIS30       0.2291
     12  O         17.2880   21.9170    6.3400 O.2    30  HIS30      -0.2864
     13  CB        18.6680   24.1050    4.1980 C.3    30  HIS30       0.0771
     14  CG        18.7500   24.7760    5.5290 C.ar   30  HIS30       0.0820
     15  ND1       19.8520   24.6410    6.3430 N.ar   30  HIS30      -0.2267
     16  CD2       17.8590   25.5040    6.2260 C.ar   30  HIS30       0.1154
     17  CE1       19.6440   25.2880    7.4810 C.ar   30  HIS30       0.1986
     18  NE2       18.4400   25.8250    7.4350 N.ar   30  HIS30      -0.2212
     19  N         14.4780   20.4050    5.0430 N.3    32  LEU32      -0.1231
     20  CA        14.1610   19.0060    5.2990 C.3    32  LEU32       0.1693
     21  C         15.1440   18.4450    6.3490 C.2    32  LEU32       0.2592
     22  O         14.7390   17.7180    7.2520 O.2    32  LEU32      -0.2718
     23  CB        14.3340   18.2020    4.0130 C.3    32  LEU32       0.0284
     24  CG        13.2470   17.4610    3.2770 C.3    32  LEU32       0.0019
     25  CD1       11.8500   17.6760    3.8640 C.3    32  LEU32       0.0001
     26  CD2       13.3750   17.5180    1.7400 C.3    32  LEU32       0.0001
     27  N         16.4240   18.7960    6.2340 N.am   33  GLY33      -0.1957
     28  CA        17.3730   18.3990    7.3010 C.3    33  GLY33       0.1869
     29  C         17.0470   18.9890    8.6660 C.2    33  GLY33       0.2309
     30  O         17.1090   18.3050    9.7090 O.2    33  GLY33      -0.2863
     31  N         14.1420   17.0560   10.2100 N.3    36  ILE36      -0.1231
     32  CA        14.5610   15.7610   10.7800 C.3    36  ILE36       0.1692
     33  C         15.2250   15.9710   12.1420 C.2    36  ILE36       0.2591
     34  O         15.0180   15.1820   13.0810 O.2    36  ILE36      -0.2718
     35  CB        15.4590   14.9950    9.8060 C.3    36  ILE36       0.0266
     36  CG1       14.6020   14.5550    8.5790 C.3    36  ILE36       0.0019
     37  CG2       16.1110   13.8030   10.4610 C.3    36  ILE36       0.0020
     38  CD1       15.3500   14.1890    7.2880 C.3    36  ILE36       0.0001
     39  N         16.0760   17.0020   12.2560 N.am   37  MET37      -0.1979
     40  CA        16.6560   17.3310   13.5630 C.3    37  MET37       0.1605
     41  C         15.6850   17.7870   14.6180 C.2    37  MET37       0.2287
     42  O         15.6390   17.2780   15.7380 O.2    37  MET37      -0.2864
     43  CB        17.8180   18.3030   13.4140 C.3    37  MET37       0.0413
     44  CG        19.0540   17.6100   13.0970 C.3    37  MET37       0.0598
     45  SD        20.3750   18.7940   13.0140 S.3    37  MET37      -0.1393
     46  CE        20.2070   19.7810   14.2030 C.3    37  MET37       0.0692
     47  N         16.0990   10.9040   13.3380 N.3    42  TYR42      -0.1241
     48  CA        17.2570   10.0940   13.0640 C.3    42  TYR42       0.1605
     49  C         17.4720    9.1120   14.2240 C.2    42  TYR42       0.2264
     50  O         17.1230    9.3820   15.3720 O.2    42  TYR42      -0.2867
     51  CB        18.4980   10.9720   12.7990 C.3    42  TYR42       0.0534
     52  CG        18.8460   11.8630   13.9370 C.ar   42  TYR42      -0.0201
     53  CD1       19.6710   11.4250   14.9950 C.ar   42  TYR42      -0.0009
     54  CD2       18.3700   13.1760   14.0110 C.ar   42  TYR42      -0.0009
     55  CE1       19.9890   12.2700   16.0430 C.ar   42  TYR42       0.0417
     56  CE2       18.6110   14.0090   15.1030 C.ar   42  TYR42       0.0417
     57  CZ        19.4360   13.5740   16.1210 C.ar   42  TYR42       0.1957
     58  OH        19.6310   14.4520   17.1870 O.3    42  TYR42      -0.2866
     59  N         23.4270    7.3970   12.8820 N.3    47  GLN47      -0.1231
     60  CA        22.7240    8.6590   12.6610 C.3    47  GLN47       0.1698
     61  C         22.4820    9.0460   11.2250 C.2    47  GLN47       0.2592
     62  O         21.8100   10.0680   10.9560 O.2    47  GLN47      -0.2718
     63  CB        23.3430    9.7970   13.4490 C.3    47  GLN47       0.0381
     64  CG        23.4310    9.5290   14.8980 C.3    47  GLN47       0.0905
     65  CD        23.5920   10.7800   15.7360 C.2    47  GLN47       0.2608
     66  OE1       23.7060   11.8940   15.2150 O.2    47  GLN47      -0.2717
     67  NE2       23.5100   10.6180   17.0470 N.am   47  GLN47      -0.0878
     68  N         22.9210    8.2190   10.2700 N.am   48  HIS48      -0.1976
     69  CA        22.4850    8.3480    8.8910 C.3    48  HIS48       0.1656
     70  C         21.0780    7.7780    8.6440 C.2    48  HIS48       0.2291
     71  O         20.5240    7.9890    7.5540 O.2    48  HIS48      -0.2864
     72  CB        23.4710    7.6850    7.9300 C.3    48  HIS48       0.0771
     73  CG        23.6490    6.2480    8.1670 C.ar   48  HIS48       0.0820
     74  ND1       22.9480    5.2810    7.4720 N.ar   48  HIS48      -0.2267
     75  CD2       24.4130    5.5900    9.0680 C.ar   48  HIS48       0.1154
     76  CE1       23.2800    4.0850    7.9360 C.ar   48  HIS48       0.1986
     77  NE2       24.1530    4.2480    8.9220 N.ar   48  HIS48      -0.2212
     78  N         17.1780    7.5590    9.0840 N.3    50  VAL50      -0.1245
     79  CA        16.0500    8.3690    9.4530 C.3    50  VAL50       0.1561
     80  C         14.7940    7.4850    9.5320 C.2    50  VAL50       0.2260
     81  O         14.3960    6.8700    8.5350 O.2    50  VAL50      -0.2867
     82  CB        15.8350    9.5380    8.4770 C.3    50  VAL50       0.0252
     83  CG1       14.5750   10.3450    8.8120 C.3    50  VAL50       0.0019
     84  CG2       17.0910   10.3790    8.3930 C.3    50  VAL50       0.0019
     85  N         14.7420    5.7800    5.7430 N.3    66  PHE66      -0.1241
     86  CA        15.6790    5.9050    4.6740 C.3    66  PHE66       0.1605
     87  C         17.0580    6.1930    5.2870 C.2    66  PHE66       0.2264
     88  O         17.1940    6.5840    6.4670 O.2    66  PHE66      -0.2867
     89  CB        15.3290    6.9720    3.6070 C.3    66  PHE66       0.0534
     90  CG        15.4270    8.3660    4.0860 C.ar   66  PHE66      -0.0203
     91  CD1       16.5610    9.1250    3.8290 C.ar   66  PHE66      -0.0042
     92  CD2       14.3640    8.9480    4.7640 C.ar   66  PHE66      -0.0042
     93  CE1       16.6460   10.4460    4.2800 C.ar   66  PHE66      -0.0003
     94  CE2       14.4530   10.2830    5.1790 C.ar   66  PHE66      -0.0003
     95  CZ        15.5680   11.0090    4.9740 C.ar   66  PHE66      -0.0000
     96  N         20.4920    8.4950    4.8080 N.3    68  VAL68      -0.1231
     97  CA        21.1560    9.6810    4.2070 C.3    68  VAL68       0.1692
     98  C         22.2510    9.2830    3.1800 C.2    68  VAL68       0.2591
     99  O         22.5440   10.0500    2.2470 O.2    68  VAL68      -0.2718
    100  CB        21.7590   10.6250    5.3000 C.3    68  VAL68       0.0266
    101  CG1       22.4380   11.8060    4.6300 C.3    68  VAL68       0.0020
    102  CG2       20.7350   11.0560    6.2910 C.3    68  VAL68       0.0020
    103  N         22.7870    8.0920    3.3130 N.am   69  LYS69      -0.1980
    104  CA        23.8190    7.5850    2.3930 C.3    69  LYS69       0.1596
    105  C         23.1850    7.0590    1.0910 C.2    69  LYS69       0.2287
    106  O         23.9050    6.7730    0.1150 O.2    69  LYS69      -0.2864
    107  CB        24.6820    6.5130    3.0970 C.3    69  LYS69       0.0298
    108  CG        25.3370    7.0880    4.3400 C.3    69  LYS69       0.0038
    109  CD        26.4390    6.2530    4.9820 C.3    69  LYS69       0.0206
    110  CE        26.0100    4.8400    5.3380 C.3    69  LYS69       0.1093
    111  NZ        27.1690    4.1650    5.9890 N.3    69  LYS69      -0.1314
    112  N         19.9460    8.6420   -0.7350 N.3    71  PRO71      -0.2116
    113  CA        18.8410    9.5730   -0.7520 C.3    71  PRO71       0.1372
    114  C         17.8030    9.4260   -1.8540 C.2    71  PRO71       0.2244
    115  O         16.9730   10.3160   -2.0050 O.2    71  PRO71      -0.2868
    116  CB        19.5450   10.9270   -0.9920 C.3    71  PRO71       0.0268
    117  CG        20.7820   10.5760   -1.7070 C.3    71  PRO71       0.0207
    118  CD        21.2200    9.2660   -1.1490 C.3    71  PRO71       0.0892
    119  N         14.3000   10.5610   -1.1780 N.3    74  LEU74      -0.1245
    120  CA        14.0840   12.0230   -1.2160 C.3    74  LEU74       0.1561
    121  C         13.8860   12.5610   -2.5710 C.2    74  LEU74       0.2260
    122  O         13.0040   13.3740   -2.7610 O.2    74  LEU74      -0.2867
    123  CB        15.2350   12.8410   -0.5790 C.3    74  LEU74       0.0270
    124  CG        15.5000   12.4490    0.8750 C.3    74  LEU74       0.0019
    125  CD1       16.7650   13.1420    1.3680 C.3    74  LEU74       0.0001
    126  CD2       14.3210   12.8080    1.7580 C.3    74  LEU74       0.0001
@<TRIPOS>BOND
     1   122   121    2
     2   121   120    1
     3   115   114    2
     4   114   113    1
     5   117   118    1
     6   117   116    1
     7   120   119    1
     8   120   123    1
     9   118   112    1
    10   116   113    1
    11   113   112    1
    12     6     7    1
    13     6     5    1
    14   123   124    1
    15     7     8    1
    16   106   105    2
    17     5     2    1
    18     1     2    1
    19   124   125    1
    20   124   126    1
    21   105   104    1
    22     2     3    1
    23    26    24    1
    24    99    98    2
    25   104   107    1
    26   104   103    1
    27     3     9   am
    28     3     4    2
    29     9    10    1
    30   107   108    1
    31    98   103   am
    32    98    97    1
    33    24    25    1
    34    24    23    1
    35    89    90    1
    36    89    86    1
    37    91    90   ar
    38    91    93   ar
    39    23    20    1
    40    90    92   ar
    41    13    10    1
    42    13    14    1
    43    97    96    1
    44    97   100    1
    45    10    11    1
    46    93    95   ar
    47   108   109    1
    48   101   100    1
    49    86    87    1
    50    86    85    1
    51    92    94   ar
    52    95    94   ar
    53   109   110    1
    54    19    20    1
    55    11    12    2
    56    87    88    2
    57    20    21    1
    58   100   102    1
    59   110   111    1
    60    14    16   ar
    61    14    15   ar
    62    16    18   ar
    63    27    21   am
    64    27    28    1
    65    15    17   ar
    66    21    22    2
    67    38    36    1
    68    28    29    1
    69    18    17   ar
    70    74    76   ar
    71    74    73   ar
    72    71    70    2
    73    72    73    1
    74    72    69    1
    75    76    77   ar
    76    73    75   ar
    77    84    82    1
    78    82    83    1
    79    82    79    1
    80    81    80    2
    81    36    35    1
    82    70    69    1
    83    29    30    2
    84    69    68    1
    85    77    75   ar
    86    78    79    1
    87    79    80    1
    88    35    37    1
    89    35    32    1
    90    31    32    1
    91    68    61   am
    92    32    33    1
    93    62    61    2
    94    61    60    1
    95    33    39   am
    96    33    34    2
    97    39    40    1
    98    60    59    1
    99    60    63    1
   100    51    48    1
   101    51    52    1
   102    45    44    1
   103    45    46    1
   104    48    47    1
   105    48    49    1
   106    44    43    1
   107    43    40    1
   108    63    64    1
   109    40    41    1
   110    52    54   ar
   111    52    53   ar
   112    54    56   ar
   113    49    50    2
   114    41    42    2
   115    64    65    1
   116    53    55   ar
   117    56    57   ar
   118    66    65    2
   119    65    67   am
   120    55    57   ar
   121    57    58    1
