@<TRIPOS>MOLECULE
tmp/4ry0A00.pdb
 115 109 0 0 0
SMALL
GASTEIGER

@<TRIPOS>ATOM
      1  N         21.4420   28.0850   25.0310 N.3    14  ASN14      -0.1240
      2  CA        21.2750   26.7060   24.5700 C.3    14  ASN14       0.1653
      3  C         21.2290   25.8420   25.8270 C.2    14  ASN14       0.2266
      4  O         22.1800   25.8030   26.5870 O.2    14  ASN14      -0.2867
      5  CB        22.4640   26.3460   23.6730 C.3    14  ASN14       0.1155
      6  CG        22.4430   24.9120   23.1920 C.2    14  ASN14       0.2627
      7  OD1       21.7300   24.0700   23.7410 O.2    14  ASN14      -0.2716
      8  ND2       23.1520   24.6750   22.1010 N.am   14  ASN14      -0.0877
      9  N         21.6490   22.8950   26.4340 N.3    16  PHE16      -0.1227
     10  CA        22.7340   21.8760   26.5410 C.3    16  PHE16       0.1736
     11  C         23.8690   22.3670   27.4390 C.2    16  PHE16       0.2595
     12  O         24.3430   21.6690   28.3490 O.2    16  PHE16      -0.2718
     13  CB        23.2520   21.4870   25.1460 C.3    16  PHE16       0.0547
     14  CG        24.1410   20.3020   25.1530 C.ar   16  PHE16      -0.0202
     15  CD1       23.5950   19.0690   25.0080 C.ar   16  PHE16      -0.0042
     16  CD2       25.4940   20.4110   25.2930 C.ar   16  PHE16      -0.0042
     17  CE1       24.3780   17.9570   24.9540 C.ar   16  PHE16      -0.0003
     18  CE2       26.3050   19.2740   25.2780 C.ar   16  PHE16      -0.0003
     19  CZ        25.7220   18.0420   25.1320 C.ar   16  PHE16      -0.0000
     20  N         24.2760   23.6220   27.2080 N.am   17  PHE17      -0.1976
     21  CA        25.4190   24.1600   27.9400 C.3    17  PHE17       0.1639
     22  C         25.0610   24.4990   29.3780 C.2    17  PHE17       0.2290
     23  O         25.8570   24.3350   30.2950 O.2    17  PHE17      -0.2864
     24  CB        25.9840   25.3710   27.2080 C.3    17  PHE17       0.0560
     25  CG        26.3270   25.1040   25.7540 C.ar   17  PHE17      -0.0200
     26  CD1       27.0620   23.9760   25.3860 C.ar   17  PHE17      -0.0042
     27  CD2       25.8740   25.9520   24.7490 C.ar   17  PHE17      -0.0042
     28  CE1       27.3570   23.7390   24.0510 C.ar   17  PHE17      -0.0003
     29  CE2       26.1580   25.7100   23.4170 C.ar   17  PHE17      -0.0003
     30  CZ        26.8870   24.5690   23.0590 C.ar   17  PHE17      -0.0000
     31  N         32.3880   17.6710   25.8970 N.3    90  ASP90      -0.1225
     32  CA        31.5260   17.9110   24.7400 C.3    90  ASP90       0.1805
     33  C         32.2870   18.1140   23.4240 C.2    90  ASP90       0.2597
     34  O         32.0690   17.3890   22.4470 O.2    90  ASP90      -0.2718
     35  CB        30.6390   19.1530   25.0310 C.3    90  ASP90       0.1424
     36  CG        29.6740   19.4580   23.9360 C.2    90  ASP90       0.3668
     37  OD1       29.4500   18.5930   23.0710 O.co2  90  ASP90      -0.2456
     38  OD2       29.1110   20.6060   23.9360 O.co2  90  ASP90      -0.2456
     39  N         33.1640   19.1320   23.3990 N.am   91  ARG91      -0.1979
     40  CA        33.8940   19.5070   22.2230 C.3    91  ARG91       0.1597
     41  C         35.3910   19.1970   22.4080 C.2    91  ARG91       0.2287
     42  O         35.9870   19.4850   23.4480 O.2    91  ARG91      -0.2864
     43  CB        33.7180   21.0140   22.0130 C.3    91  ARG91       0.0334
     44  CG        32.3140   21.3620   21.5720 C.3    91  ARG91       0.0492
     45  CD        32.1410   22.8820   21.5230 C.3    91  ARG91       0.2205
     46  NE        30.8030   23.2340   21.0990 N.pl3  91  ARG91      -0.0865
     47  CZ        30.3420   24.4660   20.9490 C.cat  91  ARG91       0.5346
     48  NH1       31.1280   25.4980   21.2420 N.pl3  91  ARG91       0.1354
     49  NH2       29.1410   24.6480   20.4370 N.pl3  91  ARG91       0.1354
     50  N         33.6120   23.7510   15.3030 N.3   137  ASP137     -0.1239
     51  CA        33.3110   22.6470   16.2190 C.3   137  ASP137      0.1674
     52  C         33.4110   21.3600   15.4380 C.2   137  ASP137      0.2266
     53  O         32.6080   21.1690   14.5100 O.2   137  ASP137     -0.2867
     54  CB        31.8850   22.8360   16.7300 C.3   137  ASP137      0.1410
     55  CG        31.3940   21.7470   17.6530 C.2   137  ASP137      0.3668
     56  OD1       32.1200   20.7700   17.9500 O.co2 137  ASP137     -0.2456
     57  OD2       30.2170   21.8800   18.0650 O.co2 137  ASP137     -0.2456
     58  N         32.3960   18.5970   16.1270 N.3   139  ASN139     -0.1240
     59  CA        31.1350   17.8500   16.2290 C.3   139  ASN139      0.1653
     60  C         30.2320   18.0600   15.0210 C.2   139  ASN139      0.2266
     61  O         29.4810   17.1690   14.6250 O.2   139  ASN139     -0.2867
     62  CB        30.3670   18.1670   17.4830 C.3   139  ASN139      0.1155
     63  CG        31.0790   17.7460   18.7390 C.2   139  ASN139      0.2627
     64  OD1       32.0150   16.9280   18.7130 O.2   139  ASN139     -0.2716
     65  ND2       30.6720   18.3320   19.8550 N.am  139  ASN139     -0.0877
     66  N         28.9890   14.7460   12.8530 N.3   143  ARG143     -0.1245
     67  CA        27.5710   14.3680   12.7900 C.3   143  ARG143      0.1563
     68  C         27.0850   14.3410   11.3390 C.2   143  ARG143      0.2260
     69  O         26.3670   13.4410   10.8980 O.2   143  ARG143     -0.2867
     70  CB        26.6980   15.2760   13.6400 C.3   143  ARG143      0.0307
     71  CG        26.9800   15.1590   15.1000 C.3   143  ARG143      0.0489
     72  CD        26.2070   16.1090   15.9700 C.3   143  ARG143      0.2205
     73  NE        26.8470   16.2030   17.2630 N.pl3 143  ARG143     -0.0865
     74  CZ        26.6430   17.1670   18.1580 C.cat 143  ARG143      0.5346
     75  NH1       25.7850   18.1500   17.9030 N.pl3 143  ARG143      0.1354
     76  NH2       27.3120   17.1490   19.2960 N.pl3 143  ARG143      0.1354
     77  N         24.5240   26.2780   15.2150 N.3   167  TRP167     -0.1241
     78  CA        24.0130   25.8580   16.4910 C.3   167  TRP167      0.1605
     79  C         23.0460   26.8980   17.1200 C.2   167  TRP167      0.2264
     80  O         22.8250   26.8970   18.3340 O.2   167  TRP167     -0.2867
     81  CB        25.1230   25.5470   17.4960 C.3   167  TRP167      0.0550
     82  CG        26.1760   24.5540   17.1660 C.ar  167  TRP167      0.0003
     83  CD1       27.4640   24.6800   17.4750 C.ar  167  TRP167      0.0946
     84  CD2       26.0390   23.2490   16.5420 C.ar  167  TRP167      0.0152
     85  NE1       28.1630   23.5430   17.1300 N.ar  167  TRP167     -0.2442
     86  CE2       27.3040   22.6700   16.5310 C.ar  167  TRP167      0.0810
     87  CE3       24.9870   22.5690   15.9600 C.ar  167  TRP167      0.0012
     88  CZ2       27.5100   21.3760   16.0720 C.ar  167  TRP167      0.0191
     89  CZ3       25.1800   21.3200   15.4930 C.ar  167  TRP167      0.0001
     90  CH2       26.4280   20.7590   15.5320 C.ar  167  TRP167      0.0015
     91  N         21.8560   19.5700   15.5940 N.3   193  ASN193     -0.1240
     92  CA        21.5680   19.7630   17.0170 C.3   193  ASN193      0.1653
     93  C         20.1020   20.1510   17.2910 C.2   193  ASN193      0.2266
     94  O         19.2960   20.2990   16.3640 O.2   193  ASN193     -0.2867
     95  CB        22.5220   20.7240   17.7180 C.3   193  ASN193      0.1155
     96  CG        22.0340   22.1820   17.6900 C.2   193  ASN193      0.2627
     97  OD1       21.3480   22.5860   16.7630 O.2   193  ASN193     -0.2716
     98  ND2       22.3510   22.9110   18.7220 N.am  193  ASN193     -0.0877
     99  N         20.7720   15.9800   20.5700 N.3   218  ASP218     -0.1239
    100  CA        21.1870   16.4630   21.9110 C.3   218  ASP218      0.1674
    101  C         20.3660   15.7930   23.0200 C.2   218  ASP218      0.2266
    102  O         20.9070   15.3590   24.0610 O.2   218  ASP218     -0.2867
    103  CB        21.0810   17.9990   22.0940 C.3   218  ASP218      0.1410
    104  CG        22.2350   18.7550   21.4930 C.2   218  ASP218      0.3668
    105  OD1       23.2930   18.1550   21.2310 O.co2 218  ASP218     -0.2456
    106  OD2       22.0170   19.9920   21.2970 O.co2 218  ASP218     -0.2456
    107  N         22.7260   12.9930   24.0970 N.3   238  GLN238     -0.1245
    108  CA        24.0600   13.0650   24.6780 C.3   238  GLN238      0.1566
    109  C         23.9140   13.1970   26.1770 C.2   238  GLN238      0.2260
    110  O         23.1060   14.0150   26.6580 O.2   238  GLN238     -0.2867
    111  CB        24.8250   14.3290   24.2070 C.3   238  GLN238      0.0367
    112  CG        25.0320   14.4880   22.7400 C.3   238  GLN238      0.0905
    113  CD        26.0340   15.5810   22.4660 C.2   238  GLN238      0.2608
    114  OE1       27.2440   15.3850   22.6560 O.2   238  GLN238     -0.2717
    115  NE2       25.5470   16.7520   22.0570 N.am  238  GLN238     -0.0878
@<TRIPOS>BOND
     1    69    68    2
     2    68    67    1
     3    67    66    1
     4    67    70    1
     5    70    71    1
     6    53    52    2
     7    61    60    2
     8    60    59    1
     9    71    72    1
    10    77    78    1
    11    50    51    1
    12    52    51    1
    13    89    90   ar
    14    89    87   ar
    15    90    88   ar
    16    91    92    1
    17    87    84   ar
    18    72    73    1
    19    88    86   ar
    20    58    59    1
    21    51    54    1
    22    59    62    1
    23    94    93    2
    24    78    79    1
    25    78    81    1
    26    86    84   ar
    27    86    85   ar
    28    84    82   ar
    29    54    55    1
    30    97    96    2
    31    92    93    1
    32    92    95    1
    33    79    80    2
    34    85    83   ar
    35    82    83   ar
    36    82    81    1
    37    73    74    2
    38    62    63    1
    39    55    56   ar
    40    55    57   ar
    41    96    95    1
    42    96    98   am
    43    75    74    1
    44    74    76    1
    45    64    63    2
    46    63    65   am
    47    49    47    1
    48    99   100    1
    49    47    46    2
    50    47    48    1
    51    46    45    1
    52   105   104   ar
    53   106   104   ar
    54   104   103    1
    55    45    44    1
    56    44    43    1
    57   100   103    1
    58   100   101    1
    59    43    40    1
    60   115   113   am
    61     8     6   am
    62    40    41    1
    63    40    39    1
    64    41    42    2
    65    34    33    2
    66   113   114    2
    67   113   112    1
    68   112   111    1
    69   101   102    2
    70    30    29   ar
    71    30    28   ar
    72    37    36   ar
    73     6     5    1
    74     6     7    2
    75    39    33   am
    76    29    27   ar
    77    33    32    1
    78     5     2    1
    79    36    38   ar
    80    36    35    1
    81    28    26   ar
    82   107   108    1
    83   111   108    1
    84     2     1    1
    85     2     3    1
    86   108   109    1
    87    32    35    1
    88    32    31    1
    89    27    25   ar
    90    17    15   ar
    91    17    19   ar
    92    15    14   ar
    93    19    18   ar
    94    13    14    1
    95    13    10    1
    96    14    16   ar
    97    18    16   ar
    98    26    25   ar
    99    25    24    1
   100     3     4    2
   101   109   110    2
   102     9    10    1
   103    10    11    1
   104    20    11   am
   105    20    21    1
   106    24    21    1
   107    11    12    2
   108    21    22    1
   109    22    23    2
