@<TRIPOS>MOLECULE
tmp/4ry8B00.pdb
 141 138 0 0 0
SMALL
GASTEIGER

@<TRIPOS>ATOM
      1  N         46.2220   58.6400   -1.4270 N.3    18  VAL18      -0.1245
      2  CA        47.6590   58.7360   -1.7040 C.3    18  VAL18       0.1561
      3  C         47.8260   59.0990   -3.1750 C.2    18  VAL18       0.2260
      4  O         47.1320   58.5540   -4.0270 O.2    18  VAL18      -0.2867
      5  CB        48.3920   57.4010   -1.3230 C.3    18  VAL18       0.0252
      6  CG1       49.8570   57.3900   -1.7480 C.3    18  VAL18       0.0019
      7  CG2       48.3130   57.1810    0.1740 C.3    18  VAL18       0.0019
      8  N         53.2350   55.5400  -10.4090 N.3    23  PHE23      -0.1227
      9  CA        52.0840   54.6410  -10.4570 C.3    23  PHE23       0.1736
     10  C         50.7780   55.4000  -10.2450 C.2    23  PHE23       0.2595
     11  O         49.8210   55.1750  -10.9440 O.2    23  PHE23      -0.2718
     12  CB        52.1540   53.5630   -9.3560 C.3    23  PHE23       0.0547
     13  CG        50.9270   52.6760   -9.2940 C.ar   23  PHE23      -0.0202
     14  CD1       49.7850   53.0610   -8.5820 C.ar   23  PHE23      -0.0042
     15  CD2       50.9180   51.4580   -9.9440 C.ar   23  PHE23      -0.0042
     16  CE1       48.6630   52.2370   -8.5100 C.ar   23  PHE23      -0.0003
     17  CE2       49.8150   50.6330   -9.8750 C.ar   23  PHE23      -0.0003
     18  CZ        48.6820   51.0130   -9.1590 C.ar   23  PHE23      -0.0000
     19  N         50.7160   56.2090   -9.1930 N.am   24  PHE24      -0.1976
     20  CA        49.5030   56.9300   -8.8830 C.3    24  PHE24       0.1639
     21  C         49.2290   58.0300   -9.9230 C.2    24  PHE24       0.2290
     22  O         48.0740   58.2810  -10.2770 O.2    24  PHE24      -0.2864
     23  CB        49.5930   57.5110   -7.4750 C.3    24  PHE24       0.0560
     24  CG        49.4010   56.4770   -6.3970 C.ar   24  PHE24      -0.0200
     25  CD1       48.1520   55.9000   -6.2100 C.ar   24  PHE24      -0.0042
     26  CD2       50.4380   56.0790   -5.5820 C.ar   24  PHE24      -0.0042
     27  CE1       47.9580   54.9340   -5.2310 C.ar   24  PHE24      -0.0003
     28  CE2       50.2440   55.1510   -4.5720 C.ar   24  PHE24      -0.0003
     29  CZ        49.0080   54.5600   -4.4080 C.ar   24  PHE24      -0.0000
     30  N         42.1480   53.7110   -2.0260 N.3    73  HIS73      -0.1241
     31  CA        42.8520   53.4510   -0.7680 C.3    73  HIS73       0.1621
     32  C         42.0010   53.8670    0.3960 C.2    73  HIS73       0.2264
     33  O         40.7670   53.8800    0.2690 O.2    73  HIS73      -0.2867
     34  CB        44.2590   54.0190   -0.7660 C.3    73  HIS73       0.0745
     35  CG        45.1700   53.3530   -1.7380 C.ar   73  HIS73       0.0817
     36  ND1       44.9510   53.4050   -3.0920 N.ar   73  HIS73      -0.2268
     37  CD2       46.2980   52.6250   -1.5650 C.ar   73  HIS73       0.1154
     38  CE1       45.8970   52.7350   -3.7200 C.ar   73  HIS73       0.1986
     39  NE2       46.7360   52.2590   -2.8250 N.ar   73  HIS73      -0.2212
     40  N         38.8430   51.1450   -5.1500 N.3    96  PHE96      -0.1227
     41  CA        40.1520   50.6490   -5.5480 C.3    96  PHE96       0.1736
     42  C         40.9850   50.5320   -4.2900 C.2    96  PHE96       0.2595
     43  O         41.1860   51.5210   -3.5990 O.2    96  PHE96      -0.2718
     44  CB        40.8400   51.6030   -6.5660 C.3    96  PHE96       0.0547
     45  CG        42.2170   51.1440   -6.9620 C.ar   96  PHE96      -0.0202
     46  CD1       42.4140   49.8630   -7.4420 C.ar   96  PHE96      -0.0042
     47  CD2       43.3050   51.9780   -6.8630 C.ar   96  PHE96      -0.0042
     48  CE1       43.6610   49.4230   -7.7550 C.ar   96  PHE96      -0.0003
     49  CE2       44.5750   51.5250   -7.1640 C.ar   96  PHE96      -0.0003
     50  CZ        44.7350   50.2470   -7.6380 C.ar   96  PHE96      -0.0000
     51  N         41.4400   49.3260   -3.9880 N.am   97  ASP97      -0.1974
     52  CA        42.3100   49.0650   -2.8610 C.3    97  ASP97       0.1709
     53  C         41.6690   49.4410   -1.5760 C.2    97  ASP97       0.2293
     54  O         42.3110   50.0530   -0.7660 O.2    97  ASP97      -0.2864
     55  CB        43.6570   49.7760   -3.0020 C.3    97  ASP97       0.1436
     56  CG        44.5960   49.0760   -3.9910 C.2    97  ASP97       0.3671
     57  OD1       44.2820   47.9560   -4.4320 O.co2  97  ASP97      -0.2456
     58  OD2       45.6650   49.6630   -4.3160 O.co2  97  ASP97      -0.2456
     59  N         44.2740   44.7330   -8.0120 N.3   110  GLN110     -0.1245
     60  CA        45.2280   44.0940   -8.9290 C.3   110  GLN110      0.1566
     61  C         45.5590   42.6400   -8.6270 C.2   110  GLN110      0.2260
     62  O         46.6250   42.1360   -9.0630 O.2   110  GLN110     -0.2867
     63  CB        46.5050   44.8840   -8.9230 C.3   110  GLN110      0.0367
     64  CG        46.2880   46.3410   -9.2570 C.3   110  GLN110      0.0905
     65  CD        47.5180   47.1510   -9.0960 C.2   110  GLN110      0.2608
     66  OE1       48.2530   47.4060  -10.0500 O.2   110  GLN110     -0.2717
     67  NE2       47.7950   47.5260   -7.8920 N.am  110  GLN110     -0.0878
     68  N         47.7330   49.5740    4.6780 N.3   141  PHE141     -0.1241
     69  CA        47.2810   49.7630    3.3180 C.3   141  PHE141      0.1605
     70  C         46.8030   48.4120    2.7870 C.2   141  PHE141      0.2264
     71  O         47.5680   47.4480    2.7720 O.2   141  PHE141     -0.2867
     72  CB        48.4310   50.2960    2.4940 C.3   141  PHE141      0.0534
     73  CG        48.7980   51.7470    2.7970 C.ar  141  PHE141     -0.0203
     74  CD1       48.0910   52.8130    2.2140 C.ar  141  PHE141     -0.0042
     75  CD2       49.8940   52.0440    3.6030 C.ar  141  PHE141     -0.0042
     76  CE1       48.4450   54.1290    2.4680 C.ar  141  PHE141     -0.0003
     77  CE2       50.2460   53.3750    3.8820 C.ar  141  PHE141     -0.0003
     78  CZ        49.5250   54.4150    3.3090 C.ar  141  PHE141     -0.0000
     79  N         46.4460   46.9230   -0.2520 N.3   143  PRO143     -0.2102
     80  CA        47.2580   46.0890   -1.1370 C.3   143  PRO143      0.1504
     81  C         48.5560   45.5680   -0.4920 C.2   143  PRO143      0.2575
     82  O         48.9210   44.4190   -0.6660 O.2   143  PRO143     -0.2718
     83  CB        47.5810   47.0320   -2.3260 C.3   143  PRO143      0.0282
     84  CG        47.3600   48.4110   -1.7770 C.3   143  PRO143      0.0208
     85  CD        46.1820   48.2370   -0.8420 C.3   143  PRO143      0.0893
     86  N         49.2040   46.4000    0.2740 N.am  144  LEU144     -0.1980
     87  CA        50.3920   46.0060    1.0010 C.3   144  LEU144      0.1596
     88  C         50.1140   44.9190    2.0770 C.2   144  LEU144      0.2287
     89  O         50.9740   44.0690    2.2480 O.2   144  LEU144     -0.2864
     90  CB        50.9970   47.2200    1.6990 C.3   144  LEU144      0.0297
     91  CG        51.2520   48.4390    0.8320 C.3   144  LEU144      0.0022
     92  CD1       51.9380   49.5300    1.6150 C.3   144  LEU144      0.0001
     93  CD2       52.0820   48.0010   -0.3760 C.3   144  LEU144      0.0001
     94  N         49.5530   41.7390    0.0600 N.3   147  ARG147     -0.1245
     95  CA        50.8760   41.2600   -0.4160 C.3   147  ARG147      0.1563
     96  C         51.6540   40.6840    0.7710 C.2   147  ARG147      0.2260
     97  O         52.3330   39.6790    0.6340 O.2   147  ARG147     -0.2867
     98  CB        51.6720   42.3650   -0.9700 C.3   147  ARG147      0.0307
     99  CG        51.1400   42.7210   -2.3570 C.3   147  ARG147      0.0489
    100  CD        51.4590   44.1340   -2.8000 C.3   147  ARG147      0.2205
    101  NE        50.5010   44.6190   -3.8280 N.pl3 147  ARG147     -0.0865
    102  CZ        50.5330   45.8400   -4.3770 C.cat 147  ARG147      0.5346
    103  NH1       51.4590   46.7030   -4.0220 N.pl3 147  ARG147      0.1354
    104  NH2       49.6020   46.2380   -5.2610 N.pl3 147  ARG147      0.1354
    105  N         55.2500   55.2560    4.3720 N.3   170  VAL170     -0.1245
    106  CA        54.6670   56.0700    3.3320 C.3   170  VAL170      0.1561
    107  C         54.6570   57.4850    3.8940 C.2   170  VAL170      0.2260
    108  O         53.9630   57.7510    4.8610 O.2   170  VAL170     -0.2867
    109  CB        53.2480   55.5690    3.0180 C.3   170  VAL170      0.0252
    110  CG1       52.5710   56.4270    1.9550 C.3   170  VAL170      0.0019
    111  CG2       53.3080   54.1100    2.5700 C.3   170  VAL170      0.0019
    112  N         57.4190   46.0800   -1.6970 N.3   198  MET198     -0.1230
    113  CA        56.0440   45.8740   -2.1110 C.3   198  MET198      0.1702
    114  C         55.3120   47.1000   -2.7450 C.2   198  MET198      0.2592
    115  O         54.1040   47.0470   -2.9660 O.2   198  MET198     -0.2718
    116  CB        55.2810   45.2890   -0.9670 C.3   198  MET198      0.0401
    117  CG        55.7180   43.8750   -0.5800 C.3   198  MET198      0.0596
    118  SD        55.6210   42.6160   -1.8830 S.3   198  MET198     -0.1393
    119  CE        55.4400   41.1020   -0.8840 C.3   198  MET198      0.0692
    120  N         56.0710   48.1490   -3.0620 N.am  199  TRP199     -0.1976
    121  CA        55.6230   49.2840   -3.8990 C.3   199  TRP199      0.1640
    122  C         56.8150   49.7850   -4.6820 C.2   199  TRP199      0.2290
    123  O         57.9260   49.7940   -4.1540 O.2   199  TRP199     -0.2864
    124  CB        55.0620   50.3760   -2.9970 C.3   199  TRP199      0.0576
    125  CG        54.5830   51.6720   -3.5640 C.ar  199  TRP199      0.0006
    126  CD1       54.1560   51.9490   -4.8320 C.ar  199  TRP199      0.0946
    127  CD2       54.4630   52.8610   -2.8340 C.ar  199  TRP199      0.0152
    128  NE1       53.7780   53.2650   -4.9270 N.ar  199  TRP199     -0.2442
    129  CE2       53.9530   53.8420   -3.6940 C.ar  199  TRP199      0.0810
    130  CE3       54.6880   53.1910   -1.4840 C.ar  199  TRP199      0.0012
    131  CZ2       53.7170   55.1470   -3.2680 C.ar  199  TRP199      0.0191
    132  CZ3       54.4570   54.4720   -1.0640 C.ar  199  TRP199      0.0001
    133  CH2       53.9700   55.4380   -1.9320 C.ar  199  TRP199      0.0015
    134  N         54.7970   46.6540   -9.1030 N.3   225  ASP225     -0.1239
    135  CA        54.4730   47.8020   -9.9800 C.3   225  ASP225      0.1674
    136  C         55.4310   47.9400  -11.1650 C.2   225  ASP225      0.2266
    137  O         56.5860   47.5540  -11.1170 O.2   225  ASP225     -0.2867
    138  CB        54.3050   49.1630   -9.2760 C.3   225  ASP225      0.1410
    139  CG        53.4050   49.0740   -7.9870 C.2   225  ASP225      0.3668
    140  OD1       52.3380   48.4740   -8.0440 O.co2 225  ASP225     -0.2456
    141  OD2       53.7820   49.6190   -6.9520 O.co2 225  ASP225     -0.2456
@<TRIPOS>BOND
     1   136   137    2
     2   136   135    1
     3    11    10    2
     4     9     8    1
     5     9    10    1
     6     9    12    1
     7    22    21    2
     8    10    19   am
     9    66    65    2
    10   135   138    1
    11   135   134    1
    12    15    17   ar
    13    15    13   ar
    14    21    20    1
    15    17    18   ar
    16    12    13    1
    17    13    14   ar
    18   138   139    1
    19    64    65    1
    20    64    63    1
    21    19    20    1
    22    18    16   ar
    23    65    67   am
    24    62    61    2
    25    60    63    1
    26    60    61    1
    27    60    59    1
    28    20    23    1
    29    14    16   ar
    30   140   139   ar
    31   139   141   ar
    32    48    50   ar
    33    48    46   ar
    34    50    49   ar
    35    23    24    1
    36    46    45   ar
    37    49    47   ar
    38    45    47   ar
    39    45    44    1
    40    44    41    1
    41    24    25   ar
    42    24    26   ar
    43    25    27   ar
    44    26    28   ar
    45    41    40    1
    46    41    42    1
    47   104   102    1
    48    27    29   ar
    49   128   126   ar
    50   128   129   ar
    51   126   125   ar
    52   122   123    2
    53   122   121    1
    54    28    29   ar
    55    57    56   ar
    56   102   103    1
    57   102   101    2
    58    58    56   ar
    59    42    51   am
    60    42    43    2
    61     4     3    2
    62    56    55    1
    63    51    52    1
    64   121   120    1
    65   121   124    1
    66   101   100    1
    67    38    36   ar
    68    38    39   ar
    69   129   131   ar
    70   129   127   ar
    71   125   124    1
    72   125   127   ar
    73   131   133   ar
    74     3     2    1
    75    36    35   ar
    76   120   114   am
    77    55    52    1
    78   115   114    2
    79    52    53    1
    80   127   130   ar
    81    39    37   ar
    82   100    99    1
    83   114   113    1
    84    99    98    1
    85    83    84    1
    86    83    80    1
    87   113   112    1
    88   113   116    1
    89    30    31    1
    90   133   132   ar
    91   118   119    1
    92   118   117    1
    93    84    85    1
    94     6     5    1
    95    35    37   ar
    96    35    34    1
    97     2     1    1
    98     2     5    1
    99    53    54    2
   100   130   132   ar
   101     5     7    1
   102    80    81    1
   103    80    79    1
   104    98    95    1
   105   116   117    1
   106    85    79    1
   107    31    34    1
   108    31    32    1
   109    82    81    2
   110    81    86   am
   111    95    94    1
   112    95    96    1
   113    93    91    1
   114    33    32    2
   115    86    87    1
   116    97    96    2
   117    91    92    1
   118    91    90    1
   119    87    90    1
   120    87    88    1
   121   110   109    1
   122    88    89    2
   123    74    76   ar
   124    74    73   ar
   125    76    78   ar
   126    72    73    1
   127    72    69    1
   128   111   109    1
   129    71    70    2
   130    70    69    1
   131    73    75   ar
   132   109   106    1
   133    78    77   ar
   134    69    68    1
   135   106   107    1
   136   106   105    1
   137    75    77   ar
   138   107   108    2
