@<TRIPOS>MOLECULE
tmp/4ry9A00.pdb
 121 113 0 0 0
SMALL
GASTEIGER

@<TRIPOS>ATOM
      1  N         11.1380   11.8050   -3.4230 N.3    10  LYS10      -0.1245
      2  CA        12.0460   11.7130   -4.5670 C.3    10  LYS10       0.1561
      3  C         12.8830   10.4560   -4.4990 C.2    10  LYS10       0.2260
      4  O         13.2060    9.8930   -5.5300 O.2    10  LYS10      -0.2867
      5  CB        12.9700   12.9280   -4.6680 C.3    10  LYS10       0.0271
      6  CG        13.6890   13.3100   -3.3810 C.3    10  LYS10       0.0035
      7  CD        14.7260   14.3940   -3.5770 C.3    10  LYS10       0.0206
      8  CE        15.4160   14.7060   -2.2690 C.3    10  LYS10       0.1093
      9  NZ        16.5640   15.6470   -2.4740 N.3    10  LYS10      -0.1314
     10  N         19.0040    7.8980    1.3950 N.3    14  ALA14      -0.1245
     11  CA        19.8780    8.4880    2.4510 C.3    14  ALA14       0.1562
     12  C         19.0560    8.5000    3.7600 C.2    14  ALA14       0.2260
     13  O         17.8010    8.5040    3.7060 O.2    14  ALA14      -0.2867
     14  CB        20.3590    9.8940    2.0750 C.3    14  ALA14       0.0290
     15  N         18.1910   10.6210    6.0490 N.3    16  TYR16      -0.1227
     16  CA        17.2370   11.6930    6.1950 C.3    16  TYR16       0.1736
     17  C         15.9160   11.3480    5.5150 C.2    16  TYR16       0.2595
     18  O         14.8280   11.5470    6.0870 O.2    16  TYR16      -0.2718
     19  CB        17.8310   12.9890    5.6450 C.3    16  TYR16       0.0548
     20  CG        16.9090   14.1680    5.7230 C.ar   16  TYR16      -0.0200
     21  CD1       15.9600   14.3920    4.7410 C.ar   16  TYR16      -0.0009
     22  CD2       16.9770   15.0700    6.7730 C.ar   16  TYR16      -0.0009
     23  CE1       15.0980   15.4750    4.7950 C.ar   16  TYR16       0.0417
     24  CE2       16.1270   16.1590    6.8320 C.ar   16  TYR16       0.0417
     25  CZ        15.1960   16.3760    5.8370 C.ar   16  TYR16       0.1957
     26  OH        14.3430   17.4410    5.9230 O.3    16  TYR16      -0.2866
     27  N         16.0040   10.8640    4.2750 N.am   17  PHE17      -0.1976
     28  CA        14.8130   10.5830    3.4710 C.3    17  PHE17       0.1639
     29  C         13.9970    9.4480    4.0500 C.2    17  PHE17       0.2290
     30  O         12.7430    9.5030    4.0760 O.2    17  PHE17      -0.2864
     31  CB        15.1810   10.3400    1.9940 C.3    17  PHE17       0.0560
     32  CG        15.9780   11.4810    1.4030 C.ar   17  PHE17      -0.0200
     33  CD1       15.5040   12.7770    1.4540 C.ar   17  PHE17      -0.0042
     34  CD2       17.2580   11.2690    0.8760 C.ar   17  PHE17      -0.0042
     35  CE1       16.2490   13.8220    0.9750 C.ar   17  PHE17      -0.0003
     36  CE2       18.0030   12.3220    0.3930 C.ar   17  PHE17      -0.0003
     37  CZ        17.4970   13.5980    0.4620 C.ar   17  PHE17      -0.0000
     38  N         11.0940   19.9590    2.0730 N.3    90  ASP90      -0.1225
     39  CA        12.5620   19.7390    2.1000 C.3    90  ASP90       0.1805
     40  C         13.2620   20.2650    0.8540 C.2    90  ASP90       0.2598
     41  O         13.9450   21.2960    0.9220 O.2    90  ASP90      -0.2718
     42  CB        12.8950   18.2790    2.4020 C.3    90  ASP90       0.1424
     43  CG        14.3430   17.9890    2.2520 C.2    90  ASP90       0.3668
     44  OD1       15.1220   18.8130    2.7870 O.co2  90  ASP90      -0.2456
     45  OD2       14.7050   16.9610    1.6490 O.co2  90  ASP90      -0.2456
     46  N         13.1170   19.5780   -0.2740 N.am   91  SER91      -0.1952
     47  CA        13.6710   20.0850   -1.5340 C.3    91  SER91       0.1924
     48  C         12.7680   21.1590   -2.1030 C.2    91  SER91       0.2314
     49  O         11.5340   21.1150   -1.9660 O.2    91  SER91      -0.2863
     50  CB        13.8220   18.9590   -2.5450 C.3    91  SER91       0.2116
     51  OG        14.6310   17.8950   -2.0650 O.3    91  SER91      -0.2180
     52  N         21.4200   21.3450   -7.3740 N.3   138  ASN138     -0.1240
     53  CA        20.4590   21.3650   -6.2530 C.3   138  ASN138      0.1653
     54  C         20.4280   22.7290   -5.5500 C.2   138  ASN138      0.2266
     55  O         21.4700   23.1750   -5.0550 O.2   138  ASN138     -0.2867
     56  CB        20.7900   20.2640   -5.2680 C.3   138  ASN138      0.1155
     57  CG        19.7510   20.1340   -4.1750 C.2   138  ASN138      0.2627
     58  OD1       19.6760   20.9630   -3.2860 O.2   138  ASN138     -0.2716
     59  ND2       18.9160   19.0910   -4.2540 N.am  138  ASN138     -0.0877
     60  N         18.8890   23.8250   -2.7360 N.3   140  VAL140     -0.1245
     61  CA        19.1020   23.7670   -1.2800 C.3   140  VAL140      0.1561
     62  C         20.5910   23.5930   -0.9660 C.2   140  VAL140      0.2260
     63  O         21.1280   24.2810   -0.0980 O.2   140  VAL140     -0.2867
     64  CB        18.2740   22.6330   -0.6600 C.3   140  VAL140      0.0252
     65  CG1       18.8100   22.2190    0.6990 C.3   140  VAL140      0.0019
     66  CG2       16.8130   23.0620   -0.5730 C.3   140  VAL140      0.0019
     67  N         22.9620   26.2780    1.1010 N.3   144  ARG144     -0.1245
     68  CA        23.7640   25.8650    2.2450 C.3   144  ARG144      0.1563
     69  C         25.2390   26.2370    2.1030 C.2   144  ARG144      0.2260
     70  O         25.7970   26.8710    3.0050 O.2   144  ARG144     -0.2867
     71  CB        23.6200   24.3790    2.4800 C.3   144  ARG144      0.0307
     72  CG        22.2460   23.9990    2.9920 C.3   144  ARG144      0.0489
     73  CD        22.1180   22.5030    3.1160 C.3   144  ARG144      0.2205
     74  NE        20.7620   22.1590    3.4980 N.pl3 144  ARG144     -0.0865
     75  CZ        20.2990   20.9110    3.4630 C.cat 144  ARG144      0.5346
     76  NH1       21.1120   19.8940    3.1920 N.pl3 144  ARG144      0.1354
     77  NH2       19.0230   20.6800    3.7730 N.pl3 144  ARG144      0.1354
     78  N         24.8360   13.1870   -1.0300 N.3   175  TRP175     -0.1241
     79  CA        24.1130   13.2210    0.2570 C.3   175  TRP175      0.1605
     80  C         24.3620   12.0330    1.1470 C.2   175  TRP175      0.2264
     81  O         23.6980   11.8920    2.1620 O.2   175  TRP175     -0.2867
     82  CB        22.5980   13.4230    0.0840 C.3   175  TRP175      0.0550
     83  CG        22.1900   14.5430   -0.7870 C.ar  175  TRP175      0.0003
     84  CD1       21.6170   14.4520   -2.0210 C.ar  175  TRP175      0.0946
     85  CD2       22.3570   15.9390   -0.5270 C.ar  175  TRP175      0.0152
     86  NE1       21.3730   15.6980   -2.5290 N.ar  175  TRP175     -0.2442
     87  CE2       21.8440   16.6320   -1.6440 C.ar  175  TRP175      0.0810
     88  CE3       22.8760   16.6730    0.5510 C.ar  175  TRP175      0.0012
     89  CZ2       21.8360   18.0120   -1.7160 C.ar  175  TRP175      0.0191
     90  CZ3       22.8680   18.0440    0.4720 C.ar  175  TRP175      0.0001
     91  CH2       22.3360   18.6990   -0.6450 C.ar  175  TRP175      0.0015
     92  N         25.5980   18.2610    3.9780 N.3   201  ASN201     -0.1240
     93  CA        24.8930   17.4940    5.0210 C.3   201  ASN201      0.1653
     94  C         25.8860   16.7670    5.8970 C.2   201  ASN201      0.2266
     95  O         27.0760   16.7370    5.6100 O.2   201  ASN201     -0.2867
     96  CB        23.7620   16.5820    4.5020 C.3   201  ASN201      0.1155
     97  CG        24.2440   15.2960    3.8830 C.2   201  ASN201      0.2627
     98  OD1       25.4140   15.0910    3.6400 O.2   201  ASN201     -0.2716
     99  ND2       23.2900   14.3970    3.6510 N.am  201  ASN201     -0.0877
    100  N         25.8100   13.4410    6.6060 N.3   203  SER203     -0.1217
    101  CA        26.1210   12.0830    6.1330 C.3   203  SER203      0.1889
    102  C         27.4410   12.1220    5.3300 C.2   203  SER203      0.2288
    103  O         28.3360   11.2950    5.5170 O.2   203  SER203     -0.2866
    104  CB        24.9720   11.5330    5.2990 C.3   203  SER203      0.2089
    105  OG        23.7150   11.5560    5.9830 O.3   203  SER203     -0.2183
    106  N         22.4430   18.1910    8.8650 N.3   227  ASP227     -0.1239
    107  CA        21.0440   18.2470    9.2620 C.3   227  ASP227      0.1674
    108  C         20.8080   18.1170   10.7840 C.2   227  ASP227      0.2266
    109  O         19.6800   18.2190   11.2290 O.2   227  ASP227     -0.2867
    110  CB        20.3160   17.0240    8.7020 C.3   227  ASP227      0.1410
    111  CG        20.4190   16.8680    7.1810 C.2   227  ASP227      0.3668
    112  OD1       20.1110   17.8380    6.4450 O.co2 227  ASP227     -0.2456
    113  OD2       20.7320   15.7380    6.7350 O.co2 227  ASP227     -0.2456
    114  N         18.0630   20.5440   10.5960 N.3   247  ASN247     -0.1240
    115  CA        17.0970   20.1540    9.5760 C.3   247  ASN247      0.1653
    116  C         16.5420   18.8070    9.9730 C.2   247  ASN247      0.2266
    117  O         17.0590   17.7810    9.5770 O.2   247  ASN247     -0.2867
    118  CB        17.7770   20.0660    8.2140 C.3   247  ASN247      0.1155
    119  CG        16.8660   19.5350    7.1260 C.2   247  ASN247      0.2627
    120  OD1       15.6520   19.6040    7.1930 O.2   247  ASN247     -0.2716
    121  ND2       17.4830   18.9810    6.1080 N.am  247  ASN247     -0.0877
@<TRIPOS>BOND
     1    52    53    1
     2    53    54    1
     3    53    56    1
     4    54    55    2
     5     4     3    2
     6    56    57    1
     7     5     2    1
     8     5     6    1
     9     2     3    1
    10     2     1    1
    11    59    57   am
    12    57    58    2
    13     7     6    1
    14     7     8    1
    15    60    61    1
    16    50    51    1
    17    50    47    1
    18    86    84   ar
    19    86    87   ar
    20     9     8    1
    21    48    49    2
    22    48    47    1
    23    84    83   ar
    24    89    87   ar
    25    89    91   ar
    26    87    85   ar
    27    47    46    1
    28    61    62    1
    29    61    64    1
    30    78    79    1
    31    62    63    2
    32    83    85   ar
    33    83    82    1
    34    64    66    1
    35    64    65    1
    36    91    90   ar
    37    85    88   ar
    38    46    40   am
    39    82    79    1
    40    79    80    1
    41    36    37   ar
    42    36    34   ar
    43    37    35   ar
    44    90    88   ar
    45    40    41    2
    46    40    39    1
    47    34    32   ar
    48    35    33   ar
    49    67    68    1
    50    80    81    2
    51    10    11    1
    52    32    33   ar
    53    32    31    1
    54    45    43   ar
    55    31    28    1
    56    38    39    1
    57    14    11    1
    58    39    42    1
    59    69    68    1
    60    69    70    2
    61    68    71    1
    62    43    42    1
    63    43    44   ar
    64    11    12    1
    65    71    72    1
    66    72    73    1
    67    73    74    1
    68    76    75    1
    69    75    74    2
    70    75    77    1
    71    28    29    1
    72    28    27    1
    73    98    97    2
    74    99    97   am
    75    13    12    2
    76    97    96    1
    77    92    93    1
    78    29    30    2
    79    27    17   am
    80    96    93    1
    81    21    23   ar
    82    21    20   ar
    83    23    25   ar
    84    93    94    1
    85   104   105    1
    86   104   101    1
    87   102   103    2
    88   102   101    1
    89    17    18    2
    90    17    16    1
    91    95    94    2
    92    19    20    1
    93    19    16    1
    94    20    22   ar
    95    25    26    1
    96    25    24   ar
    97    15    16    1
    98   121   119   am
    99   101   100    1
   100   112   111   ar
   101   113   111   ar
   102    22    24   ar
   103   119   120    2
   104   119   118    1
   105   111   110    1
   106   118   115    1
   107   110   107    1
   108   106   107    1
   109   107   108    1
   110   115   116    1
   111   115   114    1
   112   117   116    2
   113   108   109    2
