@<TRIPOS>MOLECULE
tmp/4ryaA00.pdb
 157 152 0 0 0
SMALL
GASTEIGER

@<TRIPOS>ATOM
      1  N         35.0760   11.2390    6.2980 N.3    11  ASN11      -0.1240
      2  CA        34.2670   12.0680    7.1840 C.3    11  ASN11       0.1653
      3  C         32.9460   12.4610    6.5430 C.2    11  ASN11       0.2266
      4  O         32.8110   12.4920    5.3290 O.2    11  ASN11      -0.2867
      5  CB        34.9730   13.3120    7.6550 C.3    11  ASN11       0.1155
      6  CG        36.0930   13.0450    8.6350 C.2    11  ASN11       0.2627
      7  OD1       36.2900   11.9310    9.1390 O.2    11  ASN11      -0.2716
      8  ND2       36.8900   14.0900    8.8670 N.am   11  ASN11      -0.0877
      9  N         41.4860    8.7030    8.2400 N.3    40  GLU40      -0.1245
     10  CA        42.4700    9.7920    8.1450 C.3    40  GLU40       0.1567
     11  C         43.9200    9.3530    8.3740 C.2    40  GLU40       0.2260
     12  O         44.8200    9.8420    7.6930 O.2    40  GLU40      -0.2867
     13  CB        42.0950   10.9800    9.0360 C.3    40  GLU40       0.0388
     14  CG        42.0710   10.7740   10.5470 C.3    40  GLU40       0.1160
     15  CD        41.6090   12.0400   11.2210 C.2    40  GLU40       0.3649
     16  OE1       40.5260   12.5500   10.8440 O.co2  40  GLU40      -0.2457
     17  OE2       42.3770   12.5710   12.0500 O.co2  40  GLU40      -0.2457
     18  N         46.6340    9.9600    5.2270 N.3    44  ARG44      -0.1245
     19  CA        47.8480   10.7450    5.3980 C.3    44  ARG44       0.1563
     20  C         49.0910   10.0090    4.8970 C.2    44  ARG44       0.2260
     21  O         49.9460   10.5860    4.2250 O.2    44  ARG44      -0.2867
     22  CB        47.9920   11.1800    6.8570 C.3    44  ARG44       0.0307
     23  CG        46.9780   12.2550    7.2110 C.3    44  ARG44       0.0489
     24  CD        46.6990   12.3410    8.7160 C.3    44  ARG44       0.2205
     25  NE        45.8580   13.4990    8.9600 N.pl3  44  ARG44      -0.0865
     26  CZ        45.0400   13.6290   10.0010 C.cat  44  ARG44       0.5346
     27  NH1       45.0440   12.7150   10.9680 N.pl3  44  ARG44       0.1354
     28  NH2       44.2410   14.6870   10.0730 N.pl3  44  ARG44       0.1354
     29  N         36.4290   22.2860    4.4850 N.3   114  TYR114     -0.1241
     30  CA        35.8480   22.7690    5.7410 C.3   114  TYR114      0.1605
     31  C         36.9480   23.0470    6.7280 C.2   114  TYR114      0.2264
     32  O         38.0500   22.5240    6.5860 O.2   114  TYR114     -0.2867
     33  CB        34.7840   21.8550    6.3340 C.3   114  TYR114      0.0534
     34  CG        35.1910   20.5580    6.9970 C.ar  114  TYR114     -0.0201
     35  CD1       35.8070   20.5440    8.2460 C.ar  114  TYR114     -0.0009
     36  CD2       34.8600   19.3290    6.4290 C.ar  114  TYR114     -0.0009
     37  CE1       36.1190   19.3540    8.8650 C.ar  114  TYR114      0.0417
     38  CE2       35.1260   18.1330    7.0710 C.ar  114  TYR114      0.0417
     39  CZ        35.7530   18.1330    8.2740 C.ar  114  TYR114      0.1957
     40  OH        35.9980   16.9170    8.9000 O.3   114  TYR114     -0.2866
     41  N         37.6700   24.0590   11.1610 N.3   116  GLU116     -0.1245
     42  CA        37.1670   23.7780   12.4930 C.3   116  GLU116      0.1567
     43  C         38.0910   24.2960   13.5850 C.2   116  GLU116      0.2260
     44  O         39.2690   24.4990   13.3640 O.2   116  GLU116     -0.2867
     45  CB        37.0550   22.2560   12.6670 C.3   116  GLU116      0.0388
     46  CG        38.4220   21.5830   12.7920 C.3   116  GLU116      0.1160
     47  CD        38.3890   20.0820   12.7510 C.2   116  GLU116      0.3649
     48  OE1       37.5760   19.5230   12.0040 O.co2 116  GLU116     -0.2457
     49  OE2       39.1990   19.4750   13.4690 O.co2 116  GLU116     -0.2457
     50  N         39.2300   11.3020   22.1420 N.3   163  ARG163     -0.1245
     51  CA        40.0460   10.5130   21.2270 C.3   163  ARG163      0.1563
     52  C         41.0200    9.6820   22.0120 C.2   163  ARG163      0.2260
     53  O         41.7160   10.1920   22.8620 O.2   163  ARG163     -0.2867
     54  CB        40.8760   11.3540   20.2990 C.3   163  ARG163      0.0307
     55  CG        40.0140   12.2870   19.5160 C.3   163  ARG163      0.0489
     56  CD        40.7500   12.8380   18.3710 C.3   163  ARG163      0.2205
     57  NE        39.8400   13.6860   17.6240 N.pl3 163  ARG163     -0.0865
     58  CZ        40.2310   14.2930   16.5330 C.cat 163  ARG163      0.5346
     59  NH1       41.5010   14.1440   16.1120 N.pl3 163  ARG163      0.1354
     60  NH2       39.3970   15.0800   15.9230 N.pl3 163  ARG163      0.1354
     61  N         49.1070   10.6220   14.5590 N.3   168  TRP168     -0.1227
     62  CA        49.6130   11.9710   14.7720 C.3   168  TRP168      0.1737
     63  C         48.4900   12.9970   14.7960 C.2   168  TRP168      0.2596
     64  O         48.5640   13.9670   15.5190 O.2   168  TRP168     -0.2718
     65  CB        50.7250   12.3690   13.7880 C.3   168  TRP168      0.0564
     66  CG        50.3410   12.6470   12.3450 C.ar  168  TRP168      0.0003
     67  CD1       50.5130   11.8120   11.2840 C.ar  168  TRP168      0.0946
     68  CD2       49.8020   13.8640   11.8050 C.ar  168  TRP168      0.0152
     69  NE1       50.0900   12.4140   10.1230 N.ar  168  TRP168     -0.2442
     70  CE2       49.6580   13.6770   10.4170 C.ar  168  TRP168      0.0810
     71  CE3       49.4270   15.0890   12.3570 C.ar  168  TRP168      0.0012
     72  CZ2       49.1390   14.6590    9.5840 C.ar  168  TRP168      0.0191
     73  CZ3       48.9170   16.0570   11.5270 C.ar  168  TRP168      0.0001
     74  CH2       48.7770   15.8360   10.1580 C.ar  168  TRP168      0.0015
     75  N         47.4850   12.7930   13.9610 N.am  169  GLY169     -0.1957
     76  CA        46.3450   13.6830   13.9080 C.3   169  GLY169      0.1869
     77  C         45.0880   13.1870   14.5940 C.2   169  GLY169      0.2309
     78  O         44.0420   13.8130   14.4810 O.2   169  GLY169     -0.2863
     79  N         46.4360   14.9050   18.2350 N.3   173  ALA173     -0.1245
     80  CA        45.7830   16.2120   18.0610 C.3   173  ALA173      0.1562
     81  C         45.0750   16.6160   19.3370 C.2   173  ALA173      0.2260
     82  O         45.2960   17.7010   19.8850 O.2   173  ALA173     -0.2867
     83  CB        44.8100   16.1820   16.9060 C.3   173  ALA173      0.0290
     84  N         38.1100   10.1510   15.9240 N.3   224  PHE224     -0.1241
     85  CA        37.0440   11.1150   15.7390 C.3   224  PHE224      0.1605
     86  C         35.7220   10.4380   15.3880 C.2   224  PHE224      0.2264
     87  O         34.6860   10.7280   16.0010 O.2   224  PHE224     -0.2867
     88  CB        37.4510   12.1270   14.6590 C.3   224  PHE224      0.0534
     89  CG        36.3430   13.0510   14.2370 C.ar  224  PHE224     -0.0203
     90  CD1       35.8860   14.0650   15.0730 C.ar  224  PHE224     -0.0042
     91  CD2       35.7080   12.8670   13.0260 C.ar  224  PHE224     -0.0042
     92  CE1       34.8370   14.8900   14.6920 C.ar  224  PHE224     -0.0003
     93  CE2       34.6710   13.6940   12.6270 C.ar  224  PHE224     -0.0003
     94  CZ        34.2290   14.7030   13.4560 C.ar  224  PHE224     -0.0000
     95  N         36.2490   18.3410   17.5500 N.3   242  ALA242     -0.1245
     96  CA        36.1140   19.2410   16.4340 C.3   242  ALA242      0.1562
     97  C         34.7610   19.9150   16.3110 C.2   242  ALA242      0.2260
     98  O         33.7180   19.2390   16.4030 O.2   242  ALA242     -0.2867
     99  CB        36.3970   18.4640   15.1740 C.3   242  ALA242      0.0290
    100  N         33.3480   20.8490   13.6830 N.3   244  VAL244     -0.1245
    101  CA        32.6000   20.3150   12.5230 C.3   244  VAL244      0.1561
    102  C         31.5140   19.3310   12.9410 C.2   244  VAL244      0.2260
    103  O         30.4800   19.2280   12.2840 O.2   244  VAL244     -0.2867
    104  CB        33.5270   19.7400   11.4500 C.3   244  VAL244      0.0252
    105  CG1       34.2340   18.4880   11.9570 C.3   244  VAL244      0.0019
    106  CG2       32.7620   19.4500   10.1660 C.3   244  VAL244      0.0019
    107  N         41.7440   24.2380   18.9430 N.3   277  TRP277     -0.1241
    108  CA        42.6950   24.0760   17.8460 C.3   277  TRP277      0.1605
    109  C         42.2150   24.7520   16.5650 C.2   277  TRP277      0.2264
    110  O         41.1650   25.3960   16.5140 O.2   277  TRP277     -0.2867
    111  CB        43.0500   22.6000   17.6500 C.3   277  TRP277      0.0550
    112  CG        42.0250   21.6350   17.1040 C.ar  277  TRP277      0.0003
    113  CD1       41.4600   21.6380   15.8520 C.ar  277  TRP277      0.0946
    114  CD2       41.5360   20.4630   17.7570 C.ar  277  TRP277      0.0152
    115  NE1       40.6670   20.5440   15.7010 N.ar  277  TRP277     -0.2442
    116  CE2       40.6910   19.8020   16.8470 C.ar  277  TRP277      0.0810
    117  CE3       41.7710   19.8840   19.0030 C.ar  277  TRP277      0.0012
    118  CZ2       40.0210   18.6220   17.1560 C.ar  277  TRP277      0.0191
    119  CZ3       41.0910   18.7380   19.3340 C.ar  277  TRP277      0.0001
    120  CH2       40.2500   18.0880   18.4010 C.ar  277  TRP277      0.0015
    121  N         42.0620   23.5260   12.5330 N.3   279  TRP279     -0.1241
    122  CA        42.2970   22.5270   11.4920 C.3   279  TRP279      0.1605
    123  C         41.4650   22.8900   10.2840 C.2   279  TRP279      0.2264
    124  O         40.3790   23.4330   10.4190 O.2   279  TRP279     -0.2867
    125  CB        41.9770   21.1030   11.9600 C.3   279  TRP279      0.0550
    126  CG        42.1540   20.0440   10.9460 C.ar  279  TRP279      0.0003
    127  CD1       41.2040   19.4460   10.1640 C.ar  279  TRP279      0.0946
    128  CD2       43.4200   19.5070   10.5220 C.ar  279  TRP279      0.0152
    129  NE1       41.8130   18.5860    9.2930 N.ar  279  TRP279     -0.2442
    130  CE2       43.1610   18.5710    9.5190 C.ar  279  TRP279      0.0810
    131  CE3       44.7290   19.7070   10.9360 C.ar  279  TRP279      0.0012
    132  CZ2       44.1660   17.8510    8.9120 C.ar  279  TRP279      0.0191
    133  CZ3       45.7390   18.9620   10.3410 C.ar  279  TRP279      0.0001
    134  CH2       45.4480   18.0690    9.3470 C.ar  279  TRP279      0.0015
    135  N         40.4490   20.8120    6.4610 N.3   281  TRP281     -0.1241
    136  CA        40.5820   19.8340    5.3770 C.3   281  TRP281      0.1605
    137  C         40.4350   20.5390    4.0540 C.2   281  TRP281      0.2264
    138  O         39.4690   21.2480    3.8350 O.2   281  TRP281     -0.2867
    139  CB        39.5360   18.7390    5.5110 C.3   281  TRP281      0.0550
    140  CG        39.8420   17.6750    6.5660 C.ar  281  TRP281      0.0003
    141  CD1       39.1360   17.4560    7.7100 C.ar  281  TRP281      0.0946
    142  CD2       40.8420   16.6640    6.5190 C.ar  281  TRP281      0.0152
    143  NE1       39.6350   16.3690    8.3640 N.ar  281  TRP281     -0.2442
    144  CE2       40.6970   15.8700    7.6550 C.ar  281  TRP281      0.0810
    145  CE3       41.8920   16.3760    5.6330 C.ar  281  TRP281      0.0012
    146  CZ2       41.5150   14.7820    7.9050 C.ar  281  TRP281      0.0191
    147  CZ3       42.6920   15.2870    5.8830 C.ar  281  TRP281      0.0001
    148  CH2       42.5120   14.5050    6.9970 C.ar  281  TRP281      0.0015
    149  N         47.5850   21.9190   17.8240 N.3   367  GLN367     -0.1245
    150  CA        47.4270   20.4780   18.0520 C.3   367  GLN367      0.1566
    151  C         48.4490   19.6090   17.3460 C.2   367  GLN367      0.2260
    152  O         48.4190   18.3930   17.4850 O.2   367  GLN367     -0.2867
    153  CB        46.0000   20.0180   17.6770 C.3   367  GLN367      0.0367
    154  CG        45.6660   19.8580   16.1880 C.3   367  GLN367      0.0905
    155  CD        45.4210   21.1360   15.3960 C.2   367  GLN367      0.2608
    156  OE1       45.9300   22.2130   15.7270 O.2   367  GLN367     -0.2717
    157  NE2       44.6820   21.0120   14.2900 N.am  367  GLN367     -0.0878
@<TRIPOS>BOND
     1   138   137    2
     2   137   136    1
     3    21    20    2
     4    29    30    1
     5    20    19    1
     6    18    19    1
     7     4     3    2
     8   136   139    1
     9   136   135    1
    10    19    22    1
    11   139   140    1
    12   145   147   ar
    13   145   142   ar
    14    30    33    1
    15    30    31    1
    16   147   148   ar
    17     1     2    1
    18    33    34    1
    19    36    34   ar
    20    36    38   ar
    21   142   140   ar
    22   142   144   ar
    23     3     2    1
    24   140   141   ar
    25    32    31    2
    26    22    23    1
    27    34    35   ar
    28   148   146   ar
    29    38    39   ar
    30     2     5    1
    31    23    24    1
    32   144   146   ar
    33   144   143   ar
    34     5     6    1
    35    12    11    2
    36   141   143   ar
    37    10     9    1
    38    10    11    1
    39    10    13    1
    40    35    37   ar
    41    39    37   ar
    42    39    40    1
    43     6     8   am
    44     6     7    2
    45    24    25    1
    46   132   134   ar
    47   132   130   ar
    48    25    26    2
    49    13    14    1
    50   129   130   ar
    51   129   127   ar
    52   134   133   ar
    53   130   128   ar
    54    72    74   ar
    55    72    70   ar
    56    26    28    1
    57    26    27    1
    58    69    70   ar
    59    69    67   ar
    60    74    73   ar
    61   127   126   ar
    62   106   104    1
    63   123   124    2
    64   123   122    1
    65   133   131   ar
    66    70    68   ar
    67   128   131   ar
    68   128   126   ar
    69    14    15    1
    70    16    15   ar
    71   126   125    1
    72    41    42    1
    73    15    17   ar
    74    67    66   ar
    75   104   105    1
    76   104   101    1
    77   122   125    1
    78   122   121    1
    79    73    71   ar
    80    68    66   ar
    81    68    71   ar
    82    48    47   ar
    83   103   102    2
    84    66    65    1
    85    42    45    1
    86    42    43    1
    87   101   102    1
    88   101   100    1
    89    93    91   ar
    90    93    94   ar
    91    45    46    1
    92    47    46    1
    93    47    49   ar
    94    91    89   ar
    95    44    43    2
    96    94    92   ar
    97    65    62    1
    98    76    75    1
    99    76    77    1
   100    75    63   am
   101    89    88    1
   102    89    90   ar
   103   157   155   am
   104    78    77    2
   105    61    62    1
   106    88    85    1
   107    92    90   ar
   108    62    63    1
   109    63    64    2
   110    99    96    1
   111    86    85    1
   112    86    87    2
   113   155   156    2
   114   155   154    1
   115   115   113   ar
   116   115   116   ar
   117    85    84    1
   118   113   112   ar
   119    60    58    1
   120    59    58    1
   121   154   153    1
   122    97    98    2
   123    97    96    1
   124    96    95    1
   125   110   109    2
   126    58    57    2
   127   109   108    1
   128   116   118   ar
   129   116   114   ar
   130    83    80    1
   131   112   111    1
   132   112   114   ar
   133   118   120   ar
   134   151   152    2
   135   151   150    1
   136    57    56    1
   137   111   108    1
   138   153   150    1
   139   114   117   ar
   140   149   150    1
   141   108   107    1
   142    80    79    1
   143    80    81    1
   144    56    55    1
   145   120   119   ar
   146   117   119   ar
   147    81    82    2
   148    55    54    1
   149    54    51    1
   150    51    52    1
   151    51    50    1
   152    52    53    2
