@<TRIPOS>MOLECULE
tmp/4ryfH00.pdb
 106 101 0 0 0
SMALL
GASTEIGER

@<TRIPOS>ATOM
      1  N         40.6450  -18.8750  -30.5900 N.3    61  ILE61      -0.1245
      2  CA        41.5200  -20.0410  -30.7280 C.3    61  ILE61       0.1561
      3  C         42.3350  -20.2870  -29.4540 C.2    61  ILE61       0.2260
      4  O         42.4140  -21.4230  -28.9800 O.2    61  ILE61      -0.2867
      5  CB        42.4240  -19.9410  -31.9820 C.3    61  ILE61       0.0252
      6  CG1       41.5900  -20.1990  -33.2420 C.3    61  ILE61       0.0019
      7  CG2       43.5800  -20.9320  -31.9120 C.3    61  ILE61       0.0019
      8  CD1       42.2320  -19.7200  -34.5260 C.3    61  ILE61       0.0001
      9  N         34.3060  -24.8010  -35.9400 N.3    88  SER88      -0.1202
     10  CA        35.6120  -24.2260  -35.6150 C.3    88  SER88       0.2020
     11  C         36.2220  -24.8890  -34.3890 C.2    88  SER88       0.2618
     12  O         36.3600  -26.1130  -34.3330 O.2    88  SER88      -0.2717
     13  CB        35.5070  -22.7130  -35.3860 C.3    88  SER88       0.2103
     14  OG        35.6430  -21.9970  -36.5950 O.3    88  SER88      -0.2182
     15  N         36.5600  -24.0590  -33.4060 N.am   89  MET89      -0.1979
     16  CA        37.1390  -24.4960  -32.1460 C.3    89  MET89       0.1605
     17  C         36.2820  -25.5410  -31.4320 C.2    89  MET89       0.2287
     18  O         36.8040  -26.3740  -30.6860 O.2    89  MET89      -0.2864
     19  CB        37.3630  -23.2830  -31.2440 C.3    89  MET89       0.0413
     20  CG        38.5710  -23.4200  -30.3400 C.3    89  MET89       0.0598
     21  SD        40.0550  -23.8730  -31.2590 S.3    89  MET89      -0.1393
     22  CE        40.9470  -24.7440  -29.9790 C.3    89  MET89       0.0692
     23  N         37.1300  -28.7790  -33.0840 N.3    92  PHE92      -0.1241
     24  CA        38.4990  -29.0690  -32.6690 C.3    92  PHE92       0.1605
     25  C         38.5040  -29.7220  -31.2890 C.2    92  PHE92       0.2264
     26  O         39.1650  -30.7390  -31.0780 O.2    92  PHE92      -0.2867
     27  CB        39.3550  -27.7990  -32.6590 C.3    92  PHE92       0.0534
     28  CG        40.8050  -28.0510  -32.3500 C.ar   92  PHE92      -0.0203
     29  CD1       41.7000  -28.3750  -33.3650 C.ar   92  PHE92      -0.0042
     30  CD2       41.2750  -27.9780  -31.0420 C.ar   92  PHE92      -0.0042
     31  CE1       43.0350  -28.6150  -33.0820 C.ar   92  PHE92      -0.0003
     32  CE2       42.6090  -28.2130  -30.7530 C.ar   92  PHE92      -0.0003
     33  CZ        43.4890  -28.5320  -31.7740 C.ar   92  PHE92      -0.0000
     34  N         34.4550  -27.8400  -39.9640 N.3   112  ILE112     -0.1231
     35  CA        35.8850  -27.5620  -39.8300 C.3   112  ILE112      0.1692
     36  C         36.3130  -26.4090  -40.7380 C.2   112  ILE112      0.2592
     37  O         35.6110  -26.0480  -41.6880 O.2   112  ILE112     -0.2718
     38  CB        36.7610  -28.8210  -40.0150 C.3   112  ILE112      0.0266
     39  CG1       36.5620  -29.4350  -41.4060 C.3   112  ILE112      0.0019
     40  CG2       36.4700  -29.8240  -38.9020 C.3   112  ILE112      0.0020
     41  CD1       37.5120  -30.5690  -41.7270 C.3   112  ILE112      0.0001
     42  N         37.4870  -25.8570  -40.4480 N.am  113  HIS113     -0.1962
     43  CA        37.7020  -24.4380  -40.6310 C.3   113  HIS113      0.1787
     44  C         39.1720  -24.0660  -40.6160 C.2   113  HIS113      0.2620
     45  O         39.9550  -24.6030  -39.8340 O.2   113  HIS113     -0.2715
     46  CB        37.0560  -23.7580  -39.4290 C.3   113  HIS113      0.0785
     47  CG        36.3520  -22.4800  -39.7370 C.ar  113  HIS113      0.0821
     48  ND1       36.3610  -21.4110  -38.8700 N.ar  113  HIS113     -0.2267
     49  CD2       35.5890  -22.1080  -40.7900 C.ar  113  HIS113      0.1154
     50  CE1       35.6390  -20.4300  -39.3790 C.ar  113  HIS113      0.1986
     51  NE2       35.1620  -20.8250  -40.5450 N.ar  113  HIS113     -0.2212
     52  N         39.5290  -23.1250  -41.4780 N.am  114  GLN114     -0.1964
     53  CA        40.7980  -22.4210  -41.4050 C.3   114  GLN114      0.1718
     54  C         40.6370  -21.3190  -40.3470 C.2   114  GLN114      0.2458
     55  O         39.5340  -20.7860  -40.1910 O.2   114  GLN114     -0.2730
     56  CB        41.0780  -21.8300  -42.7820 C.3   114  GLN114      0.0407
     57  CG        42.2620  -20.8990  -42.9110 C.3   114  GLN114      0.0908
     58  CD        42.4460  -20.4070  -44.3340 C.2   114  GLN114      0.2608
     59  OE1       43.2750  -19.5430  -44.5900 O.2   114  GLN114     -0.2717
     60  NE2       41.6720  -20.9540  -45.2660 N.am  114  GLN114     -0.0878
     61  N         41.7150  -20.9910  -39.5970 N.am  115  PRO115     -0.2727
     62  CA        41.6440  -19.9170  -38.5980 C.3   115  PRO115      0.1402
     63  C         41.2480  -18.5550  -39.1620 C.2   115  PRO115      0.2269
     64  O         41.6490  -18.1960  -40.2730 O.2   115  PRO115     -0.2865
     65  CB        43.0740  -19.8470  -38.0610 C.3   115  PRO115      0.0296
     66  CG        43.5930  -21.2270  -38.2240 C.3   115  PRO115      0.0237
     67  CD        42.9950  -21.7220  -39.5110 C.3   115  PRO115      0.0939
     68  N         47.5070  -26.2380  -35.7300 N.3   140  MET140     -0.1230
     69  CA        46.1220  -26.7170  -35.6350 C.3   140  MET140      0.1702
     70  C         45.8910  -27.8690  -36.6060 C.2   140  MET140      0.2592
     71  O         45.3660  -28.9150  -36.2190 O.2   140  MET140     -0.2718
     72  CB        45.1080  -25.5940  -35.8970 C.3   140  MET140      0.0401
     73  CG        45.1430  -24.4450  -34.8980 C.3   140  MET140      0.0596
     74  SD        44.9690  -24.9390  -33.1720 S.3   140  MET140     -0.1393
     75  CE        43.1860  -24.9660  -33.0110 C.3   140  MET140      0.0692
     76  N         46.2970  -27.6710  -37.8610 N.am  141  ASN141     -0.1974
     77  CA        46.2440  -28.7210  -38.8790 C.3   141  ASN141      0.1688
     78  C         47.0040  -29.9800  -38.4610 C.2   141  ASN141      0.2292
     79  O         46.5330  -31.0950  -38.6820 O.2   141  ASN141     -0.2864
     80  CB        46.7810  -28.2110  -40.2230 C.3   141  ASN141      0.1181
     81  CG        45.8130  -27.2790  -40.9380 C.2   141  ASN141      0.2629
     82  OD1       44.6270  -27.2140  -40.6150 O.2   141  ASN141     -0.2716
     83  ND2       46.3230  -26.5570  -41.9300 N.am  141  ASN141     -0.0877
     84  N         45.0360  -31.7780  -35.7210 N.3   144  MET144     -0.1245
     85  CA        43.8830  -32.4110  -36.3620 C.3   144  MET144      0.1570
     86  C         44.2500  -33.6370  -37.1880 C.2   144  MET144      0.2261
     87  O         43.5550  -34.6530  -37.1330 O.2   144  MET144     -0.2867
     88  CB        43.1140  -31.4180  -37.2240 C.3   144  MET144      0.0387
     89  CG        41.9250  -30.8200  -36.5070 C.3   144  MET144      0.0595
     90  SD        40.4570  -30.9070  -37.5400 S.3   144  MET144     -0.1393
     91  CE        39.2280  -30.3410  -36.3690 C.3   144  MET144      0.0692
     92  N         43.8970  -32.4880  -44.3090 N.3   155  ILE155     -0.1245
     93  CA        43.3410  -31.5040  -43.3760 C.3   155  ILE155      0.1561
     94  C         43.4400  -30.0870  -43.9500 C.2   155  ILE155      0.2260
     95  O         42.4560  -29.3430  -43.9460 O.2   155  ILE155     -0.2867
     96  CB        44.0100  -31.5740  -41.9790 C.3   155  ILE155      0.0252
     97  CG1       43.8080  -32.9590  -41.3390 C.3   155  ILE155      0.0019
     98  CG2       43.5040  -30.4600  -41.0640 C.3   155  ILE155      0.0019
     99  CD1       42.3650  -33.3710  -41.1170 C.3   155  ILE155      0.0001
    100  N         40.0560  -27.8710  -44.9020 N.3   159  THR159     -0.1218
    101  CA        39.7200  -26.7520  -44.0190 C.3   159  THR159      0.1862
    102  C         39.9290  -25.4000  -44.6920 C.2   159  THR159      0.2287
    103  O         39.7840  -24.3630  -44.0490 O.2   159  THR159     -0.2866
    104  CB        40.5160  -26.7800  -42.6960 C.3   159  THR159      0.1770
    105  OG1       41.9210  -26.8270  -42.9740 O.3   159  THR159     -0.2211
    106  CG2       40.1210  -27.9740  -41.8470 C.3   159  THR159      0.0375
@<TRIPOS>BOND
     1    60    58   am
     2   100   101    1
     3   102   103    2
     4   102   101    1
     5    59    58    2
     6    58    57    1
     7    92    93    1
     8   101   104    1
     9    94    95    2
    10    94    93    1
    11    93    96    1
    12   105   104    1
    13    57    56    1
    14    56    53    1
    15   104   106    1
    16    96    97    1
    17    96    98    1
    18    83    81   am
    19    41    39    1
    20    37    36    2
    21    52    53    1
    22    52    44   am
    23    39    38    1
    24    53    54    1
    25    97    99    1
    26    81    82    2
    27    81    80    1
    28    49    51   ar
    29    49    47   ar
    30    36    42   am
    31    36    35    1
    32    43    44    1
    33    43    42    1
    34    43    46    1
    35    44    45    2
    36    51    50   ar
    37    54    55    2
    38    54    61   am
    39    64    63    2
    40    80    77    1
    41    38    35    1
    42    38    40    1
    43    34    35    1
    44    47    46    1
    45    47    48   ar
    46    61    67    1
    47    61    62    1
    48    67    66    1
    49    50    48   ar
    50    63    62    1
    51    77    78    1
    52    77    76    1
    53    79    78    2
    54    62    65    1
    55    66    65    1
    56    76    70   am
    57    90    89    1
    58    90    91    1
    59    88    89    1
    60    88    85    1
    61    86    87    2
    62    86    85    1
    63    70    71    2
    64    70    69    1
    65    14    13    1
    66    85    84    1
    67     9    10    1
    68    72    69    1
    69    72    73    1
    70    68    69    1
    71    10    13    1
    72    10    11    1
    73    73    74    1
    74     8     6    1
    75    11    12    2
    76    11    15   am
    77    15    16    1
    78    29    31   ar
    79    29    28   ar
    80     6     5    1
    81    74    75    1
    82    23    24    1
    83    31    33   ar
    84    24    27    1
    85    24    25    1
    86    27    28    1
    87    28    30   ar
    88    16    17    1
    89    16    19    1
    90     5     7    1
    91     5     2    1
    92    33    32   ar
    93    17    18    2
    94    25    26    2
    95    21    20    1
    96    21    22    1
    97    19    20    1
    98    30    32   ar
    99     2     1    1
   100     2     3    1
   101     3     4    2
