@<TRIPOS>MOLECULE
tmp/4ryfK00.pdb
 104 100 0 0 0
SMALL
GASTEIGER

@<TRIPOS>ATOM
      1  N         14.3220   19.2700   -4.7990 N.3    61  ILE61      -0.1245
      2  CA        13.9190   20.0510   -3.6310 C.3    61  ILE61       0.1561
      3  C         12.8060   19.3550   -2.8460 C.2    61  ILE61       0.2260
      4  O         12.8770   19.2520   -1.6190 O.2    61  ILE61      -0.2867
      5  CB        13.5390   21.5070   -4.0110 C.3    61  ILE61       0.0252
      6  CG1       14.8100   22.3050   -4.3360 C.3    61  ILE61       0.0019
      7  CG2       12.7720   22.1910   -2.8820 C.3    61  ILE61       0.0019
      8  CD1       14.5680   23.5870   -5.1010 C.3    61  ILE61       0.0001
      9  N         23.5400   22.6930   -2.0680 N.3    88  SER88      -0.1202
     10  CA        22.0990   22.8260   -2.2970 C.3    88  SER88       0.2020
     11  C         21.3010   22.1830   -1.1730 C.2    88  SER88       0.2618
     12  O         21.5090   22.4850    0.0060 O.2    88  SER88      -0.2717
     13  CB        21.6900   22.2040   -3.6390 C.3    88  SER88       0.2103
     14  OG        21.7940   23.1410   -4.6890 O.3    88  SER88      -0.2182
     15  N         20.4130   21.2730   -1.5610 N.am   89  MET89      -0.1979
     16  CA        19.5690   20.5300   -0.6400 C.3    89  MET89       0.1605
     17  C         20.3700   19.8020    0.4410 C.2    89  MET89       0.2287
     18  O         19.8690   19.5790    1.5480 O.2    89  MET89      -0.2864
     19  CB        18.7120   19.5400   -1.4270 C.3    89  MET89       0.0413
     20  CG        17.3520   19.3030   -0.8090 C.3    89  MET89       0.0598
     21  SD        16.4910   20.8480   -0.4560 S.3    89  MET89      -0.1393
     22  CE        15.4740   20.3160    0.9130 C.3    89  MET89       0.0692
     23  N         23.1870   20.9780    1.9290 N.3    91  SER91      -0.1202
     24  CA        23.4990   21.9510    2.9740 C.3    91  SER91       0.2020
     25  C         22.2390   22.4030    3.7100 C.2    91  SER91       0.2618
     26  O         22.2970   22.7490    4.8920 O.2    91  SER91      -0.2717
     27  CB        24.2450   23.1530    2.4020 C.3    91  SER91       0.2103
     28  OG        23.4600   23.8260    1.4370 O.3    91  SER91      -0.2182
     29  N         21.1060   22.3980    3.0080 N.am   92  PHE92      -0.1975
     30  CA        19.8170   22.6900    3.6300 C.3    92  PHE92       0.1639
     31  C         19.5040   21.6590    4.7120 C.2    92  PHE92       0.2290
     32  O         19.1320   22.0160    5.8350 O.2    92  PHE92      -0.2864
     33  CB        18.6970   22.7200    2.5880 C.3    92  PHE92       0.0560
     34  CG        17.3680   23.1370    3.1470 C.ar   92  PHE92      -0.0200
     35  CD1       17.0250   24.4840    3.2310 C.ar   92  PHE92      -0.0042
     36  CD2       16.4600   22.1850    3.6010 C.ar   92  PHE92      -0.0042
     37  CE1       15.8000   24.8710    3.7540 C.ar   92  PHE92      -0.0003
     38  CE2       15.2330   22.5630    4.1210 C.ar   92  PHE92      -0.0003
     39  CZ        14.9020   23.9080    4.1990 C.ar   92  PHE92      -0.0000
     40  N         25.7010   27.0030   -0.6010 N.3   112  ILE112     -0.1231
     41  CA        24.3010   27.4290   -0.5980 C.3   112  ILE112      0.1692
     42  C         23.9260   28.1170   -1.9150 C.2   112  ILE112      0.2592
     43  O         24.7930   28.5570   -2.6710 O.2   112  ILE112     -0.2718
     44  CB        23.9340   28.2770    0.6430 C.3   112  ILE112      0.0266
     45  CG1       24.7790   29.5530    0.7080 C.3   112  ILE112      0.0019
     46  CG2       24.0730   27.4350    1.9090 C.3   112  ILE112      0.0020
     47  CD1       24.3650   30.5160    1.8010 C.3   112  ILE112      0.0001
     48  N         22.6250   28.2340   -2.1530 N.am  113  HIS113     -0.1962
     49  CA        22.1020   28.1400   -3.4990 C.3   113  HIS113      0.1787
     50  C         20.6740   28.6400   -3.6050 C.2   113  HIS113      0.2620
     51  O         19.8450   28.3920   -2.7330 O.2   113  HIS113     -0.2715
     52  CB        22.0650   26.6530   -3.8160 C.3   113  HIS113      0.0785
     53  CG        22.4470   26.3020   -5.2100 C.ar  113  HIS113      0.0821
     54  ND1       21.8280   25.2860   -5.9030 N.ar  113  HIS113     -0.2267
     55  CD2       23.4020   26.7940   -6.0290 C.ar  113  HIS113      0.1154
     56  CE1       22.3800   25.1740   -7.0970 C.ar  113  HIS113      0.1986
     57  NE2       23.3360   26.0800   -7.2000 N.ar  113  HIS113     -0.2212
     58  N         20.3950   29.3370   -4.6940 N.am  114  GLN114     -0.1964
     59  CA        19.0420   29.6300   -5.1320 C.3   114  GLN114      0.1718
     60  C         18.5090   28.3670   -5.8270 C.2   114  GLN114      0.2458
     61  O         19.2900   27.6350   -6.4440 O.2   114  GLN114     -0.2730
     62  CB        19.1270   30.8050   -6.1030 C.3   114  GLN114      0.0407
     63  CG        17.8720   31.1800   -6.8570 C.3   114  GLN114      0.0908
     64  CD        18.0890   32.3780   -7.7560 C.2   114  GLN114      0.2608
     65  OE1       17.1990   32.7620   -8.5080 O.2   114  GLN114     -0.2717
     66  NE2       19.2760   32.9750   -7.6860 N.am  114  GLN114     -0.0878
     67  N         17.1910   28.0860   -5.7160 N.am  115  PRO115     -0.2727
     68  CA        16.6020   26.9210   -6.3970 C.3   115  PRO115      0.1402
     69  C         16.7840   26.9130   -7.9160 C.2   115  PRO115      0.2269
     70  O         16.7300   27.9640   -8.5610 O.2   115  PRO115     -0.2865
     71  CB        15.1130   27.0360   -6.0630 C.3   115  PRO115      0.0296
     72  CG        15.0840   27.7480   -4.7580 C.3   115  PRO115      0.0237
     73  CD        16.2160   28.7370   -4.8180 C.3   115  PRO115      0.0939
     74  N         12.0960   28.4900    1.3320 N.3   140  MET140     -0.1230
     75  CA        13.4300   27.9410    1.5990 C.3   140  MET140      0.1702
     76  C         14.3030   28.9730    2.3100 C.2   140  MET140      0.2592
     77  O         14.9190   28.6670    3.3330 O.2   140  MET140     -0.2718
     78  CB        14.1200   27.4610    0.3160 C.3   140  MET140      0.0401
     79  CG        13.4140   26.3210   -0.4060 C.3   140  MET140      0.0596
     80  SD        13.0750   24.8690    0.6110 S.3   140  MET140     -0.1393
     81  CE        14.6160   23.9740    0.4270 C.3   140  MET140      0.0692
     82  N         14.3380   30.1920    1.7660 N.am  141  ASN141     -0.1974
     83  CA        15.0440   31.3120    2.3850 C.3   141  ASN141      0.1688
     84  C         14.5700   31.5760    3.8100 C.2   141  ASN141      0.2292
     85  O         15.3820   31.8280    4.6990 O.2   141  ASN141     -0.2864
     86  CB        14.8990   32.5840    1.5430 C.3   141  ASN141      0.1181
     87  CG        15.7640   32.5710    0.2920 C.2   141  ASN141      0.2629
     88  OD1       16.6870   31.7630    0.1580 O.2   141  ASN141     -0.2716
     89  ND2       15.4710   33.4800   -0.6360 N.am  141  ASN141     -0.0877
     90  N         15.8420   28.7980    6.1160 N.3   144  MET144     -0.1245
     91  CA        17.2750   29.0230    6.3100 C.3   144  MET144      0.1570
     92  C         17.5830   30.2020    7.2240 C.2   144  MET144      0.2261
     93  O         18.4680   30.1110    8.0760 O.2   144  MET144     -0.2867
     94  CB        17.9920   29.2010    4.9780 C.3   144  MET144      0.0387
     95  CG        18.6290   27.9250    4.4800 C.3   144  MET144      0.0595
     96  SD        20.3190   28.2310    3.9500 S.3   144  MET144     -0.1393
     97  CE        20.8520   26.5470    3.6640 C.3   144  MET144      0.0692
     98  N         22.4890   33.6910   -1.3990 N.3   159  THR159     -0.1218
     99  CA        22.1650   32.5030   -2.1890 C.3   159  THR159      0.1862
    100  C         21.8320   32.8470   -3.6370 C.2   159  THR159      0.2287
    101  O         21.4240   31.9740   -4.4010 O.2   159  THR159     -0.2866
    102  CB        20.9900   31.7030   -1.5920 C.3   159  THR159      0.1770
    103  OG1       19.8540   32.5630   -1.4310 O.3   159  THR159     -0.2211
    104  CG2       21.3700   31.0800   -0.2550 C.3   159  THR159      0.0375
@<TRIPOS>BOND
     1    70    69    2
     2    65    64    2
     3    69    68    1
     4    64    66   am
     5    64    63    1
     6    57    56   ar
     7    57    55   ar
     8    56    54   ar
     9    63    62    1
    10    61    60    2
    11    68    71    1
    12    68    67    1
    13    62    59    1
    14    71    72    1
    15    55    53   ar
    16    54    53   ar
    17    60    67   am
    18    60    59    1
    19    67    73    1
    20    53    52    1
    21    59    58    1
    22     8     6    1
    23    73    72    1
    24     1     2    1
    25    58    50   am
    26    14    13    1
    27   101   100    2
    28     6     5    1
    29     5     2    1
    30     5     7    1
    31    52    49    1
    32    13    10    1
    33   100    99    1
    34     2     3    1
    35    50    49    1
    36    50    51    2
    37    49    48    1
    38     3     4    2
    39    43    42    2
    40    10     9    1
    41    10    11    1
    42    99   102    1
    43    99    98    1
    44    48    42   am
    45    42    41    1
    46   102   103    1
    47   102   104    1
    48    15    11   am
    49    15    16    1
    50    19    20    1
    51    19    16    1
    52    11    12    2
    53    20    21    1
    54    16    17    1
    55    89    87   am
    56    40    41    1
    57    41    44    1
    58    21    22    1
    59    79    78    1
    60    79    80    1
    61    88    87    2
    62    87    86    1
    63    78    75    1
    64    81    80    1
    65    17    18    2
    66    44    45    1
    67    44    46    1
    68    45    47    1
    69    74    75    1
    70    28    27    1
    71    86    83    1
    72    75    76    1
    73    82    76   am
    74    82    83    1
    75    23    24    1
    76    76    77    2
    77    83    84    1
    78    27    24    1
    79    33    34    1
    80    33    30    1
    81    24    25    1
    82    29    30    1
    83    29    25   am
    84    34    35   ar
    85    34    36   ar
    86    35    37   ar
    87    36    38   ar
    88    30    31    1
    89    97    96    1
    90    25    26    2
    91    37    39   ar
    92    84    85    2
    93    96    95    1
    94    38    39   ar
    95    95    94    1
    96    31    32    2
    97    94    91    1
    98    90    91    1
    99    91    92    1
   100    92    93    2
