@<TRIPOS>MOLECULE
tmp/4rykA01.pdb
 89 84 0 0 0
SMALL
GASTEIGER

@<TRIPOS>ATOM
      1  N         49.9270   66.7390   64.5200 N.3   160  ILE160     -0.1245
      2  CA        49.2530   66.0160   63.4570 C.3   160  ILE160      0.1561
      3  C         48.5210   66.9230   62.4690 C.2   160  ILE160      0.2260
      4  O         48.5350   66.6920   61.2260 O.2   160  ILE160     -0.2867
      5  CB        48.3100   64.9170   63.9540 C.3   160  ILE160      0.0252
      6  CG1       47.8440   64.1290   62.7140 C.3   160  ILE160      0.0019
      7  CG2       47.1770   65.5100   64.7540 C.3   160  ILE160      0.0019
      8  CD1       47.1830   62.7990   62.9660 C.3   160  ILE160      0.0001
      9  N         49.7350   62.5520   57.0320 N.3   168  GLN168     -0.1231
     10  CA        49.1200   62.1010   58.2830 C.3   168  GLN168      0.1698
     11  C         48.8970   60.6140   58.2400 C.2   168  GLN168      0.2592
     12  O         49.2470   59.9230   59.1760 O.2   168  GLN168     -0.2718
     13  CB        47.7900   62.7450   58.5180 C.3   168  GLN168      0.0381
     14  CG        47.8820   64.2350   58.7850 C.3   168  GLN168      0.0905
     15  CD        46.5040   64.8900   58.8520 C.2   168  GLN168      0.2608
     16  OE1       45.5870   64.4870   58.1550 O.2   168  GLN168     -0.2717
     17  NE2       46.3640   65.8930   59.6930 N.am  168  GLN168     -0.0878
     18  N         48.3520   60.1030   57.1390 N.am  169  ILE169     -0.1980
     19  CA        48.0910   58.6610   57.0100 C.3   169  ILE169      0.1595
     20  C         49.3470   57.8240   56.9770 C.2   169  ILE169      0.2287
     21  O         49.4210   56.7700   57.6300 O.2   169  ILE169     -0.2864
     22  CB        47.2370   58.3890   55.7760 C.3   169  ILE169      0.0276
     23  CG1       45.8110   58.8990   56.0480 C.3   169  ILE169      0.0022
     24  CG2       47.2510   56.9060   55.4000 C.3   169  ILE169      0.0022
     25  CD1       45.0090   59.1310   54.7740 C.3   169  ILE169      0.0001
     26  N         50.7370   57.7650   60.5070 N.3   172  TYR172     -0.1227
     27  CA        49.8780   56.8560   61.2150 C.3   172  TYR172      0.1736
     28  C         50.2370   55.3730   60.9890 C.2   172  TYR172      0.2595
     29  O         50.3450   54.5970   61.9570 O.2   172  TYR172     -0.2718
     30  CB        48.4100   57.1420   60.8400 C.3   172  TYR172      0.0548
     31  CG        47.4140   56.1650   61.4420 C.ar  172  TYR172     -0.0200
     32  CD1       46.8960   56.3820   62.6900 C.ar  172  TYR172     -0.0009
     33  CD2       46.9690   55.0480   60.7520 C.ar  172  TYR172     -0.0009
     34  CE1       45.9910   55.4870   63.2490 C.ar  172  TYR172      0.0417
     35  CE2       46.0560   54.1650   61.3100 C.ar  172  TYR172      0.0417
     36  CZ        45.5780   54.3940   62.5620 C.ar  172  TYR172      0.1957
     37  OH        44.6780   53.5430   63.1780 O.3   172  TYR172     -0.2866
     38  N         50.4390   54.9800   59.7290 N.am  173  GLN173     -0.1979
     39  CA        50.8770   53.6170   59.4170 C.3   173  GLN173      0.1601
     40  C         52.2330   53.3080   60.0710 C.2   173  GLN173      0.2287
     41  O         52.3940   52.2920   60.6950 O.2   173  GLN173     -0.2864
     42  CB        50.8660   53.3470   57.9060 C.3   173  GLN173      0.0394
     43  CG        49.4390   53.2100   57.3890 C.3   173  GLN173      0.0908
     44  CD        49.3010   53.2370   55.8590 C.2   173  GLN173      0.2608
     45  OE1       50.2800   53.3590   55.0870 O.2   173  GLN173     -0.2717
     46  NE2       48.0560   53.1300   55.4040 N.am  173  GLN173     -0.0878
     47  N         42.3870   60.9860   67.9260 N.3   198  LEU198     -0.1245
     48  CA        42.1600   60.8570   66.4870 C.3   198  LEU198      0.1561
     49  C         40.7210   60.4850   66.1610 C.2   198  LEU198      0.2260
     50  O         40.1320   61.0240   65.2130 O.2   198  LEU198     -0.2867
     51  CB        43.0370   59.7790   65.9090 C.3   198  LEU198      0.0270
     52  CG        44.5260   60.0750   65.9420 C.3   198  LEU198      0.0019
     53  CD1       45.2770   58.8850   65.3430 C.3   198  LEU198      0.0001
     54  CD2       44.8630   61.3720   65.2020 C.3   198  LEU198      0.0001
     55  N         38.2750   62.6110   63.8440 N.3   202  LEU202     -0.1245
     56  CA        37.7380   62.0420   62.6250 C.3   202  LEU202      0.1561
     57  C         36.2360   62.0940   62.6300 C.2   202  LEU202      0.2260
     58  O         35.6040   62.3450   61.5800 O.2   202  LEU202     -0.2867
     59  CB        38.1800   60.6110   62.4250 C.3   202  LEU202      0.0270
     60  CG        39.6510   60.5640   62.0910 C.3   202  LEU202      0.0019
     61  CD1       40.1620   59.1510   62.3150 C.3   202  LEU202      0.0001
     62  CD2       39.9240   61.0950   60.6810 C.3   202  LEU202      0.0001
     63  N         37.3200   55.9820   58.5630 N.3   210  TYR210     -0.1241
     64  CA        38.5580   56.1240   59.2950 C.3   210  TYR210      0.1605
     65  C         38.3200   56.1160   60.8110 C.2   210  TYR210      0.2264
     66  O         39.1110   55.5520   61.5490 O.2   210  TYR210     -0.2867
     67  CB        39.2590   57.4060   58.8640 C.3   210  TYR210      0.0534
     68  CG        39.8800   57.3850   57.4720 C.ar  210  TYR210     -0.0201
     69  CD1       39.9260   56.2230   56.6960 C.ar  210  TYR210     -0.0009
     70  CD2       40.4710   58.5340   56.9600 C.ar  210  TYR210     -0.0009
     71  CE1       40.5130   56.2330   55.4410 C.ar  210  TYR210      0.0417
     72  CE2       41.0630   58.5520   55.7150 C.ar  210  TYR210      0.0417
     73  CZ        41.0890   57.4000   54.9580 C.ar  210  TYR210      0.1957
     74  OH        41.6910   57.4300   53.6990 O.3   210  TYR210     -0.2866
     75  N         38.0690   52.7610   61.9020 N.3   213  LEU213     -0.1231
     76  CA        39.3660   52.0780   61.9670 C.3   213  LEU213      0.1693
     77  C         40.1120   52.4100   63.2280 C.2   213  LEU213      0.2591
     78  O         40.6520   51.5240   63.9140 O.2   213  LEU213     -0.2718
     79  CB        40.2320   52.4100   60.7490 C.3   213  LEU213      0.0284
     80  CG        39.6420   51.8240   59.4640 C.3   213  LEU213      0.0019
     81  CD1       40.3840   52.3100   58.2340 C.3   213  LEU213      0.0001
     82  CD2       39.5720   50.2980   59.5120 C.3   213  LEU213      0.0001
     83  N         40.1690   53.7010   63.5370 N.am  214  VAL214     -0.1980
     84  CA        40.9160   54.1480   64.6930 C.3   214  VAL214      0.1595
     85  C         40.2520   53.6950   66.0110 C.2   214  VAL214      0.2287
     86  O         40.9370   53.2880   66.9400 O.2   214  VAL214     -0.2864
     87  CB        41.1180   55.6630   64.6740 C.3   214  VAL214      0.0276
     88  CG1       41.8920   56.0900   65.8970 C.3   214  VAL214      0.0022
     89  CG2       41.9020   56.0790   63.4370 C.3   214  VAL214      0.0022
@<TRIPOS>BOND
     1    74    73    1
     2    25    23    1
     3    73    71   ar
     4    73    72   ar
     5    45    44    2
     6    24    22    1
     7    46    44   am
     8    71    69   ar
     9    72    70   ar
    10    22    23    1
    11    22    19    1
    12    44    43    1
    13    69    68   ar
    14    70    68   ar
    15    20    19    1
    16    20    21    2
    17    19    18    1
    18     9    10    1
    19    18    11   am
    20    43    42    1
    21    68    67    1
    22    42    39    1
    23    16    15    2
    24    81    80    1
    25    11    10    1
    26    11    12    2
    27    10    13    1
    28    13    14    1
    29    63    64    1
    30    14    15    1
    31    15    17   am
    32    67    64    1
    33    64    65    1
    34    39    38    1
    35    39    40    1
    36    80    82    1
    37    80    79    1
    38    38    28   am
    39    40    41    2
    40    26    27    1
    41    62    60    1
    42    79    76    1
    43    33    35   ar
    44    33    31   ar
    45    65    66    2
    46    30    27    1
    47    30    31    1
    48    28    27    1
    49    28    29    2
    50     4     3    2
    51    35    36   ar
    52    31    32   ar
    53    58    57    2
    54    75    76    1
    55    76    77    1
    56    60    61    1
    57    60    59    1
    58    59    56    1
    59     3     2    1
    60    36    37    1
    61    36    34   ar
    62    56    57    1
    63    56    55    1
    64    32    34   ar
    65     6     8    1
    66     6     5    1
    67    77    83   am
    68    77    78    2
    69    89    87    1
    70     2     5    1
    71     2     1    1
    72    83    84    1
    73     5     7    1
    74    87    84    1
    75    87    88    1
    76    84    85    1
    77    54    52    1
    78    50    49    2
    79    53    52    1
    80    51    52    1
    81    51    48    1
    82    85    86    2
    83    49    48    1
    84    48    47    1
