@<TRIPOS>MOLECULE
tmp/4rylA00.pdb
 113 103 0 0 0
SMALL
GASTEIGER

@<TRIPOS>ATOM
      1  N         -3.7210   -4.2080  -21.7760 N.3   145  VAL145     -0.1245
      2  CA        -4.6750   -4.3180  -20.6940 C.3   145  VAL145      0.1561
      3  C         -5.9920   -3.7120  -21.1020 C.2   145  VAL145      0.2260
      4  O         -6.0220   -2.6750  -21.7550 O.2   145  VAL145     -0.2867
      5  CB        -4.1820   -3.5510  -19.4290 C.3   145  VAL145      0.0252
      6  CG1       -5.0440   -3.8940  -18.2130 C.3   145  VAL145      0.0019
      7  CG2       -2.7150   -3.8590  -19.1200 C.3   145  VAL145      0.0019
      8  N         -9.3090   -2.5100  -18.9160 N.3   147  ASP147     -0.1239
      9  CA        -9.9910   -2.3430  -17.6430 C.3   147  ASP147      0.1674
     10  C        -10.7550   -1.0160  -17.6750 C.2   147  ASP147      0.2266
     11  O        -10.2610    0.0350  -17.1730 O.2   147  ASP147     -0.2867
     12  CB        -8.9780   -2.4100  -16.4810 C.3   147  ASP147      0.1410
     13  CG        -9.6380   -2.7390  -15.1460 C.2   147  ASP147      0.3668
     14  OD1      -10.7910   -2.2830  -14.9240 O.co2 147  ASP147     -0.2456
     15  OD2       -9.0010   -3.4720  -14.3450 O.co2 147  ASP147     -0.2456
     16  N        -11.4940    0.5730  -14.0970 N.3   150  LYS150     -0.1231
     17  CA       -10.3530    1.2900  -13.5600 C.3   150  LYS150      0.1693
     18  C        -10.0240    2.5560  -14.3230 C.2   150  LYS150      0.2592
     19  O         -9.6110    3.5500  -13.7160 O.2   150  LYS150     -0.2718
     20  CB        -9.1220    0.4150  -13.4310 C.3   150  LYS150      0.0285
     21  CG        -9.2880   -0.5700  -12.2990 C.3   150  LYS150      0.0035
     22  CD        -8.0070   -1.3130  -11.9800 C.3   150  LYS150      0.0206
     23  CE        -8.2670   -2.3500  -10.9010 C.3   150  LYS150      0.1093
     24  NZ        -8.3540   -1.7190   -9.5500 N.3   150  LYS150     -0.1314
     25  N        -10.2040    2.5550  -15.6290 N.am  151  HIS151     -0.1976
     26  CA        -9.9490    3.7660  -16.3860 C.3   151  HIS151      0.1656
     27  C        -10.9070    4.8640  -15.9460 C.2   151  HIS151      0.2291
     28  O        -10.5130    6.0170  -15.7950 O.2   151  HIS151     -0.2864
     29  CB       -10.0880    3.5200  -17.8830 C.3   151  HIS151      0.0771
     30  CG        -9.4970    4.6070  -18.7250 C.ar  151  HIS151      0.0820
     31  ND1      -10.2300    5.6780  -19.1770 N.ar  151  HIS151     -0.2267
     32  CD2       -8.2390    4.7810  -19.2040 C.ar  151  HIS151      0.1154
     33  CE1       -9.4560    6.4770  -19.8870 C.ar  151  HIS151      0.1986
     34  NE2       -8.2340    5.9600  -19.9050 N.ar  151  HIS151     -0.2212
     35  N        -12.2950    5.0360  -13.0910 N.3   153  ASP153     -0.1225
     36  CA       -11.8900    5.4000  -11.7320 C.3   153  ASP153      0.1805
     37  C        -10.7600    6.4180  -11.7030 C.2   153  ASP153      0.2597
     38  O        -10.6940    7.2360  -10.8100 O.2   153  ASP153     -0.2718
     39  CB       -11.4540    4.1640  -10.9540 C.3   153  ASP153      0.1424
     40  CG       -11.7860    4.2540   -9.4920 C.2   153  ASP153      0.3668
     41  OD1      -11.3910    5.2250   -8.8160 O.co2 153  ASP153     -0.2456
     42  OD2      -12.4730    3.3300   -9.0150 O.co2 153  ASP153     -0.2456
     43  N         -9.8540    6.3550  -12.6840 N.am  154  ARG154     -0.1979
     44  CA        -8.7080    7.2710  -12.7300 C.3   154  ARG154      0.1597
     45  C         -8.9080    8.5280  -13.5620 C.2   154  ARG154      0.2287
     46  O         -8.2150    9.5390  -13.3330 O.2   154  ARG154     -0.2864
     47  CB        -7.4640    6.5460  -13.2540 C.3   154  ARG154      0.0334
     48  CG        -7.0510    5.3380  -12.4250 C.3   154  ARG154      0.0492
     49  CD        -6.8160    5.6730  -10.9390 C.3   154  ARG154      0.2205
     50  NE        -6.1060    6.9460  -10.7320 N.pl3 154  ARG154     -0.0865
     51  CZ        -4.8210    7.1710  -10.9650 C.cat 154  ARG154      0.5346
     52  NH1       -4.0360    6.2170  -11.4740 N.pl3 154  ARG154      0.1354
     53  NH2       -4.3190    8.3800  -10.7320 N.pl3 154  ARG154      0.1354
     54  N          1.7690    9.6790  -14.7990 N.3   176  GLU176     -0.1245
     55  CA         2.3010    8.9620  -13.6400 C.3   176  GLU176      0.1567
     56  C          2.0850    7.4690  -13.8670 C.2   176  GLU176      0.2260
     57  O          0.9550    6.9880  -13.8660 O.2   176  GLU176     -0.2867
     58  CB         1.6030    9.4200  -12.3400 C.3   176  GLU176      0.0388
     59  CG         1.6630   10.9380  -12.0710 C.3   176  GLU176      0.1160
     60  CD         0.9610   11.3980  -10.7600 C.2   176  GLU176      0.3649
     61  OE1       -0.0560   10.7820  -10.3020 O.co2 176  GLU176     -0.2457
     62  OE2        1.4210   12.4110  -10.1730 O.co2 176  GLU176     -0.2457
     63  N          1.9230    3.7370  -12.8230 N.3   178  VAL178     -0.1245
     64  CA         1.4040    3.1550  -11.5960 C.3   178  VAL178      0.1561
     65  C          2.0960    1.8100  -11.3340 C.2   178  VAL178      0.2260
     66  O          2.3220    1.0430  -12.2590 O.2   178  VAL178     -0.2867
     67  CB        -0.1160    2.9870  -11.7190 C.3   178  VAL178      0.0252
     68  CG1       -0.6790    2.1440  -10.5760 C.3   178  VAL178      0.0019
     69  CG2       -0.7780    4.3480  -11.7640 C.3   178  VAL178      0.0019
     70  N          1.5960   -1.6340   -9.4190 N.3   180  GLU180     -0.1245
     71  CA         0.4540   -2.3090   -8.8650 C.3   180  GLU180      0.1567
     72  C          0.3090   -3.6670   -9.4810 C.2   180  GLU180      0.2260
     73  O          0.6080   -3.8380  -10.6630 O.2   180  GLU180     -0.2867
     74  CB        -0.8200   -1.5030   -9.1700 C.3   180  GLU180      0.0388
     75  CG        -2.0810   -1.9990   -8.4900 C.3   180  GLU180      0.1160
     76  CD        -3.2610   -1.0660   -8.7650 C.2   180  GLU180      0.3649
     77  OE1       -3.2650    0.0520   -8.2090 O.co2 180  GLU180     -0.2457
     78  OE2       -4.1490   -1.4270   -9.5750 O.co2 180  GLU180     -0.2457
     79  N         -1.6980   -6.4640  -11.2200 N.3   182  LEU182     -0.1245
     80  CA        -2.8630   -6.5050  -12.0980 C.3   182  LEU182      0.1561
     81  C         -3.6270   -7.7990  -11.9950 C.2   182  LEU182      0.2260
     82  O         -3.0480   -8.8640  -11.8650 O.2   182  LEU182     -0.2867
     83  CB        -2.4200   -6.3750  -13.5350 C.3   182  LEU182      0.0270
     84  CG        -1.7940   -5.0460  -13.8800 C.3   182  LEU182      0.0019
     85  CD1       -1.2050   -5.1790  -15.2610 C.3   182  LEU182      0.0001
     86  CD2       -2.8460   -3.9440  -13.8310 C.3   182  LEU182      0.0001
     87  N         -7.1290   -0.0980  -22.4640 N.3   224  THR224     -0.1203
     88  CA        -7.1370    1.0870  -21.6020 C.3   224  THR224      0.1994
     89  C         -5.7720    1.4300  -21.0100 C.2   224  THR224      0.2617
     90  O         -5.6190    2.5080  -20.4600 O.2   224  THR224     -0.2717
     91  CB        -8.0990    0.9010  -20.4280 C.3   224  THR224      0.1784
     92  OG1       -7.7020   -0.2450  -19.6770 O.3   224  THR224     -0.2211
     93  CG2       -9.5090    0.7010  -20.9080 C.3   224  THR224      0.0376
     94  N         -4.8170    0.4840  -21.0670 N.am  225  ALA225     -0.1979
     95  CA        -3.4710    0.6680  -20.5420 C.3   225  ALA225      0.1597
     96  C         -2.5080   -0.3350  -21.1830 C.2   225  ALA225      0.2287
     97  O         -2.9360   -1.3330  -21.7790 O.2   225  ALA225     -0.2864
     98  CB        -3.4890    0.4810  -19.0230 C.3   225  ALA225      0.0319
     99  N          2.2280    0.1010  -14.7760 N.3   259  VAL259     -0.1245
    100  CA         1.0660    0.3620  -15.6390 C.3   259  VAL259      0.1561
    101  C          1.1690    1.7610  -16.2290 C.2   259  VAL259      0.2260
    102  O          1.3960    2.7480  -15.5070 O.2   259  VAL259     -0.2867
    103  CB        -0.2840    0.1890  -14.8750 C.3   259  VAL259      0.0252
    104  CG1       -1.4780    0.2300  -15.8290 C.3   259  VAL259      0.0019
    105  CG2       -0.2990   -1.1260  -14.1140 C.3   259  VAL259      0.0019
    106  N         -1.1020    4.2100  -18.2020 N.3   261  LEU261     -0.1245
    107  CA        -2.5010    4.4830  -18.5770 C.3   261  LEU261      0.1561
    108  C         -2.5980    5.1670  -19.9270 C.2   261  LEU261      0.2260
    109  O         -1.7980    6.0390  -20.2410 O.2   261  LEU261     -0.2867
    110  CB        -3.1870    5.3900  -17.5570 C.3   261  LEU261      0.0270
    111  CG        -3.7140    4.7230  -16.3080 C.3   261  LEU261      0.0019
    112  CD1       -2.5830    4.1530  -15.4700 C.3   261  LEU261      0.0001
    113  CD2       -4.5440    5.7520  -15.5380 C.3   261  LEU261      0.0001
@<TRIPOS>BOND
     1    87    88    1
     2    97    96    2
     3     1     2    1
     4     4     3    2
     5    88    89    1
     6    88    91    1
     7    96    95    1
     8     3     2    1
     9    94    89   am
    10    94    95    1
    11    89    90    2
    12    93    91    1
    13     2     5    1
    14    95    98    1
    15    91    92    1
    16   109   108    2
    17   108   107    1
    18    34    33   ar
    19    34    32   ar
    20    33    31   ar
    21     5     7    1
    22     5     6    1
    23    32    30   ar
    24    31    30   ar
    25     8     9    1
    26    30    29    1
    27   107   106    1
    28   107   110    1
    29    29    26    1
    30    10     9    1
    31    10    11    2
    32     9    12    1
    33   110   111    1
    34    12    13    1
    35    26    27    1
    36    26    25    1
    37   111   113    1
    38   111   112    1
    39   101   100    1
    40   101   102    2
    41    27    28    2
    42   104   103    1
    43   100   103    1
    44   100    99    1
    45    25    18   am
    46    85    84    1
    47    13    14   ar
    48    13    15   ar
    49   103   105    1
    50    54    55    1
    51    18    19    2
    52    18    17    1
    53    16    17    1
    54    84    86    1
    55    84    83    1
    56    56    57    2
    57    56    55    1
    58    55    58    1
    59    45    46    2
    60    45    44    1
    61    17    20    1
    62    83    80    1
    63    20    21    1
    64    47    44    1
    65    47    48    1
    66    35    36    1
    67    63    64    1
    68    44    43    1
    69    43    37   am
    70    48    49    1
    71    58    59    1
    72    21    22    1
    73    66    65    2
    74    80    81    1
    75    80    79    1
    76    59    60    1
    77    81    82    2
    78    22    23    1
    79    69    67    1
    80    36    37    1
    81    36    39    1
    82    67    64    1
    83    67    68    1
    84    37    38    2
    85    64    65    1
    86    52    51    1
    87    51    50    2
    88    51    53    1
    89    39    40    1
    90    49    50    1
    91    23    24    1
    92    60    61   ar
    93    60    62   ar
    94    73    72    2
    95    78    76   ar
    96    40    42   ar
    97    40    41   ar
    98    72    71    1
    99    70    71    1
   100    74    71    1
   101    74    75    1
   102    76    75    1
   103    76    77   ar
