@<TRIPOS>MOLECULE
tmp/4ryuB01.pdb
 87 84 0 0 0
SMALL
GASTEIGER

@<TRIPOS>ATOM
      1  N         27.0610  -37.4750   56.9880 N.3    47  LEU47      -0.1245
      2  CA        26.3220  -36.3230   57.4880 C.3    47  LEU47       0.1561
      3  C         24.9010  -36.7960   57.8100 C.2    47  LEU47       0.2260
      4  O         24.3570  -37.5990   57.0440 O.2    47  LEU47      -0.2867
      5  CB        26.2340  -35.3090   56.3510 C.3    47  LEU47       0.0270
      6  CG        26.0950  -33.8100   56.5580 C.3    47  LEU47       0.0019
      7  CD1       27.2330  -33.2900   57.4150 C.3    47  LEU47       0.0001
      8  CD2       26.0890  -33.1240   55.2030 C.3    47  LEU47       0.0001
      9  N         31.5850  -34.8900   60.8250 N.3    71  THR71      -0.1218
     10  CA        31.2120  -33.8070   59.8960 C.3    71  THR71       0.1862
     11  C         30.0300  -32.9900   60.4240 C.2    71  THR71       0.2287
     12  O         30.0290  -31.7520   60.2960 O.2    71  THR71      -0.2866
     13  CB        30.9380  -34.3440   58.4630 C.3    71  THR71       0.1770
     14  OG1       32.0880  -35.0570   58.0140 O.3    71  THR71      -0.2211
     15  CG2       30.6370  -33.2160   57.4710 C.3    71  THR71       0.0375
     16  N         31.3980  -30.4580   62.9640 N.3    74  VAL74      -0.1231
     17  CA        32.0920  -29.3100   62.4090 C.3    74  VAL74       0.1692
     18  C         31.0850  -28.3940   61.7240 C.2    74  VAL74       0.2592
     19  O         31.1850  -27.1690   61.8240 O.2    74  VAL74      -0.2718
     20  CB        33.2400  -29.7410   61.4660 C.3    74  VAL74       0.0266
     21  CG1       33.8520  -28.5310   60.7770 C.3    74  VAL74       0.0020
     22  CG2       34.2990  -30.5000   62.2590 C.3    74  VAL74       0.0020
     23  N         30.0960  -28.9930   61.0640 N.am   75  TYR75      -0.1976
     24  CA        29.0350  -28.2260   60.4210 C.3    75  TYR75       0.1639
     25  C         28.2980  -27.3270   61.4260 C.2    75  TYR75       0.2290
     26  O         28.0790  -26.1380   61.1730 O.2    75  TYR75      -0.2864
     27  CB        28.0300  -29.1400   59.7100 C.3    75  TYR75       0.0560
     28  CG        27.1030  -28.3690   58.8100 C.ar   75  TYR75      -0.0198
     29  CD1       27.4090  -28.2050   57.4760 C.ar   75  TYR75      -0.0009
     30  CD2       25.9350  -27.7840   59.2920 C.ar   75  TYR75      -0.0009
     31  CE1       26.5890  -27.4940   56.6330 C.ar   75  TYR75       0.0417
     32  CE2       25.1110  -27.0500   58.4520 C.ar   75  TYR75       0.0417
     33  CZ        25.4570  -26.9180   57.1210 C.ar   75  TYR75       0.1957
     34  OH        24.6850  -26.2160   56.2300 O.3    75  TYR75      -0.2866
     35  N         30.8900  -24.6330   63.1260 N.3    78  VAL78      -0.1231
     36  CA        31.2290  -23.5050   62.2430 C.3    78  VAL78       0.1692
     37  C         30.0000  -22.6400   61.9560 C.2    78  VAL78       0.2592
     38  O         30.0920  -21.4130   61.9570 O.2    78  VAL78      -0.2718
     39  CB        31.8730  -23.9810   60.9120 C.3    78  VAL78       0.0266
     40  CG1       32.0510  -22.8420   59.9060 C.3    78  VAL78       0.0020
     41  CG2       33.2060  -24.6670   61.1610 C.3    78  VAL78       0.0020
     42  N         28.8490  -23.2630   61.7260 N.am   79  ASN79      -0.1974
     43  CA        27.7100  -22.5080   61.2140 C.3    79  ASN79       0.1688
     44  C         26.7880  -21.9580   62.3020 C.2    79  ASN79       0.2292
     45  O         26.1720  -20.9100   62.1060 O.2    79  ASN79      -0.2864
     46  CB        27.0320  -23.2580   60.0670 C.3    79  ASN79       0.1181
     47  CG        27.9620  -23.4960   58.8970 C.2    79  ASN79       0.2629
     48  OD1       28.5930  -22.5720   58.3940 O.2    79  ASN79      -0.2716
     49  ND2       28.0400  -24.7390   58.4450 N.am   79  ASN79      -0.0877
     50  N         35.8740  -30.8620   56.6160 N.3   114  ALA114     -0.1231
     51  CA        34.7340  -29.9600   56.7600 C.3   114  ALA114      0.1694
     52  C         35.1610  -28.5330   57.1500 C.2   114  ALA114      0.2593
     53  O         34.3690  -27.5980   57.0450 O.2   114  ALA114     -0.2718
     54  CB        33.7230  -30.5050   57.7610 C.3   114  ALA114      0.0304
     55  N         36.3980  -28.3820   57.6120 N.am  115  GLY115     -0.1942
     56  CA        36.9420  -27.0630   57.9870 C.3   115  GLY115      0.2014
     57  C         37.8530  -26.4630   56.9250 C.2   115  GLY115      0.2639
     58  O         38.5970  -25.5020   57.2000 O.2   115  GLY115     -0.2714
     59  N         37.7790  -27.0040   55.7070 N.am  116  ARG116     -0.1963
     60  CA        38.6580  -26.5860   54.6050 C.3   116  ARG116      0.1729
     61  C         38.4570  -25.1260   54.1160 C.2   116  ARG116      0.2616
     62  O         39.3250  -24.5740   53.4330 O.2   116  ARG116     -0.2715
     63  CB        38.5500  -27.5690   53.4330 C.3   116  ARG116      0.0348
     64  CG        37.2410  -27.5290   52.6500 C.3   116  ARG116      0.0492
     65  CD        37.1840  -28.6780   51.6450 C.3   116  ARG116      0.2205
     66  NE        35.9150  -28.7540   50.9090 N.pl3 116  ARG116     -0.0865
     67  CZ        34.8290  -29.4020   51.3350 C.cat 116  ARG116      0.5346
     68  NH1       34.8200  -30.0120   52.5280 N.pl3 116  ARG116      0.1354
     69  NH2       33.7400  -29.4340   50.5730 N.pl3 116  ARG116      0.1354
     70  N         37.3280  -24.5110   54.4490 N.am  117  HIS117     -0.1959
     71  CA        37.0540  -23.1360   53.9920 C.3   117  HIS117      0.1787
     72  C         37.2720  -22.0700   55.0460 C.2   117  HIS117      0.2620
     73  O         36.7370  -20.9680   54.9460 O.2   117  HIS117     -0.2715
     74  CB        35.6540  -23.0400   53.3980 C.3   117  HIS117      0.0785
     75  CG        35.4660  -23.9050   52.1790 C.ar  117  HIS117      0.0821
     76  ND1       34.5880  -24.9360   52.1440 N.ar  117  HIS117     -0.2267
     77  CD2       36.1300  -23.9110   50.9550 C.ar  117  HIS117      0.1154
     78  CE1       34.6510  -25.5350   50.9360 C.ar  117  HIS117      0.1986
     79  NE2       35.6000  -24.9160   50.2130 N.ar  117  HIS117     -0.2212
     80  N         38.0830  -22.3720   56.0510 N.am  118  LEU118     -0.1977
     81  CA        38.3370  -21.4270   57.1280 C.3   118  LEU118      0.1596
     82  C         39.6430  -20.6570   56.8750 C.2   118  LEU118      0.2287
     83  O         40.2750  -20.8420   55.8300 O.2   118  LEU118     -0.2864
     84  CB        38.3170  -22.1570   58.4740 C.3   118  LEU118      0.0297
     85  CG        36.9700  -22.8150   58.8730 C.3   118  LEU118      0.0022
     86  CD1       37.1500  -23.6400   60.1430 C.3   118  LEU118      0.0001
     87  CD2       35.8490  -21.7930   59.0710 C.3   118  LEU118      0.0001
@<TRIPOS>BOND
     1    79    78   ar
     2    79    77   ar
     3    69    67    1
     4    66    67    2
     5    66    65    1
     6    78    76   ar
     7    77    75   ar
     8    67    68    1
     9    65    64    1
    10    76    75   ar
    11    75    74    1
    12    64    63    1
    13    74    71    1
    14    63    60    1
    15    62    61    2
    16    71    70    1
    17    71    72    1
    18    61    70   am
    19    61    60    1
    20    60    59    1
    21    73    72    2
    22    72    80   am
    23     8     6    1
    24    59    57   am
    25    83    82    2
    26    80    81    1
    27    34    33    1
    28     5     6    1
    29     5     2    1
    30     6     7    1
    31    50    51    1
    32    31    33   ar
    33    31    29   ar
    34    51    52    1
    35    51    54    1
    36    82    81    1
    37    57    58    2
    38    57    56    1
    39     1     2    1
    40     4     3    2
    41    53    52    2
    42    33    32   ar
    43    81    84    1
    44    52    55   am
    45    15    13    1
    46    29    28   ar
    47     2     3    1
    48    55    56    1
    49    14    13    1
    50    48    47    2
    51    49    47   am
    52    32    30   ar
    53    13    10    1
    54    84    85    1
    55    28    30   ar
    56    28    27    1
    57    85    87    1
    58    85    86    1
    59    47    46    1
    60    27    24    1
    61    10    11    1
    62    10     9    1
    63    40    39    1
    64    46    43    1
    65    12    11    2
    66    24    23    1
    67    24    25    1
    68    21    20    1
    69    39    41    1
    70    39    36    1
    71    23    18   am
    72    26    25    2
    73    43    42    1
    74    43    44    1
    75    20    22    1
    76    20    17    1
    77    18    19    2
    78    18    17    1
    79    42    37   am
    80    37    38    2
    81    37    36    1
    82    45    44    2
    83    36    35    1
    84    17    16    1
