@<TRIPOS>MOLECULE
tmp/4ryvA00.pdb
 155 148 0 0 0
SMALL
GASTEIGER

@<TRIPOS>ATOM
      1  N          7.2360  -11.7920    7.6440 N.3     7  ASN7       -0.1240
      2  CA         7.0130  -11.2540    6.2910 C.3     7  ASN7        0.1653
      3  C          8.3310  -10.7730    5.7410 C.2     7  ASN7        0.2266
      4  O          9.1140  -10.2190    6.4970 O.2     7  ASN7       -0.2867
      5  CB         6.0150  -10.0650    6.2760 C.3     7  ASN7        0.1155
      6  CG         5.6170   -9.6140    4.8630 C.2     7  ASN7        0.2627
      7  OD1        6.0190   -8.5540    4.3500 O.2     7  ASN7       -0.2716
      8  ND2        4.8340  -10.4390    4.2200 N.am    7  ASN7       -0.0877
      9  N         10.1000   -8.6720    2.2710 N.3     9  GLN9       -0.1245
     10  CA         9.9000   -7.8480    1.0690 C.3     9  GLN9        0.1566
     11  C         11.2590   -7.5530    0.4570 C.2     9  GLN9        0.2260
     12  O         12.1560   -7.1050    1.1720 O.2     9  GLN9       -0.2867
     13  CB         9.2000   -6.5320    1.4010 C.3     9  GLN9        0.0367
     14  CG         7.7960   -6.6710    1.9680 C.3     9  GLN9        0.0905
     15  CD         6.8370   -7.2820    0.9700 C.2     9  GLN9        0.2608
     16  OE1        6.9790   -7.0550   -0.2350 O.2     9  GLN9       -0.2717
     17  NE2        5.8510   -8.0560    1.4480 N.am    9  GLN9       -0.0878
     18  N         16.8130    1.6580    5.3750 N.3    19  TYR19      -0.1241
     19  CA        16.6990    1.6880    6.8400 C.3    19  TYR19       0.1605
     20  C         16.5920    3.0910    7.3580 C.2    19  TYR19       0.2264
     21  O         15.7740    3.3820    8.2510 O.2    19  TYR19      -0.2867
     22  CB        17.9190    0.9820    7.4480 C.3    19  TYR19       0.0534
     23  CG        17.9790    0.9250    8.9380 C.ar   19  TYR19      -0.0201
     24  CD1       17.2300   -0.0150    9.6320 C.ar   19  TYR19      -0.0009
     25  CD2       18.7300    1.8100    9.6670 C.ar   19  TYR19      -0.0009
     26  CE1       17.3050   -0.0990   11.0170 C.ar   19  TYR19       0.0417
     27  CE2       18.8340    1.7250   11.0570 C.ar   19  TYR19       0.0417
     28  CZ        18.1100    0.7510   11.7260 C.ar   19  TYR19       0.1957
     29  OH        18.2610    0.7010   13.0700 O.3    19  TYR19      -0.2866
     30  N         13.0680    4.3750    6.8770 N.3    22  LEU22      -0.1231
     31  CA        12.0720    3.6830    7.7130 C.3    22  LEU22       0.1693
     32  C         12.2660    3.9530    9.1970 C.2    22  LEU22       0.2592
     33  O         11.3600    3.5990    9.9790 O.2    22  LEU22      -0.2718
     34  CB        12.1890    2.2030    7.4840 C.3    22  LEU22       0.0284
     35  CG        11.7620    1.6790    6.1060 C.3    22  LEU22       0.0019
     36  CD1       12.2350    0.2390    5.9170 C.3    22  LEU22       0.0001
     37  CD2       10.2620    1.7660    5.9460 C.3    22  LEU22       0.0001
     38  N         13.3730    4.5940    9.5840 N.am   23  THR23      -0.1953
     39  CA        13.7100    4.8860   10.9710 C.3    23  THR23       0.1897
     40  C         13.8690    6.3730   11.2190 C.2    23  THR23       0.2313
     41  O         12.8790    7.0810   11.4740 O.2    23  THR23      -0.2863
     42  CB        14.8750    4.0410   11.5110 C.3    23  THR23       0.1794
     43  OG1       16.0680    4.2990   10.7630 O.3    23  THR23      -0.2208
     44  CG2       14.5790    2.5640   11.3800 C.3    23  THR23       0.0378
     45  N         21.1640   -2.6900   11.3360 N.3    78  LEU78      -0.1245
     46  CA        19.9460   -2.3560   10.5980 C.3    78  LEU78       0.1561
     47  C         18.7160   -3.0490   11.1940 C.2    78  LEU78       0.2260
     48  O         17.8680   -3.5360   10.4610 O.2    78  LEU78      -0.2867
     49  CB        20.0670   -2.5740    9.1070 C.3    78  LEU78       0.0270
     50  CG        21.2520   -1.8990    8.3700 C.3    78  LEU78       0.0019
     51  CD1       21.1360   -2.1580    6.8980 C.3    78  LEU78       0.0001
     52  CD2       21.3610   -0.4300    8.6060 C.3    78  LEU78       0.0001
     53  N         15.3880   -2.7530   14.0630 N.3    80  TYR80      -0.1241
     54  CA        14.5060   -1.8020   14.7040 C.3    80  TYR80       0.1605
     55  C         13.2750   -2.5030   15.2110 C.2    80  TYR80       0.2264
     56  O         12.5940   -3.1680   14.4250 O.2    80  TYR80      -0.2867
     57  CB        14.0860   -0.7300   13.6760 C.3    80  TYR80       0.0534
     58  CG        13.3120    0.4460   14.1170 C.ar   80  TYR80      -0.0201
     59  CD1       13.9460    1.5540   14.6610 C.ar   80  TYR80      -0.0009
     60  CD2       11.9830    0.5160   13.8900 C.ar   80  TYR80      -0.0009
     61  CE1       13.2160    2.6960   15.0110 C.ar   80  TYR80       0.0417
     62  CE2       11.2160    1.6020   14.2920 C.ar   80  TYR80       0.0417
     63  CZ        11.8170    2.7200   14.8320 C.ar   80  TYR80       0.1957
     64  OH        11.0180    3.8180   15.2000 O.3    80  TYR80      -0.2866
     65  N          9.6960   -2.2540   17.5120 N.3    82  TYR82      -0.1241
     66  CA         8.7240   -1.2680   17.9940 C.3    82  TYR82       0.1605
     67  C          7.4280   -1.9850   18.2150 C.2    82  TYR82       0.2264
     68  O          7.2570   -3.1180   17.7970 O.2    82  TYR82      -0.2867
     69  CB         8.5360   -0.1410   16.9710 C.3    82  TYR82       0.0534
     70  CG         8.2210   -0.6560   15.6070 C.ar   82  TYR82      -0.0201
     71  CD1        9.2490   -1.0720   14.7660 C.ar   82  TYR82      -0.0009
     72  CD2        6.9410   -0.7030   15.1360 C.ar   82  TYR82      -0.0009
     73  CE1        8.9810   -1.5530   13.5060 C.ar   82  TYR82       0.0417
     74  CE2        6.6490   -1.1770   13.8750 C.ar   82  TYR82       0.0417
     75  CZ         7.6700   -1.5990   13.0530 C.ar   82  TYR82       0.1957
     76  OH         7.4360   -2.0660   11.7860 O.3    82  TYR82      -0.2866
     77  N          6.6680   -5.6420   16.8190 N.3    99  TYR99      -0.1241
     78  CA         7.4100   -5.8280   15.5990 C.3    99  TYR99       0.1605
     79  C          8.9190   -5.8770   15.8610 C.2    99  TYR99       0.2264
     80  O          9.4410   -5.0540   16.5920 O.2    99  TYR99      -0.2867
     81  CB         7.1540   -4.6340   14.6980 C.3    99  TYR99       0.0534
     82  CG         5.7230   -4.4590   14.2650 C.ar   99  TYR99      -0.0201
     83  CD1        5.2460   -5.0560   13.0930 C.ar   99  TYR99      -0.0009
     84  CD2        4.8370   -3.7000   14.9900 C.ar   99  TYR99      -0.0009
     85  CE1        3.9340   -4.8930   12.6750 C.ar   99  TYR99       0.0417
     86  CE2        3.5450   -3.5300   14.5520 C.ar   99  TYR99       0.0417
     87  CZ         3.1140   -4.0870   13.3900 C.ar   99  TYR99       0.1957
     88  OH         1.7910   -3.9360   12.9620 O.3    99  TYR99      -0.2866
     89  N         12.1110   -5.7850   13.2570 N.3   101  SER101     -0.1202
     90  CA        12.4460   -5.6600   11.8560 C.3   101  SER101      0.2020
     91  C         13.9440   -5.6690   11.6300 C.2   101  SER101      0.2619
     92  O         14.7060   -5.2290   12.4860 O.2   101  SER101     -0.2717
     93  CB        11.8650   -4.3770   11.2680 C.3   101  SER101      0.2103
     94  OG        12.5210   -3.2200   11.7000 O.3   101  SER101     -0.2182
     95  N         14.3300   -6.0330   10.4190 N.am  102  LYS102     -0.1965
     96  CA        15.7160   -6.0130    9.9670 C.3   102  LYS102      0.1728
     97  C         15.7120   -5.7020    8.5210 C.2   102  LYS102      0.2616
     98  O         14.8700   -6.1850    7.7640 O.2   102  LYS102     -0.2715
     99  CB        16.3970   -7.3680   10.2140 C.3   102  LYS102      0.0311
    100  CG        17.9040   -7.3450    9.9740 C.3   102  LYS102      0.0038
    101  CD        18.6350   -8.5560   10.5490 C.3   102  LYS102      0.0206
    102  CE        20.0810   -8.6760   10.0490 C.3   102  LYS102      0.1093
    103  NZ        20.9970   -7.9920   10.9420 N.3   102  LYS102     -0.1314
    104  N         16.7590   -5.0110    8.1080 N.am  103  ILE103     -0.1977
    105  CA        17.0330   -4.7880    6.6920 C.3   103  ILE103      0.1596
    106  C         18.3530   -5.5020    6.3660 C.2   103  ILE103      0.2287
    107  O         19.3320   -5.3220    7.0490 O.2   103  ILE103     -0.2864
    108  CB        17.0860   -3.2820    6.3330 C.3   103  ILE103      0.0276
    109  CG1       15.8460   -2.5140    6.7810 C.3   103  ILE103      0.0022
    110  CG2       17.4020   -3.0890    4.8540 C.3   103  ILE103      0.0022
    111  CD1       14.5430   -2.8750    6.1440 C.3   103  ILE103      0.0001
    112  N         13.8010   -6.5840    3.3500 N.3   113  GLY113     -0.1210
    113  CA        13.1950   -6.3640    4.6690 C.3   113  GLY113      0.1956
    114  C         12.6030   -7.6130    5.2160 C.2   113  GLY113      0.2612
    115  O         11.8380   -8.2890    4.5220 O.2   113  GLY113     -0.2717
    116  N         12.9400   -7.9260    6.4660 N.am  114  LYS114     -0.1965
    117  CA        12.2920   -9.0320    7.1660 C.3   114  LYS114      0.1728
    118  C         11.7010   -8.4950    8.4360 C.2   114  LYS114      0.2616
    119  O         12.3540   -7.7470    9.1700 O.2   114  LYS114     -0.2715
    120  CB        13.2930  -10.1320    7.4850 C.3   114  LYS114      0.0311
    121  CG        13.8680  -10.8090    6.2400 C.3   114  LYS114      0.0038
    122  CD        14.5850  -12.1210    6.5440 C.3   114  LYS114      0.0206
    123  CE        15.1270  -12.7960    5.2750 C.3   114  LYS114      0.1093
    124  NZ        15.3890  -14.2600    5.4930 N.3   114  LYS114     -0.1314
    125  N         10.4540   -8.8820    8.6970 N.am  115  ILE115     -0.1977
    126  CA         9.7900   -8.4920    9.9260 C.3   115  ILE115      0.1596
    127  C          9.1070   -9.6780   10.5980 C.2   115  ILE115      0.2287
    128  O          8.5360  -10.5360    9.9460 O.2   115  ILE115     -0.2864
    129  CB         8.8520   -7.3000    9.6790 C.3   115  ILE115      0.0276
    130  CG1        8.4990   -6.5470   10.9730 C.3   115  ILE115      0.0022
    131  CG2        7.6450   -7.7570    8.8670 C.3   115  ILE115      0.0022
    132  CD1        7.9770   -5.1380   10.7080 C.3   115  ILE115      0.0001
    133  N          0.6250   -1.7670    7.9320 N.3   138  GLY138     -0.1210
    134  CA         2.0580   -1.8080    8.0790 C.3   138  GLY138      0.1956
    135  C          2.7970   -1.9530    6.7710 C.2   138  GLY138      0.2611
    136  O          3.8340   -1.2750    6.5140 O.2   138  GLY138     -0.2717
    137  N          2.3220   -2.8890    5.9370 N.am  139  LEU139     -0.1979
    138  CA         2.9970   -3.0810    4.6480 C.3   139  LEU139      0.1596
    139  C          2.7380   -1.8640    3.7700 C.2   139  LEU139      0.2287
    140  O          3.5840   -1.4690    2.9630 O.2   139  LEU139     -0.2864
    141  CB         2.5260   -4.4000    4.0200 C.3   139  LEU139      0.0297
    142  CG         3.2210   -4.8350    2.7850 C.3   139  LEU139      0.0022
    143  CD1        4.7190   -4.9180    2.9210 C.3   139  LEU139      0.0001
    144  CD2        2.6680   -6.2280    2.5090 C.3   139  LEU139      0.0001
    145  N          5.3380    0.6470    4.7410 N.3   142  PHE142     -0.1241
    146  CA         6.6530    0.2210    4.1590 C.3   142  PHE142      0.1605
    147  C          6.7040    0.5900    2.6990 C.2   142  PHE142      0.2264
    148  O          7.7070    1.1760    2.2290 O.2   142  PHE142     -0.2867
    149  CB         6.8360   -1.2870    4.3840 C.3   142  PHE142      0.0534
    150  CG         8.1060   -1.8370    3.7880 C.ar  142  PHE142     -0.0203
    151  CD1        9.2440   -1.9050    4.5390 C.ar  142  PHE142     -0.0042
    152  CD2        8.1090   -2.3420    2.5010 C.ar  142  PHE142     -0.0042
    153  CE1       10.4280   -2.4110    4.0110 C.ar  142  PHE142     -0.0003
    154  CE2        9.2770   -2.8390    1.9520 C.ar  142  PHE142     -0.0003
    155  CZ        10.4180   -2.8740    2.7150 C.ar  142  PHE142     -0.0000
@<TRIPOS>BOND
     1    16    15    2
     2    11    10    1
     3    11    12    2
     4    15    17   am
     5    15    14    1
     6    10    13    1
     7    10     9    1
     8    13    14    1
     9   154   152   ar
    10   154   155   ar
    11   148   147    2
    12   152   150   ar
    13   144   142    1
    14   147   146    1
    15   155   153   ar
    16   142   143    1
    17   142   141    1
    18   140   139    2
    19   112   113    1
    20   139   138    1
    21   150   149    1
    22   150   151   ar
    23   153   151   ar
    24   141   138    1
    25   146   149    1
    26   146   145    1
    27     8     6   am
    28     7     6    2
    29   115   114    2
    30   138   137    1
    31   113   114    1
    32   110   108    1
    33     6     5    1
    34   114   116   am
    35   123   124    1
    36   123   122    1
    37    18    19    1
    38     3     2    1
    39     3     4    2
    40    36    35    1
    41   137   135   am
    42    37    35    1
    43    35    34    1
    44   111   109    1
    45   121   122    1
    46   121   120    1
    47     5     2    1
    48     2     1    1
    49   108   105    1
    50   108   109    1
    51   106   105    1
    52   106   107    2
    53   116   117    1
    54   136   135    2
    55   105   104    1
    56   135   134    1
    57    19    20    1
    58    19    22    1
    59    30    31    1
    60    51    50    1
    61   117   120    1
    62   117   118    1
    63    20    21    2
    64    22    23    1
    65    34    31    1
    66    31    32    1
    67    98    97    2
    68   133   134    1
    69   104    97   am
    70    50    52    1
    71    50    49    1
    72   118   125   am
    73   118   119    2
    74    97    96    1
    75   125   126    1
    76   131   129    1
    77    23    24   ar
    78    23    25   ar
    79    49    46    1
    80    32    38   am
    81    32    33    2
    82    38    39    1
    83    24    26   ar
    84    25    27   ar
    85   129   126    1
    86   129   130    1
    87   126   127    1
    88   128   127    2
    89    96    99    1
    90    96    95    1
    91   100    99    1
    92   100   101    1
    93   102   101    1
    94   102   103    1
    95    95    91   am
    96    48    47    2
    97    46    47    1
    98    46    45    1
    99   132   130    1
   100    43    42    1
   101    39    40    1
   102    39    42    1
   103    26    28   ar
   104    27    28   ar
   105    40    41    2
   106    93    94    1
   107    93    90    1
   108    44    42    1
   109    91    90    1
   110    91    92    2
   111    28    29    1
   112    76    75    1
   113    90    89    1
   114    85    83   ar
   115    85    87   ar
   116    88    87    1
   117    75    73   ar
   118    75    74   ar
   119    83    82   ar
   120    87    86   ar
   121    73    71   ar
   122    57    58    1
   123    57    54    1
   124    74    72   ar
   125    60    58   ar
   126    60    62   ar
   127    53    54    1
   128    58    59   ar
   129    82    81    1
   130    82    84   ar
   131    62    63   ar
   132    56    55    2
   133    86    84   ar
   134    59    61   ar
   135    81    78    1
   136    54    55    1
   137    71    70   ar
   138    63    61   ar
   139    63    64    1
   140    72    70   ar
   141    78    79    1
   142    78    77    1
   143    70    69    1
   144    79    80    2
   145    69    66    1
   146    65    66    1
   147    68    67    2
   148    66    67    1
