@<TRIPOS>MOLECULE
tmp/4ryvA01.pdb
 111 106 0 0 0
SMALL
GASTEIGER

@<TRIPOS>ATOM
      1  N          3.7980  -13.9030   13.1290 N.3     5  PHE5       -0.1227
      2  CA         3.8850  -13.9370   11.6740 C.3     5  PHE5        0.1736
      3  C          5.2590  -13.4260   11.2640 C.2     5  PHE5        0.2595
      4  O          5.8400  -12.6030   11.9750 O.2     5  PHE5       -0.2718
      5  CB         2.7780  -13.1200   10.9880 C.3     5  PHE5        0.0547
      6  CG         1.3870  -13.5370   11.3620 C.ar    5  PHE5       -0.0202
      7  CD1        0.7600  -14.5700   10.6940 C.ar    5  PHE5       -0.0042
      8  CD2        0.7410  -12.9350   12.4200 C.ar    5  PHE5       -0.0042
      9  CE1       -0.5070  -14.9600   11.0400 C.ar    5  PHE5       -0.0003
     10  CE2       -0.5220  -13.3510   12.8120 C.ar    5  PHE5       -0.0003
     11  CZ        -1.1410  -14.3770   12.1180 C.ar    5  PHE5       -0.0000
     12  N          5.7050  -13.8650   10.1050 N.am    6  GLU6       -0.1965
     13  CA         6.9190  -13.3650    9.4660 C.3     6  GLU6        0.1733
     14  C          6.5650  -12.8650    8.0840 C.2     6  GLU6        0.2616
     15  O          5.7270  -13.4410    7.4030 O.2     6  GLU6       -0.2715
     16  CB         7.9770  -14.4440    9.4250 C.3     6  GLU6        0.0429
     17  CG         8.4220  -14.9700   10.7570 C.3     6  GLU6        0.1163
     18  CD         9.3810  -16.1530   10.6880 C.2     6  GLU6        0.3649
     19  OE1        9.5370  -16.7450    9.5970 O.co2   6  GLU6       -0.2457
     20  OE2        9.9480  -16.5110   11.7510 O.co2   6  GLU6       -0.2457
     21  N          7.2360  -11.7920    7.6440 N.am    7  ASN7       -0.1972
     22  CA         7.0130  -11.2540    6.2910 C.3     7  ASN7        0.1688
     23  C          8.3310  -10.7730    5.7410 C.2     7  ASN7        0.2292
     24  O          9.1140  -10.2190    6.4970 O.2     7  ASN7       -0.2864
     25  CB         6.0150  -10.0650    6.2760 C.3     7  ASN7        0.1181
     26  CG         5.6170   -9.6140    4.8630 C.2     7  ASN7        0.2629
     27  OD1        6.0190   -8.5540    4.3500 O.2     7  ASN7       -0.2716
     28  ND2        4.8340  -10.4390    4.2200 N.am    7  ASN7       -0.0877
     29  N          6.6680   -5.6420   16.8190 N.3    99  TYR99      -0.1241
     30  CA         7.4100   -5.8280   15.5990 C.3    99  TYR99       0.1605
     31  C          8.9190   -5.8770   15.8610 C.2    99  TYR99       0.2264
     32  O          9.4410   -5.0540   16.5920 O.2    99  TYR99      -0.2867
     33  CB         7.1540   -4.6340   14.6980 C.3    99  TYR99       0.0534
     34  CG         5.7230   -4.4590   14.2650 C.ar   99  TYR99      -0.0201
     35  CD1        5.2460   -5.0560   13.0930 C.ar   99  TYR99      -0.0009
     36  CD2        4.8370   -3.7000   14.9900 C.ar   99  TYR99      -0.0009
     37  CE1        3.9340   -4.8930   12.6750 C.ar   99  TYR99       0.0417
     38  CE2        3.5450   -3.5300   14.5520 C.ar   99  TYR99       0.0417
     39  CZ         3.1140   -4.0870   13.3900 C.ar   99  TYR99       0.1957
     40  OH         1.7910   -3.9360   12.9620 O.3    99  TYR99      -0.2866
     41  N         10.4540   -8.8820    8.6970 N.3   115  ILE115     -0.1245
     42  CA         9.7900   -8.4920    9.9260 C.3   115  ILE115      0.1561
     43  C          9.1070   -9.6780   10.5980 C.2   115  ILE115      0.2260
     44  O          8.5360  -10.5360    9.9460 O.2   115  ILE115     -0.2867
     45  CB         8.8520   -7.3000    9.6790 C.3   115  ILE115      0.0252
     46  CG1        8.4990   -6.5470   10.9730 C.3   115  ILE115      0.0019
     47  CG2        7.6450   -7.7570    8.8670 C.3   115  ILE115      0.0019
     48  CD1        7.9770   -5.1380   10.7080 C.3   115  ILE115      0.0001
     49  N          6.2290  -10.2370   13.4280 N.3   117  VAL117     -0.1245
     50  CA         5.0650   -9.5630   13.9680 C.3   117  VAL117      0.1561
     51  C          4.4130  -10.4440   15.0040 C.2   117  VAL117      0.2260
     52  O          4.2400  -11.6090   14.7540 O.2   117  VAL117     -0.2867
     53  CB         4.0390   -9.2230   12.8440 C.3   117  VAL117      0.0252
     54  CG1        2.8810   -8.4190   13.4370 C.3   117  VAL117      0.0019
     55  CG2        4.7410   -8.6110   11.6140 C.3   117  VAL117      0.0019
     56  N          0.9380  -10.4090   17.2520 N.3   119  PHE119     -0.1241
     57  CA        -0.3260   -9.8750   17.7580 C.3   119  PHE119      0.1605
     58  C         -0.6280  -10.4330   19.1580 C.2   119  PHE119      0.2264
     59  O         -0.6840  -11.6240   19.3280 O.2   119  PHE119     -0.2867
     60  CB        -1.4960  -10.2720   16.8690 C.3   119  PHE119      0.0534
     61  CG        -1.5180   -9.6690   15.5030 C.ar  119  PHE119     -0.0203
     62  CD1       -0.6700  -10.1400   14.5030 C.ar  119  PHE119     -0.0042
     63  CD2       -2.3670   -8.6330   15.1770 C.ar  119  PHE119     -0.0042
     64  CE1       -0.7340   -9.6480   13.2350 C.ar  119  PHE119     -0.0003
     65  CE2       -2.4530   -8.1340   13.8940 C.ar  119  PHE119     -0.0003
     66  CZ        -1.5980   -8.6400   12.9250 C.ar  119  PHE119     -0.0000
     67  N         -6.3260   -9.0270   11.6490 N.3   131  ARG131     -0.1231
     68  CA        -4.9660   -9.3970   11.1740 C.3   131  ARG131      0.1694
     69  C         -4.6970   -8.7280    9.8430 C.2   131  ARG131      0.2592
     70  O         -3.6280   -8.1120    9.6450 O.2   131  ARG131     -0.2718
     71  CB        -4.8550  -10.9400   11.0500 C.3   131  ARG131      0.0321
     72  CG        -3.5370  -11.4300   10.5350 C.3   131  ARG131      0.0489
     73  CD        -3.6830  -12.8640   10.0930 C.3   131  ARG131      0.2205
     74  NE        -4.5350  -12.9400    8.9110 N.pl3 131  ARG131     -0.0865
     75  CZ        -4.8410  -14.0500    8.2430 C.cat 131  ARG131      0.5346
     76  NH1       -4.4030  -15.2280    8.6600 N.pl3 131  ARG131      0.1354
     77  NH2       -5.5770  -13.9620    7.1280 N.pl3 131  ARG131      0.1354
     78  N         -5.6130   -8.8880    8.8940 N.am  132  ASP132     -0.1974
     79  CA        -5.3390   -8.4050    7.5320 C.3   132  ASP132      0.1709
     80  C         -5.2940   -6.9050    7.4850 C.2   132  ASP132      0.2293
     81  O         -4.4600   -6.3280    6.8020 O.2   132  ASP132     -0.2864
     82  CB        -6.3930   -8.8820    6.5400 C.3   132  ASP132      0.1436
     83  CG        -6.3350  -10.3750    6.2650 C.2   132  ASP132      0.3671
     84  OD1       -5.4010  -11.0860    6.7330 O.co2 132  ASP132     -0.2456
     85  OD2       -7.2810  -10.8600    5.5950 O.co2 132  ASP132     -0.2456
     86  N         -4.2940   -4.8970    9.8490 N.3   134  ALA134     -0.1231
     87  CA        -2.9990   -4.4880   10.4160 C.3   134  ALA134      0.1694
     88  C         -1.8710   -4.7240    9.3940 C.2   134  ALA134      0.2591
     89  O         -0.9690   -3.8800    9.2700 O.2   134  ALA134     -0.2718
     90  CB        -2.6990   -5.2240   11.6810 C.3   134  ALA134      0.0304
     91  N         -1.9280   -5.8680    8.6910 N.am  135  LYS135     -0.1980
     92  CA        -0.9340   -6.1290    7.6620 C.3   135  LYS135      0.1596
     93  C         -0.9480   -5.0360    6.6290 C.2   135  LYS135      0.2287
     94  O          0.1000   -4.5210    6.2420 O.2   135  LYS135     -0.2864
     95  CB        -1.1660   -7.4860    6.9960 C.3   135  LYS135      0.0298
     96  CG        -0.1650   -7.7950    5.8810 C.3   135  LYS135      0.0038
     97  CD        -0.4740   -9.0710    5.1240 C.3   135  LYS135      0.0206
     98  CE        -1.5780   -8.8710    4.0950 C.3   135  LYS135      0.1093
     99  NZ        -1.6990  -10.0420    3.1650 N.3   135  LYS135     -0.1314
    100  N          0.6250   -1.7670    7.9320 N.3   138  GLY138     -0.1210
    101  CA         2.0580   -1.8080    8.0790 C.3   138  GLY138      0.1956
    102  C          2.7970   -1.9530    6.7710 C.2   138  GLY138      0.2611
    103  O          3.8340   -1.2750    6.5140 O.2   138  GLY138     -0.2717
    104  N          2.3220   -2.8890    5.9370 N.am  139  LEU139     -0.1979
    105  CA         2.9970   -3.0810    4.6480 C.3   139  LEU139      0.1596
    106  C          2.7380   -1.8640    3.7700 C.2   139  LEU139      0.2287
    107  O          3.5840   -1.4690    2.9630 O.2   139  LEU139     -0.2864
    108  CB         2.5260   -4.4000    4.0200 C.3   139  LEU139      0.0297
    109  CG         3.2210   -4.8350    2.7850 C.3   139  LEU139      0.0022
    110  CD1        4.7190   -4.9180    2.9210 C.3   139  LEU139      0.0001
    111  CD2        2.6680   -6.2280    2.5090 C.3   139  LEU139      0.0001
@<TRIPOS>BOND
     1   111   109    1
     2   109   110    1
     3   109   108    1
     4   107   106    2
     5    99    98    1
     6   106   105    1
     7   108   105    1
     8    98    97    1
     9    28    26   am
    10    27    26    2
    11   105   104    1
    12    26    25    1
    13    97    96    1
    14    85    83   ar
    15    23    22    1
    16    23    24    2
    17    96    95    1
    18   104   102   am
    19    94    93    2
    20    83    82    1
    21    83    84   ar
    22    25    22    1
    23    22    21    1
    24   103   102    2
    25    82    79    1
    26    93    92    1
    27   102   101    1
    28    81    80    2
    29    95    92    1
    30    77    75    1
    31    15    14    2
    32    80    79    1
    33    79    78    1
    34    21    14   am
    35    92    91    1
    36   100   101    1
    37    14    13    1
    38    75    76    1
    39    75    74    2
    40    91    88   am
    41    41    42    1
    42    47    45    1
    43    78    69   am
    44    74    73    1
    45    89    88    2
    46    88    87    1
    47    16    13    1
    48    16    17    1
    49    13    12    1
    50    19    18   ar
    51    70    69    2
    52    45    42    1
    53    45    46    1
    54    69    68    1
    55    86    87    1
    56    42    43    1
    57    44    43    2
    58    73    72    1
    59    12     3   am
    60    87    90    1
    61    72    71    1
    62    18    17    1
    63    18    20   ar
    64     7     9   ar
    65     7     6   ar
    66    48    46    1
    67     5     6    1
    68     5     2    1
    69     9    11   ar
    70    71    68    1
    71    68    67    1
    72     3     2    1
    73     3     4    2
    74     6     8   ar
    75    55    53    1
    76     2     1    1
    77    11    10   ar
    78     8    10   ar
    79    37    35   ar
    80    37    39   ar
    81    53    54    1
    82    53    50    1
    83    66    64   ar
    84    66    65   ar
    85    40    39    1
    86    35    34   ar
    87    64    62   ar
    88    39    38   ar
    89    49    50    1
    90    65    63   ar
    91    50    51    1
    92    34    33    1
    93    34    36   ar
    94    62    61   ar
    95    38    36   ar
    96    33    30    1
    97    52    51    2
    98    63    61   ar
    99    61    60    1
   100    30    31    1
   101    30    29    1
   102    31    32    2
   103    60    57    1
   104    56    57    1
   105    57    58    1
   106    58    59    2
