@<TRIPOS>MOLECULE
tmp/4ryvA04.pdb
 73 70 0 0 0
SMALL
GASTEIGER

@<TRIPOS>ATOM
      1  N          3.3080   10.8060    2.7280 N.3    33  VAL33      -0.1231
      2  CA         2.9740    9.6780    1.8580 C.3    33  VAL33       0.1692
      3  C          1.6490    8.9660    2.1730 C.2    33  VAL33       0.2592
      4  O          1.1370    8.2480    1.3220 O.2    33  VAL33      -0.2718
      5  CB         4.1490    8.6870    1.7760 C.3    33  VAL33       0.0266
      6  CG1        5.4170    9.3790    1.2840 C.3    33  VAL33       0.0020
      7  CG2        4.4280    7.9450    3.0830 C.3    33  VAL33       0.0020
      8  N          1.1730    9.0990    3.4250 N.am   34  ILE34      -0.1966
      9  CA        -0.0930    8.5190    3.8140 C.3    34  ILE34       0.1727
     10  C         -1.0670    9.6780    4.0650 C.2    34  ILE34       0.2616
     11  O         -0.9360   10.4350    5.0430 O.2    34  ILE34      -0.2715
     12  CB         0.0330    7.6260    5.0780 C.3    34  ILE34       0.0290
     13  CG1        1.1120    6.5360    4.9780 C.3    34  ILE34       0.0022
     14  CG2       -1.3340    7.0740    5.4430 C.3    34  ILE34       0.0023
     15  CD1        0.9220    5.5810    3.8210 C.3    34  ILE34       0.0001
     16  N         -2.0320    9.8490    3.1750 N.am   35  GLU35      -0.1964
     17  CA        -2.8520   11.0520    3.1910 C.3    35  GLU35       0.1718
     18  C         -3.5780   11.2630    4.5280 C.2    35  GLU35       0.2458
     19  O         -3.5660   12.3710    5.0500 O.2    35  GLU35      -0.2730
     20  CB        -3.7890   11.1110    1.9680 C.3    35  GLU35       0.0428
     21  CG        -4.4840   12.4680    1.7750 C.3    35  GLU35       0.1163
     22  CD        -5.6480   12.7400    2.7300 C.2    35  GLU35       0.3649
     23  OE1       -6.1950   11.7820    3.2850 O.co2  35  GLU35      -0.2457
     24  OE2       -5.9730   13.9450    2.8920 O.co2  35  GLU35      -0.2457
     25  N         -4.1430   10.1900    5.1010 N.am   36  PRO36      -0.2727
     26  CA        -4.8630   10.4500    6.3340 C.3    36  PRO36       0.1402
     27  C         -4.0120   10.7770    7.5610 C.2    36  PRO36       0.2269
     28  O         -4.5520   11.2950    8.5430 O.2    36  PRO36      -0.2865
     29  CB        -5.6340    9.1580    6.5530 C.3    36  PRO36       0.0296
     30  CG        -5.8810    8.6410    5.1720 C.3    36  PRO36       0.0237
     31  CD        -4.5860    8.9330    4.4820 C.3    36  PRO36       0.0939
     32  N         -2.1190   -4.6900    6.1120 N.3   136  PHE136     -0.1227
     33  CA        -2.1700   -3.6730    5.0520 C.3   136  PHE136      0.1736
     34  C         -1.7070   -2.3080    5.4980 C.2   136  PHE136      0.2595
     35  O         -1.0930   -1.5790    4.7470 O.2   136  PHE136     -0.2718
     36  CB        -3.5090   -3.6580    4.3320 C.3   136  PHE136      0.0547
     37  CG        -3.6230   -4.7850    3.4040 C.ar  136  PHE136     -0.0202
     38  CD1       -2.7250   -4.8710    2.3010 C.ar  136  PHE136     -0.0042
     39  CD2       -4.4710   -5.8030    3.6540 C.ar  136  PHE136     -0.0042
     40  CE1       -2.7490   -5.9500    1.4610 C.ar  136  PHE136     -0.0003
     41  CE2       -4.5210   -6.8920    2.8090 C.ar  136  PHE136     -0.0003
     42  CZ        -3.6580   -6.9660    1.7100 C.ar  136  PHE136     -0.0000
     43  N         -1.9340   -1.9600    6.7520 N.am  137  LYS137     -0.1980
     44  CA        -1.4500   -0.6880    7.2910 C.3   137  LYS137      0.1596
     45  C          0.0690   -0.6850    7.3950 C.2   137  LYS137      0.2287
     46  O          0.7380    0.3080    7.0670 O.2   137  LYS137     -0.2864
     47  CB        -2.0900   -0.3490    8.6590 C.3   137  LYS137      0.0298
     48  CG        -3.5570    0.0340    8.5440 C.3   137  LYS137      0.0038
     49  CD        -4.2160    0.3410    9.8560 C.3   137  LYS137      0.0206
     50  CE        -5.7280    0.2140    9.6550 C.3   137  LYS137      0.1093
     51  NZ        -6.4900   -0.0790   10.8950 N.3   137  LYS137     -0.1314
     52  N          1.5840   -1.2300    3.8990 N.3   140  GLY140     -0.1225
     53  CA         1.3390   -0.0040    3.1850 C.3   140  GLY140      0.1811
     54  C          2.3010    1.1090    3.5360 C.2   140  GLY140      0.2280
     55  O          2.7880    1.8410    2.6540 O.2   140  GLY140     -0.2866
     56  N          5.6760    0.2270    1.9350 N.3   143  LYS143     -0.1231
     57  CA         5.7090    0.4690    0.4910 C.3   143  LYS143      0.1693
     58  C          5.6010    1.9120    0.1540 C.2   143  LYS143      0.2591
     59  O          6.1690    2.3940   -0.8330 O.2   143  LYS143     -0.2718
     60  CB         4.6090   -0.3110   -0.2110 C.3   143  LYS143      0.0285
     61  CG         4.7900   -1.8410   -0.1420 C.3   143  LYS143      0.0035
     62  CD         5.9700   -2.4000   -0.9050 C.3   143  LYS143      0.0206
     63  CE         6.0160   -3.9240   -0.7280 C.3   143  LYS143      0.1093
     64  NZ         6.9940   -4.5340   -1.6320 N.3   143  LYS143     -0.1314
     65  N          4.8660    2.6900    0.9230 N.am  144  ALA144     -0.1980
     66  CA         4.7360    4.1260    0.6770 C.3   144  ALA144      0.1597
     67  C          6.0620    4.8570    0.9870 C.2   144  ALA144      0.2287
     68  O          6.4670    5.7700    0.2460 O.2   144  ALA144     -0.2864
     69  CB         3.5940    4.7080    1.5300 C.3   144  ALA144      0.0319
     70  N          8.4180    3.8370   -1.7300 N.3   147  GLY147     -0.1225
     71  CA         8.0440    4.5290   -2.9640 C.3   147  GLY147      0.1811
     72  C          8.4910    5.9750   -2.9880 C.2   147  GLY147      0.2280
     73  O          8.9050    6.4970   -4.0490 O.2   147  GLY147     -0.2866
@<TRIPOS>BOND
     1    73    72    2
     2    72    71    1
     3    71    70    1
     4    64    63    1
     5    62    63    1
     6    62    61    1
     7    59    58    2
     8    60    61    1
     9    60    57    1
    10    58    57    1
    11    58    65   am
    12    68    67    2
    13    57    56    1
    14    66    65    1
    15    66    67    1
    16    66    69    1
    17     6     5    1
    18     4     3    2
    19    40    42   ar
    20    40    38   ar
    21    42    41   ar
    22    21    20    1
    23    21    22    1
    24     5     2    1
    25     5     7    1
    26     2     3    1
    27     2     1    1
    28    20    17    1
    29     3     8   am
    30    38    37   ar
    31    55    54    2
    32    22    24   ar
    33    22    23   ar
    34    41    39   ar
    35    16    17    1
    36    16    10   am
    37    53    54    1
    38    53    52    1
    39    17    18    1
    40    37    39   ar
    41    37    36    1
    42     8     9    1
    43     9    10    1
    44     9    12    1
    45    15    13    1
    46    10    11    2
    47    36    33    1
    48    31    25    1
    49    31    30    1
    50    18    19    2
    51    18    25   am
    52    35    34    2
    53    13    12    1
    54    33    34    1
    55    33    32    1
    56    12    14    1
    57    25    26    1
    58    30    29    1
    59    34    43   am
    60    26    29    1
    61    26    27    1
    62    43    44    1
    63    46    45    2
    64    44    45    1
    65    44    47    1
    66    27    28    2
    67    48    47    1
    68    48    49    1
    69    50    49    1
    70    50    51    1
