@<TRIPOS>MOLECULE
tmp/4ryvA02.pdb
 163 149 0 0 0
SMALL
GASTEIGER

@<TRIPOS>ATOM
      1  N         13.3730    4.5940    9.5840 N.3    23  THR23      -0.1218
      2  CA        13.7100    4.8860   10.9710 C.3    23  THR23       0.1862
      3  C         13.8690    6.3730   11.2190 C.2    23  THR23       0.2287
      4  O         12.8790    7.0810   11.4740 O.2    23  THR23      -0.2866
      5  CB        14.8750    4.0410   11.5110 C.3    23  THR23       0.1770
      6  OG1       16.0680    4.2990   10.7630 O.3    23  THR23      -0.2211
      7  CG2       14.5790    2.5640   11.3800 C.3    23  THR23       0.0375
      8  N         11.3510    8.5100    9.1660 N.3    26  SER26      -0.1202
      9  CA         9.9670    8.0270    9.0300 C.3    26  SER26       0.2020
     10  C          8.9220    9.0600    9.4800 C.2    26  SER26       0.2618
     11  O          7.9020    9.2420    8.8210 O.2    26  SER26      -0.2717
     12  CB         9.8160    6.7370    9.8200 C.3    26  SER26       0.2103
     13  OG         8.4720    6.2240    9.7970 O.3    26  SER26      -0.2182
     14  N          9.1890    9.7470   10.6170 N.am   27  ASP27      -0.1973
     15  CA         8.1920   10.7020   11.1280 C.3    27  ASP27       0.1709
     16  C          7.9430   11.8580   10.1250 C.2    27  ASP27       0.2293
     17  O          6.8380   12.3440    9.9800 O.2    27  ASP27      -0.2864
     18  CB         8.6110   11.3460   12.4460 C.3    27  ASP27       0.1436
     19  CG         8.6890   10.3820   13.5980 C.2    27  ASP27       0.3671
     20  OD1        8.2310    9.2530   13.4660 O.co2  27  ASP27      -0.2456
     21  OD2        9.1700   10.7920   14.6760 O.co2  27  ASP27      -0.2456
     22  N          6.2110   10.0000    6.6970 N.3    30  VAL30      -0.1245
     23  CA         4.8830    9.3460    6.7610 C.3    30  VAL30       0.1561
     24  C          3.6840   10.2760    6.4610 C.2    30  VAL30       0.2260
     25  O          2.8480    9.9200    5.6590 O.2    30  VAL30      -0.2867
     26  CB         4.7530    8.4900    8.0200 C.3    30  VAL30       0.0252
     27  CG1        3.2920    8.1470    8.2980 C.3    30  VAL30       0.0019
     28  CG2        5.5730    7.2030    7.9220 C.3    30  VAL30       0.0019
     29  N         -2.7080   10.4840    7.5360 N.3    37  ILE37      -0.1245
     30  CA        -1.8620   10.7790    8.6670 C.3    37  ILE37       0.1561
     31  C         -1.4690   12.2350    8.6190 C.2    37  ILE37       0.2260
     32  O         -0.8590   12.7060    7.6670 O.2    37  ILE37      -0.2867
     33  CB        -0.6370    9.8610    8.7590 C.3    37  ILE37       0.0252
     34  CG1       -1.0880    8.3910    8.9680 C.3    37  ILE37       0.0019
     35  CG2        0.3150   10.3210    9.8420 C.3    37  ILE37       0.0019
     36  CD1       -0.0370    7.3300    8.9550 C.3    37  ILE37       0.0001
     37  N          3.0710   13.2200   13.4730 N.3    40  VAL40      -0.1245
     38  CA         3.6340   12.2950   14.4510 C.3    40  VAL40       0.1561
     39  C          4.2640   13.1550   15.5340 C.2    40  VAL40       0.2260
     40  O          5.0760   14.0380   15.2350 O.2    40  VAL40      -0.2867
     41  CB         4.6860   11.4030   13.8210 C.3    40  VAL40       0.0252
     42  CG1        5.2630   10.4590   14.8560 C.3    40  VAL40       0.0019
     43  CG2        4.1080   10.6440   12.6210 C.3    40  VAL40       0.0019
     44  N          5.3350    7.6960   20.7300 N.3    53  LYS53      -0.1245
     45  CA         4.8480    8.6420   19.7640 C.3    53  LYS53       0.1561
     46  C          3.3640    8.4350   19.5400 C.2    53  LYS53       0.2260
     47  O          2.8990    7.2890   19.4980 O.2    53  LYS53      -0.2867
     48  CB         5.5900    8.4610   18.3760 C.3    53  LYS53       0.0271
     49  CG         7.0060    8.8820   18.3840 C.3    53  LYS53       0.0035
     50  CD         7.5740    8.4430   17.0740 C.3    53  LYS53       0.0206
     51  CE         9.0050    8.9520   17.0740 C.3    53  LYS53       0.1093
     52  NZ         9.8430    8.4980   15.9300 N.3    53  LYS53      -0.1314
     53  N          0.7260    8.9130   16.5790 N.3    55  ILE55      -0.1245
     54  CA         0.6040    9.0230   15.1150 C.3    55  ILE55       0.1561
     55  C         -0.8520    9.4590   14.9280 C.2    55  ILE55       0.2260
     56  O         -1.7760    8.6840   15.1810 O.2    55  ILE55      -0.2867
     57  CB         0.8840    7.6730   14.4610 C.3    55  ILE55       0.0252
     58  CG1        2.3480    7.2600   14.7780 C.3    55  ILE55       0.0019
     59  CG2        0.6550    7.8060   12.9510 C.3    55  ILE55       0.0019
     60  CD1        2.6470    5.8110   14.5690 C.3    55  ILE55       0.0001
     61  N         -2.8500    6.4340   17.0230 N.3    66  VAL66      -0.1245
     62  CA        -2.2560    5.2410   17.6520 C.3    66  VAL66       0.1561
     63  C         -0.9800    5.6620   18.3550 C.2    66  VAL66       0.2260
     64  O         -0.3600    6.6800   18.0050 O.2    66  VAL66      -0.2867
     65  CB        -1.9520    4.0530   16.7120 C.3    66  VAL66       0.0252
     66  CG1       -3.1850    3.3980   16.1840 C.3    66  VAL66       0.0019
     67  CG2       -0.8810    4.3940   15.6410 C.3    66  VAL66       0.0019
     68  N          2.7720    4.4450   19.3600 N.3    68  HIS68      -0.1241
     69  CA         3.9210    3.6890   18.9000 C.3    68  HIS68       0.1621
     70  C          5.0170    3.8090   19.9470 C.2    68  HIS68       0.2264
     71  O          5.3280    4.9100   20.3640 O.2    68  HIS68      -0.2867
     72  CB         4.3320    4.3090   17.5960 C.3    68  HIS68       0.0745
     73  CG         5.6100    3.8150   17.0070 C.ar   68  HIS68       0.0817
     74  ND1        6.8590    4.1070   17.5090 N.ar   68  HIS68      -0.2268
     75  CD2        5.8030    3.0610   15.9080 C.ar   68  HIS68       0.1154
     76  CE1        7.7730    3.6220   16.6920 C.ar   68  HIS68       0.1986
     77  NE2        7.1570    2.9650   15.7170 N.ar   68  HIS68      -0.2212
     78  N         15.3880   -2.7530   14.0630 N.3    80  TYR80      -0.1241
     79  CA        14.5060   -1.8020   14.7040 C.3    80  TYR80       0.1605
     80  C         13.2750   -2.5030   15.2110 C.2    80  TYR80       0.2264
     81  O         12.5940   -3.1680   14.4250 O.2    80  TYR80      -0.2867
     82  CB        14.0860   -0.7300   13.6760 C.3    80  TYR80       0.0534
     83  CG        13.3120    0.4460   14.1170 C.ar   80  TYR80      -0.0201
     84  CD1       13.9460    1.5540   14.6610 C.ar   80  TYR80      -0.0009
     85  CD2       11.9830    0.5160   13.8900 C.ar   80  TYR80      -0.0009
     86  CE1       13.2160    2.6960   15.0110 C.ar   80  TYR80       0.0417
     87  CE2       11.2160    1.6020   14.2920 C.ar   80  TYR80       0.0417
     88  CZ        11.8170    2.7200   14.8320 C.ar   80  TYR80       0.1957
     89  OH        11.0180    3.8180   15.2000 O.3    80  TYR80      -0.2866
     90  N          9.6960   -2.2540   17.5120 N.3    82  TYR82      -0.1241
     91  CA         8.7240   -1.2680   17.9940 C.3    82  TYR82       0.1605
     92  C          7.4280   -1.9850   18.2150 C.2    82  TYR82       0.2264
     93  O          7.2570   -3.1180   17.7970 O.2    82  TYR82      -0.2867
     94  CB         8.5360   -0.1410   16.9710 C.3    82  TYR82       0.0534
     95  CG         8.2210   -0.6560   15.6070 C.ar   82  TYR82      -0.0201
     96  CD1        9.2490   -1.0720   14.7660 C.ar   82  TYR82      -0.0009
     97  CD2        6.9410   -0.7030   15.1360 C.ar   82  TYR82      -0.0009
     98  CE1        8.9810   -1.5530   13.5060 C.ar   82  TYR82       0.0417
     99  CE2        6.6490   -1.1770   13.8750 C.ar   82  TYR82       0.0417
    100  CZ         7.6700   -1.5990   13.0530 C.ar   82  TYR82       0.1957
    101  OH         7.4360   -2.0660   11.7860 O.3    82  TYR82      -0.2866
    102  N          2.9360   -1.2150   18.5740 N.3    84  ILE84      -0.1245
    103  CA         1.7160   -0.3600   18.5600 C.3    84  ILE84       0.1561
    104  C          0.9280   -0.7610   19.8220 C.2    84  ILE84       0.2260
    105  O          0.5880   -1.9350   19.9690 O.2    84  ILE84      -0.2867
    106  CB         0.9140   -0.5810   17.2840 C.3    84  ILE84       0.0252
    107  CG1        1.7120   -0.2840   16.0110 C.3    84  ILE84       0.0019
    108  CG2       -0.3480    0.2490   17.3270 C.3    84  ILE84       0.0019
    109  CD1        2.2650    1.1440   15.9060 C.3    84  ILE84       0.0001
    110  N          0.5420   -4.8320   19.2490 N.3    97  ILE97      -0.1245
    111  CA         1.2460   -5.5370   18.1710 C.3    97  ILE97       0.1561
    112  C          2.7220   -5.1750   18.2420 C.2    97  ILE97       0.2260
    113  O          3.0470   -4.0070   18.2950 O.2    97  ILE97      -0.2867
    114  CB         0.7320   -5.1610   16.7660 C.3    97  ILE97       0.0252
    115  CG1       -0.8030   -5.2490   16.6870 C.3    97  ILE97       0.0019
    116  CG2        1.3430   -6.0510   15.6610 C.3    97  ILE97       0.0019
    117  CD1       -1.3980   -4.6440   15.4490 C.3    97  ILE97       0.0001
    118  N          6.6680   -5.6420   16.8190 N.3    99  TYR99      -0.1241
    119  CA         7.4100   -5.8280   15.5990 C.3    99  TYR99       0.1605
    120  C          8.9190   -5.8770   15.8610 C.2    99  TYR99       0.2264
    121  O          9.4410   -5.0540   16.5920 O.2    99  TYR99      -0.2867
    122  CB         7.1540   -4.6340   14.6980 C.3    99  TYR99       0.0534
    123  CG         5.7230   -4.4590   14.2650 C.ar   99  TYR99      -0.0201
    124  CD1        5.2460   -5.0560   13.0930 C.ar   99  TYR99      -0.0009
    125  CD2        4.8370   -3.7000   14.9900 C.ar   99  TYR99      -0.0009
    126  CE1        3.9340   -4.8930   12.6750 C.ar   99  TYR99       0.0417
    127  CE2        3.5450   -3.5300   14.5520 C.ar   99  TYR99       0.0417
    128  CZ         3.1140   -4.0870   13.3900 C.ar   99  TYR99       0.1957
    129  OH         1.7910   -3.9360   12.9620 O.3    99  TYR99      -0.2866
    130  N         -4.2940   -4.8970    9.8490 N.3   134  ALA134     -0.1245
    131  CA        -2.9990   -4.4880   10.4160 C.3   134  ALA134      0.1562
    132  C         -1.8710   -4.7240    9.3940 C.2   134  ALA134      0.2260
    133  O         -0.9690   -3.8800    9.2700 O.2   134  ALA134     -0.2867
    134  CB        -2.6990   -5.2240   11.6810 C.3   134  ALA134      0.0290
    135  N         -1.9340   -1.9600    6.7520 N.3   137  LYS137     -0.1231
    136  CA        -1.4500   -0.6880    7.2910 C.3   137  LYS137      0.1693
    137  C          0.0690   -0.6850    7.3950 C.2   137  LYS137      0.2592
    138  O          0.7380    0.3080    7.0670 O.2   137  LYS137     -0.2718
    139  CB        -2.0900   -0.3490    8.6590 C.3   137  LYS137      0.0285
    140  CG        -3.5570    0.0340    8.5440 C.3   137  LYS137      0.0035
    141  CD        -4.2160    0.3410    9.8560 C.3   137  LYS137      0.0206
    142  CE        -5.7280    0.2140    9.6550 C.3   137  LYS137      0.1093
    143  NZ        -6.4900   -0.0790   10.8950 N.3   137  LYS137     -0.1314
    144  N          0.6250   -1.7670    7.9320 N.am  138  GLY138     -0.1957
    145  CA         2.0580   -1.8080    8.0790 C.3   138  GLY138      0.1869
    146  C          2.7970   -1.9530    6.7710 C.2   138  GLY138      0.2309
    147  O          3.8340   -1.2750    6.5140 O.2   138  GLY138     -0.2863
    148  N          2.5920    1.2670    4.8240 N.3   141  LEU141     -0.1245
    149  CA         3.5690    2.2120    5.2990 C.3   141  LEU141      0.1561
    150  C          4.9560    1.9070    4.6750 C.2   141  LEU141      0.2260
    151  O          5.6560    2.8130    4.1980 O.2   141  LEU141     -0.2867
    152  CB         3.6560    2.2230    6.8110 C.3   141  LEU141      0.0270
    153  CG         2.5440    2.8990    7.5350 C.3   141  LEU141      0.0019
    154  CD1        2.4590    2.4390    8.9520 C.3   141  LEU141      0.0001
    155  CD2        2.8040    4.3990    7.5520 C.3   141  LEU141      0.0001
    156  N          6.7450    4.4590    2.0510 N.3   145  ILE145     -0.1245
    157  CA         8.0320    5.0740    2.3750 C.3   145  ILE145      0.1561
    158  C          9.0440    4.6440    1.3050 C.2   145  ILE145      0.2260
    159  O          9.7790    5.4900    0.7790 O.2   145  ILE145     -0.2867
    160  CB         8.5260    4.6910    3.7830 C.3   145  ILE145      0.0252
    161  CG1        7.5790    5.3080    4.8310 C.3   145  ILE145      0.0019
    162  CG2        9.9930    5.0370    3.9590 C.3   145  ILE145      0.0019
    163  CD1        7.7660    4.7250    6.1970 C.3   145  ILE145      0.0001
@<TRIPOS>BOND
     1   159   158    2
     2   158   157    1
     3   156   157    1
     4   157   160    1
     5   160   162    1
     6   160   161    1
     7   151   150    2
     8   150   149    1
     9   148   149    1
    10   161   163    1
    11   149   152    1
    12    25    24    2
    13    24    23    1
    14   147   146    2
    15    22    23    1
    16   135   136    1
    17    23    26    1
    18   146   145    1
    19   152   153    1
    20   138   137    2
    21   136   137    1
    22   136   139    1
    23   137   144   am
    24   153   155    1
    25   153   154    1
    26    29    30    1
    27    32    31    2
    28    28    26    1
    29   144   145    1
    30    26    27    1
    31   140   139    1
    32   140   141    1
    33    31    30    1
    34    30    33    1
    35    33    34    1
    36    33    35    1
    37    11    10    2
    38    36    34    1
    39     9     8    1
    40     9    10    1
    41     9    12    1
    42   133   132    2
    43   132   131    1
    44    10    14   am
    45     1     2    1
    46   142   141    1
    47   142   143    1
    48    13    12    1
    49   130   131    1
    50    17    16    2
    51    16    15    1
    52   131   134    1
    53    14    15    1
    54     6     5    1
    55     2     3    1
    56     2     5    1
    57    15    18    1
    58     3     4    2
    59     7     5    1
    60   101   100    1
    61    18    19    1
    62    43    41    1
    63   126   124   ar
    64   126   128   ar
    65    59    57    1
    66   129   128    1
    67   100    98   ar
    68   100    99   ar
    69   124   123   ar
    70   128   127   ar
    71    20    19   ar
    72    37    38    1
    73    98    96   ar
    74    19    21   ar
    75    82    83    1
    76    82    79    1
    77    41    38    1
    78    41    42    1
    79    99    97   ar
    80    85    83   ar
    81    85    87   ar
    82    78    79    1
    83    83    84   ar
    84   123   122    1
    85   123   125   ar
    86    87    88   ar
    87    81    80    2
    88    38    39    1
    89    57    58    1
    90    57    54    1
    91   127   125   ar
    92    60    58    1
    93    84    86   ar
    94   122   119    1
    95    79    80    1
    96    96    95   ar
    97    88    86   ar
    98    88    89    1
    99    55    54    1
   100    55    56    2
   101    54    53    1
   102    97    95   ar
   103    40    39    2
   104   117   115    1
   105   119   120    1
   106   119   118    1
   107    95    94    1
   108    67    65    1
   109   116   114    1
   110    77    75   ar
   111    77    76   ar
   112   120   121    2
   113   109   107    1
   114    75    73   ar
   115    52    51    1
   116   107   106    1
   117    66    65    1
   118   115   114    1
   119    76    74   ar
   120    65    62    1
   121   114   111    1
   122    94    91    1
   123    73    74   ar
   124    73    72    1
   125    61    62    1
   126    50    51    1
   127    50    49    1
   128   106   108    1
   129   106   103    1
   130    90    91    1
   131    72    69    1
   132    62    63    1
   133    93    92    2
   134    91    92    1
   135    64    63    2
   136   111   112    1
   137   111   110    1
   138   112   113    2
   139    48    49    1
   140    48    45    1
   141   103   102    1
   142   103   104    1
   143    69    68    1
   144    69    70    1
   145    47    46    2
   146    46    45    1
   147    45    44    1
   148   104   105    2
   149    70    71    2
