@<TRIPOS>MOLECULE
tmp/4ryzB01.pdb
 201 195 0 0 0
SMALL
GASTEIGER

@<TRIPOS>ATOM
      1  N        -44.9060  114.7010  -44.8400 N.3    60  PHE60      -0.1241
      2  CA       -45.9470  113.6880  -44.7630 C.3    60  PHE60       0.1605
      3  C        -46.8100  113.6310  -46.0340 C.2    60  PHE60       0.2264
      4  O        -47.8860  113.0270  -46.0080 O.2    60  PHE60      -0.2867
      5  CB       -46.8410  113.9260  -43.5400 C.3    60  PHE60       0.0534
      6  CG       -46.0930  114.0440  -42.2410 C.ar   60  PHE60      -0.0203
      7  CD1      -45.1100  113.1330  -41.8980 C.ar   60  PHE60      -0.0042
      8  CD2      -46.3910  115.0760  -41.3530 C.ar   60  PHE60      -0.0042
      9  CE1      -44.4140  113.2610  -40.7060 C.ar   60  PHE60      -0.0003
     10  CE2      -45.7110  115.2000  -40.1540 C.ar   60  PHE60      -0.0003
     11  CZ       -44.7230  114.2920  -39.8250 C.ar   60  PHE60      -0.0000
     12  N        -52.8020  116.1490  -50.2230 N.3   101  GLU101     -0.1231
     13  CA       -52.0540  115.5740  -49.1040 C.3   101  GLU101      0.1699
     14  C        -51.9740  116.5580  -47.9350 C.2   101  GLU101      0.2592
     15  O        -52.3510  117.7250  -48.0310 O.2   101  GLU101     -0.2718
     16  CB       -50.6560  115.1640  -49.5420 C.3   101  GLU101      0.0402
     17  CG       -50.6180  114.1620  -50.7040 C.3   101  GLU101      0.1161
     18  CD       -51.2290  112.7680  -50.4030 C.2   101  GLU101      0.3649
     19  OE1      -51.6690  112.5060  -49.2610 O.co2 101  GLU101     -0.2457
     20  OE2      -51.2640  111.9120  -51.3320 O.co2 101  GLU101     -0.2457
     21  N        -51.5130  116.0420  -46.8120 N.am  102  PHE102     -0.1976
     22  CA       -51.3980  116.7870  -45.5560 C.3   102  PHE102      0.1639
     23  C        -51.0110  118.2700  -45.6440 C.2   102  PHE102      0.2290
     24  O        -51.6350  119.1120  -45.0170 O.2   102  PHE102     -0.2864
     25  CB       -50.3730  116.0920  -44.6820 C.3   102  PHE102      0.0560
     26  CG       -50.3200  116.6340  -43.3080 C.ar  102  PHE102     -0.0200
     27  CD1      -51.4410  116.5660  -42.4880 C.ar  102  PHE102     -0.0042
     28  CD2      -49.1780  117.2290  -42.8450 C.ar  102  PHE102     -0.0042
     29  CE1      -51.4200  117.0810  -41.2140 C.ar  102  PHE102     -0.0003
     30  CE2      -49.1450  117.7170  -41.5680 C.ar  102  PHE102     -0.0003
     31  CZ       -50.2700  117.6650  -40.7490 C.ar  102  PHE102     -0.0000
     32  N        -60.8080  112.6080  -49.2030 N.3   110  VAL110     -0.1231
     33  CA       -59.7560  112.4360  -48.1810 C.3   110  VAL110      0.1692
     34  C        -58.6230  111.5080  -48.6600 C.2   110  VAL110      0.2592
     35  O        -58.8760  110.4780  -49.2940 O.2   110  VAL110     -0.2718
     36  CB       -60.3960  111.9270  -46.8540 C.3   110  VAL110      0.0266
     37  CG1      -59.3670  111.6000  -45.7730 C.3   110  VAL110      0.0020
     38  CG2      -61.3800  112.9640  -46.3270 C.3   110  VAL110      0.0020
     39  N        -57.3750  111.8790  -48.3650 N.am  111  THR111     -0.1953
     40  CA       -56.2200  111.0520  -48.7620 C.3   111  THR111      0.1897
     41  C        -56.1910  109.7010  -48.0250 C.2   111  THR111      0.2313
     42  O        -56.6160  109.5870  -46.8410 O.2   111  THR111     -0.2863
     43  CB       -54.8450  111.7610  -48.5940 C.3   111  THR111      0.1794
     44  OG1      -53.7810  110.8910  -49.0170 O.3   111  THR111     -0.2208
     45  CG2      -54.5630  112.2110  -47.1460 C.3   111  THR111      0.0378
     46  N        -48.5080  106.1930  -45.6520 N.3   115  LEU115     -0.1231
     47  CA       -47.0700  106.3840  -45.6220 C.3   115  LEU115      0.1693
     48  C        -46.4390  106.2230  -44.2380 C.2   115  LEU115      0.2591
     49  O        -45.2190  106.1660  -44.1460 O.2   115  LEU115     -0.2718
     50  CB       -46.7010  107.7380  -46.2090 C.3   115  LEU115      0.0284
     51  CG       -46.7810  109.0190  -45.3710 C.3   115  LEU115      0.0019
     52  CD1      -45.8370  110.0390  -45.9920 C.3   115  LEU115      0.0001
     53  CD2      -48.1810  109.6140  -45.2740 C.3   115  LEU115      0.0001
     54  N        -47.2650  106.1010  -43.1970 N.am  116  VAL116     -0.1980
     55  CA       -46.8330  106.2360  -41.8000 C.3   116  VAL116      0.1595
     56  C        -46.4750  104.9090  -41.1350 C.2   116  VAL116      0.2287
     57  O        -45.3900  104.7650  -40.5940 O.2   116  VAL116     -0.2864
     58  CB       -47.9010  106.9740  -40.9600 C.3   116  VAL116      0.0276
     59  CG1      -47.3620  107.2620  -39.5740 C.3   116  VAL116      0.0022
     60  CG2      -48.2580  108.2830  -41.6380 C.3   116  VAL116      0.0022
     61  N        -52.2220  105.8060  -42.7280 N.3   129  THR129     -0.1203
     62  CA       -51.8600  107.1580  -42.3500 C.3   129  THR129      0.1994
     63  C        -52.7480  107.4670  -41.1350 C.2   129  THR129      0.2618
     64  O        -52.9290  106.5790  -40.2980 O.2   129  THR129     -0.2717
     65  CB       -51.9290  108.1560  -43.5310 C.3   129  THR129      0.1784
     66  OG1      -51.8980  109.5070  -43.0370 O.3   129  THR129     -0.2211
     67  CG2      -53.1610  107.9380  -44.4210 C.3   129  THR129      0.0376
     68  N        -53.2910  108.6730  -41.0190 N.am  130  GLU130     -0.1965
     69  CA       -54.1090  109.0510  -39.8640 C.3   130  GLU130      0.1733
     70  C        -55.5460  109.3650  -40.2390 C.2   130  GLU130      0.2617
     71  O        -56.3120  109.8830  -39.4090 O.2   130  GLU130     -0.2715
     72  CB       -53.4610  110.2210  -39.1170 C.3   130  GLU130      0.0429
     73  CG       -52.1520  109.7990  -38.4630 C.3   130  GLU130      0.1163
     74  CD       -51.3630  110.9140  -37.8190 C.2   130  GLU130      0.3649
     75  OE1      -51.9400  111.9790  -37.5630 O.co2 130  GLU130     -0.2457
     76  OE2      -50.1450  110.7150  -37.5890 O.co2 130  GLU130     -0.2457
     77  N        -55.9210  109.0100  -41.4700 N.am  131  THR131     -0.1951
     78  CA       -57.2720  109.2620  -41.9880 C.3   131  THR131      0.1897
     79  C        -58.2040  108.0570  -41.7340 C.2   131  THR131      0.2313
     80  O        -57.8540  107.0890  -41.0300 O.2   131  THR131     -0.2863
     81  CB       -57.2190  109.6090  -43.4910 C.3   131  THR131      0.1794
     82  OG1      -56.8420  108.4460  -44.2580 O.3   131  THR131     -0.2208
     83  CG2      -56.2400  110.7690  -43.7280 C.3   131  THR131      0.0378
     84  N        -63.8730  109.9220  -37.6300 N.3   157  ASN157     -0.1225
     85  CA       -63.4010  110.5980  -38.8540 C.3   157  ASN157      0.1785
     86  C        -61.9830  110.2360  -39.2710 C.2   157  ASN157      0.2597
     87  O        -61.5740  110.5470  -40.3880 O.2   157  ASN157     -0.2718
     88  CB       -63.4870  112.1050  -38.6870 C.3   157  ASN157      0.1169
     89  CG       -64.9150  112.5590  -38.5040 C.2   157  ASN157      0.2627
     90  OD1      -65.4990  112.3510  -37.4480 O.2   157  ASN157     -0.2716
     91  ND2      -65.5040  113.1450  -39.5500 N.am  157  ASN157     -0.0877
     92  N        -61.2240  109.6330  -38.3540 N.am  158  GLY158     -0.1957
     93  CA       -59.8750  109.1800  -38.6320 C.3   158  GLY158      0.1869
     94  C        -59.4340  108.2890  -37.5080 C.2   158  GLY158      0.2309
     95  O        -60.1420  108.1490  -36.5350 O.2   158  GLY158     -0.2863
     96  N        -60.7780  111.0730  -33.7850 N.3   176  ASN176     -0.1240
     97  CA       -61.7000  112.2080  -33.6570 C.3   176  ASN176      0.1653
     98  C        -63.0830  111.7880  -34.1590 C.2   176  ASN176      0.2266
     99  O        -63.1970  110.9520  -35.0650 O.2   176  ASN176     -0.2867
    100  CB       -61.2130  113.4280  -34.4800 C.3   176  ASN176      0.1155
    101  CG       -59.8010  113.8760  -34.1020 C.2   176  ASN176      0.2627
    102  OD1      -58.8240  113.5310  -34.7690 O.2   176  ASN176     -0.2716
    103  ND2      -59.6850  114.6280  -33.0120 N.am  176  ASN176     -0.0877
    104  N        -66.5440  113.9570  -35.3260 N.3   178  PHE178     -0.1241
    105  CA       -67.3240  115.1960  -35.6040 C.3   178  PHE178      0.1605
    106  C        -68.7870  114.8440  -35.9090 C.2   178  PHE178      0.2264
    107  O        -69.6520  114.9220  -35.0450 O.2   178  PHE178     -0.2867
    108  CB       -66.7960  116.0190  -36.8140 C.3   178  PHE178      0.0534
    109  CG       -65.2790  116.0300  -37.0030 C.ar  178  PHE178     -0.0203
    110  CD1      -64.3930  116.1090  -35.9310 C.ar  178  PHE178     -0.0042
    111  CD2      -64.7430  116.0130  -38.2960 C.ar  178  PHE178     -0.0042
    112  CE1      -63.0130  116.1300  -36.1450 C.ar  178  PHE178     -0.0003
    113  CE2      -63.3690  116.0420  -38.5120 C.ar  178  PHE178     -0.0003
    114  CZ       -62.5020  116.1040  -37.4360 C.ar  178  PHE178     -0.0000
    115  N        -55.4250  117.6330  -32.1400 N.3   216  TYR216     -0.1241
    116  CA       -54.7050  116.6480  -32.9220 C.3   216  TYR216      0.1605
    117  C        -54.2450  115.5510  -31.9700 C.2   216  TYR216      0.2264
    118  O        -53.7790  115.8390  -30.8550 O.2   216  TYR216     -0.2867
    119  CB       -53.4880  117.2890  -33.5610 C.3   216  TYR216      0.0534
    120  CG       -52.6500  116.3130  -34.3140 C.ar  216  TYR216     -0.0201
    121  CD1      -53.1300  115.7030  -35.4420 C.ar  216  TYR216     -0.0009
    122  CD2      -51.3590  115.9940  -33.8880 C.ar  216  TYR216     -0.0009
    123  CE1      -52.3460  114.8070  -36.1430 C.ar  216  TYR216      0.0417
    124  CE2      -50.5750  115.0930  -34.5740 C.ar  216  TYR216      0.0417
    125  CZ       -51.0740  114.5020  -35.6940 C.ar  216  TYR216      0.1957
    126  OH       -50.2890  113.6200  -36.3660 O.3   216  TYR216     -0.2866
    127  N        -52.0970  111.7660  -31.9980 N.3   218  HIS218     -0.1241
    128  CA       -51.1650  110.9510  -32.7410 C.3   218  HIS218      0.1621
    129  C        -51.0030  109.5490  -32.1620 C.2   218  HIS218      0.2264
    130  O        -50.6100  108.6550  -32.8760 O.2   218  HIS218     -0.2867
    131  CB       -49.8010  111.6730  -32.7310 C.3   218  HIS218      0.0745
    132  CG       -48.8120  111.0660  -33.6540 C.ar  218  HIS218      0.0817
    133  ND1      -48.7760  111.3860  -34.9880 N.ar  218  HIS218     -0.2268
    134  CD2      -47.8880  110.0900  -33.4730 C.ar  218  HIS218      0.1154
    135  CE1      -47.8440  110.6690  -35.5840 C.ar  218  HIS218      0.1986
    136  NE2      -47.3000  109.8660  -34.6890 N.ar  218  HIS218     -0.2212
    137  N        -57.4290  121.4040  -34.1950 N.3   236  ILE236     -0.1245
    138  CA       -57.9080  121.3750  -35.5750 C.3   236  ILE236      0.1561
    139  C        -59.0910  122.3190  -35.6350 C.2   236  ILE236      0.2260
    140  O        -60.0820  122.1200  -34.9290 O.2   236  ILE236     -0.2867
    141  CB       -58.3610  119.9620  -35.9770 C.3   236  ILE236      0.0252
    142  CG1      -57.1830  118.9960  -35.8810 C.3   236  ILE236      0.0019
    143  CG2      -58.9140  119.9630  -37.4020 C.3   236  ILE236      0.0019
    144  CD1      -57.5860  117.5460  -35.7900 C.3   236  ILE236      0.0001
    145  N        -61.7930  123.7230  -41.5440 N.3   241  PHE241     -0.1241
    146  CA       -61.7260  122.2950  -41.9830 C.3   241  PHE241      0.1605
    147  C        -62.8970  121.8990  -42.8880 C.2   241  PHE241      0.2264
    148  O        -62.6820  121.3350  -43.9680 O.2   241  PHE241     -0.2867
    149  CB       -61.6520  121.3260  -40.7660 C.3   241  PHE241      0.0534
    150  CG       -61.0150  119.9650  -41.0630 C.ar  241  PHE241     -0.0203
    151  CD1      -59.6740  119.8590  -41.4640 C.ar  241  PHE241     -0.0042
    152  CD2      -61.7360  118.7710  -40.8810 C.ar  241  PHE241     -0.0042
    153  CE1      -59.0850  118.6100  -41.7150 C.ar  241  PHE241     -0.0003
    154  CE2      -61.1470  117.5250  -41.1340 C.ar  241  PHE241     -0.0003
    155  CZ       -59.8240  117.4460  -41.5530 C.ar  241  PHE241     -0.0000
    156  N        -54.5000  120.2120  -45.1210 N.3   252  TYR252     -0.1241
    157  CA       -54.7050  119.8110  -43.7210 C.3   252  TYR252      0.1605
    158  C        -53.9140  120.7390  -42.7800 C.2   252  TYR252      0.2264
    159  O        -54.4550  121.2730  -41.8130 O.2   252  TYR252     -0.2867
    160  CB       -54.3350  118.3400  -43.4770 C.3   252  TYR252      0.0534
    161  CG       -55.1860  117.3340  -44.2260 C.ar  252  TYR252     -0.0201
    162  CD1      -56.2910  116.7250  -43.6210 C.ar  252  TYR252     -0.0009
    163  CD2      -54.8860  116.9690  -45.5460 C.ar  252  TYR252     -0.0009
    164  CE1      -57.0740  115.8010  -44.3170 C.ar  252  TYR252      0.0417
    165  CE2      -55.6530  116.0440  -46.2350 C.ar  252  TYR252      0.0417
    166  CZ       -56.7430  115.4710  -45.6200 C.ar  252  TYR252      0.1957
    167  OH       -57.4890  114.5900  -46.3390 O.3   252  TYR252     -0.2866
    168  N        -54.6800  123.7180  -38.6850 N.3   256  PHE256     -0.1241
    169  CA       -54.1760  123.6200  -37.3130 C.3   256  PHE256      0.1605
    170  C        -53.9700  124.9910  -36.7250 C.2   256  PHE256      0.2264
    171  O        -53.5850  125.9040  -37.4240 O.2   256  PHE256     -0.2867
    172  CB       -52.8900  122.8050  -37.2500 C.3   256  PHE256      0.0534
    173  CG       -53.0990  121.3600  -37.5820 C.ar  256  PHE256     -0.0203
    174  CD1      -52.8730  120.8900  -38.8640 C.ar  256  PHE256     -0.0042
    175  CD2      -53.5650  120.4820  -36.6360 C.ar  256  PHE256     -0.0042
    176  CE1      -53.0810  119.5540  -39.1950 C.ar  256  PHE256     -0.0003
    177  CE2      -53.7700  119.1450  -36.9520 C.ar  256  PHE256     -0.0003
    178  CZ       -53.5260  118.6780  -38.2340 C.ar  256  PHE256     -0.0000
    179  N        -45.0050  120.3050  -36.4530 N.3   315  TYR315     -0.1241
    180  CA       -45.0910  120.0180  -37.8740 C.3   315  TYR315      0.1605
    181  C        -44.8260  121.2270  -38.7850 C.2   315  TYR315      0.2264
    182  O        -44.4790  121.0280  -39.9530 O.2   315  TYR315     -0.2867
    183  CB       -46.4250  119.3460  -38.2370 C.3   315  TYR315      0.0534
    184  CG       -46.6500  117.9110  -37.7570 C.ar  315  TYR315     -0.0201
    185  CD1      -45.6540  117.1720  -37.0980 C.ar  315  TYR315     -0.0009
    186  CD2      -47.8490  117.2710  -38.0380 C.ar  315  TYR315     -0.0009
    187  CE1      -45.8830  115.8680  -36.7000 C.ar  315  TYR315      0.0417
    188  CE2      -48.0880  115.9780  -37.6310 C.ar  315  TYR315      0.0417
    189  CZ       -47.1080  115.2770  -36.9630 C.ar  315  TYR315      0.1957
    190  OH       -47.3730  113.9800  -36.5900 O.3   315  TYR315     -0.2866
    191  N        -40.8640  106.0180  -41.4310 N.3   503  PHE503     -0.1241
    192  CA       -41.4290  106.4420  -40.1570 C.3   503  PHE503      0.1605
    193  C        -41.5720  105.2850  -39.1770 C.2   503  PHE503      0.2264
    194  O        -40.8790  105.2290  -38.1600 O.2   503  PHE503     -0.2867
    195  CB       -42.7830  107.1360  -40.3880 C.3   503  PHE503      0.0534
    196  CG       -42.6880  108.3670  -41.2470 C.ar  503  PHE503     -0.0203
    197  CD1      -41.7460  109.3560  -40.9820 C.ar  503  PHE503     -0.0042
    198  CD2      -43.5430  108.5490  -42.3090 C.ar  503  PHE503     -0.0042
    199  CE1      -41.6490  110.4800  -41.7890 C.ar  503  PHE503     -0.0003
    200  CE2      -43.4660  109.6810  -43.1080 C.ar  503  PHE503     -0.0003
    201  CZ       -42.5080  110.6400  -42.8610 C.ar  503  PHE503     -0.0000
@<TRIPOS>BOND
     1    20    18   ar
     2    17    18    1
     3    17    16    1
     4    18    19   ar
     5    12    13    1
     6    16    13    1
     7    35    34    2
     8    32    33    1
     9    13    14    1
    10    44    43    1
    11    40    43    1
    12    40    39    1
    13    40    41    1
    14    34    39   am
    15    34    33    1
    16    43    45    1
    17    33    36    1
    18    15    14    2
    19    41    42    2
    20    14    21   am
    21    36    38    1
    22    36    37    1
    23    21    22    1
    24   167   166    1
    25   165   166   ar
    26   165   163   ar
    27    50    47    1
    28    50    51    1
    29     3     4    2
    30     3     2    1
    31    52    51    1
    32    46    47    1
    33    23    22    1
    34    23    24    2
    35    47    48    1
    36   166   164   ar
    37    22    25    1
    38   163   161   ar
    39    51    53    1
    40   156   157    1
    41     1     2    1
    42     2     5    1
    43    25    26    1
    44    67    65    1
    45   164   162   ar
    46    82    81    1
    47    48    49    2
    48    48    54   am
    49   161   162   ar
    50   161   160    1
    51   148   147    2
    52    83    81    1
    53   157   160    1
    54   157   158    1
    55     5     6    1
    56    65    66    1
    57    65    62    1
    58    81    78    1
    59    26    28   ar
    60    26    27   ar
    61    54    55    1
    62   200   201   ar
    63   200   198   ar
    64   147   146    1
    65   201   199   ar
    66    28    30   ar
    67   158   159    2
    68    61    62    1
    69    27    29   ar
    70    62    63    1
    71   198   196   ar
    72     6     7   ar
    73     6     8   ar
    74    78    79    1
    75    78    77    1
    76   146   145    1
    77   146   149    1
    78     7     9   ar
    79    55    56    1
    80    55    58    1
    81   199   197   ar
    82    79    80    2
    83   153   155   ar
    84   153   151   ar
    85    60    58    1
    86    30    31   ar
    87   155   154   ar
    88    77    70   am
    89   151   150   ar
    90   191   192    1
    91     8    10   ar
    92   196   197   ar
    93   196   195    1
    94    29    31   ar
    95    63    68   am
    96    63    64    2
    97    56    57    2
    98   154   152   ar
    99   150   152   ar
   100   150   149    1
   101    68    69    1
   102    58    59    1
   103     9    11   ar
   104   195   192    1
   105    87    86    2
   106    70    69    1
   107    70    71    2
   108   192   193    1
   109    10    11   ar
   110   182   181    2
   111    69    72    1
   112    91    89   am
   113    86    85    1
   114    86    92   am
   115   176   174   ar
   116   176   178   ar
   117   193   194    2
   118    72    73    1
   119   174   173   ar
   120    85    88    1
   121    85    84    1
   122   181   180    1
   123    88    89    1
   124   168   169    1
   125    93    92    1
   126    93    94    1
   127   113   111   ar
   128   113   114   ar
   129    89    90    2
   130    73    74    1
   131   111   109   ar
   132   183   180    1
   133   183   184    1
   134   178   177   ar
   135   186   184   ar
   136   186   188   ar
   137   180   179    1
   138    74    76   ar
   139    74    75   ar
   140   184   185   ar
   141   188   189   ar
   142   173   172    1
   143   173   175   ar
   144    94    95    2
   145   114   112   ar
   146   171   170    2
   147   143   141    1
   148   169   172    1
   149   169   170    1
   150   185   187   ar
   151   109   108    1
   152   109   110   ar
   153   189   187   ar
   154   189   190    1
   155   177   175   ar
   156   108   105    1
   157   126   125    1
   158   112   110   ar
   159   123   125   ar
   160   123   121   ar
   161   141   142    1
   162   141   138    1
   163   106   105    1
   164   106   107    2
   165   142   144    1
   166   125   124   ar
   167   139   138    1
   168   139   140    2
   169   105   104    1
   170   135   133   ar
   171   135   136   ar
   172   138   137    1
   173   121   120   ar
   174    99    98    2
   175   133   132   ar
   176   102   101    2
   177   136   134   ar
   178   124   122   ar
   179   100   101    1
   180   100    97    1
   181   120   122   ar
   182   120   119    1
   183    98    97    1
   184   101   103   am
   185    96    97    1
   186   132   134   ar
   187   132   131    1
   188   119   116    1
   189   116   115    1
   190   116   117    1
   191   130   129    2
   192   128   131    1
   193   128   129    1
   194   128   127    1
   195   117   118    2
