@<TRIPOS>MOLECULE
tmp/4rz3B01.pdb
 164 157 0 0 0
SMALL
GASTEIGER

@<TRIPOS>ATOM
      1  N         17.9790   -9.7050   15.3170 N.3    11  LYS11      -0.1231
      2  CA        16.8330  -10.1690   14.5340 C.3    11  LYS11       0.1693
      3  C         16.0890  -11.2490   15.2930 C.2    11  LYS11       0.2593
      4  O         16.6400  -11.8600   16.2120 O.2    11  LYS11      -0.2718
      5  CB        17.3060  -10.7450   13.1940 C.3    11  LYS11       0.0285
      6  CG        18.0860  -12.0660   13.3460 C.3    11  LYS11       0.0035
      7  CD        18.7090  -12.5340   12.0330 C.3    11  LYS11       0.0206
      8  CE        17.6730  -12.6740   10.9260 C.3    11  LYS11       0.1093
      9  NZ        16.6880  -13.7780   11.2290 N.3    11  LYS11      -0.1314
     10  N         14.8460  -11.5020   14.8880 N.am   12  GLY12      -0.1942
     11  CA        14.0500  -12.5340   15.5110 C.3    12  GLY12       0.2014
     12  C         14.5860  -13.8800   15.1130 C.2    12  GLY12       0.2639
     13  O         15.3780  -13.9750   14.1770 O.2    12  GLY12      -0.2714
     14  N         14.1720  -14.9210   15.8270 N.am   13  GLY13      -0.1939
     15  CA        14.5560  -16.2750   15.4870 C.3    13  GLY13       0.2014
     16  C         15.8990  -16.6950   16.0520 C.2    13  GLY13       0.2639
     17  O         16.4790  -17.6700   15.5750 O.2    13  GLY13      -0.2714
     18  N         16.3930  -15.9850   17.0740 N.am   14  VAL14      -0.1963
     19  CA        17.6630  -16.3720   17.7050 C.3    14  VAL14       0.1727
     20  C         17.4420  -17.0180   19.0830 C.2    14  VAL14       0.2617
     21  O         18.4010  -17.3970   19.7600 O.2    14  VAL14      -0.2715
     22  CB        18.6660  -15.1840   17.8060 C.3    14  VAL14       0.0290
     23  CG1       19.0140  -14.6450   16.4340 C.3    14  VAL14       0.0023
     24  CG2       18.1300  -14.0700   18.7430 C.3    14  VAL14       0.0023
     25  N         16.1760  -17.1580   19.4760 N.am   15  GLY15      -0.1940
     26  CA        15.8290  -17.7530   20.7540 C.3    15  GLY15       0.2014
     27  C         15.8650  -16.7440   21.8870 C.2    15  GLY15       0.2639
     28  O         16.0280  -17.1060   23.0610 O.2    15  GLY15      -0.2714
     29  N         15.7160  -15.4700   21.5490 N.am   16  LYS16      -0.1963
     30  CA        15.7900  -14.4250   22.5630 C.3    16  LYS16       0.1728
     31  C         14.7070  -14.5610   23.6500 C.2    16  LYS16       0.2617
     32  O         15.0150  -14.4750   24.8350 O.2    16  LYS16      -0.2715
     33  CB        15.7320  -13.0450   21.9050 C.3    16  LYS16       0.0311
     34  CG        15.7950  -11.8780   22.9050 C.3    16  LYS16       0.0038
     35  CD        15.4400  -10.5530   22.2070 C.3    16  LYS16       0.0206
     36  CE        14.1190  -10.6570   21.4400 C.3    16  LYS16       0.1093
     37  NZ        12.9140  -10.8270   22.3280 N.3    16  LYS16      -0.1314
     38  N         13.4510  -14.7840   23.2550 N.am   17  SER17      -0.1936
     39  CA        12.3550  -14.9410   24.2340 C.3    17  SER17       0.2055
     40  C         12.5110  -16.1880   25.0950 C.2    17  SER17       0.2643
     41  O         12.2470  -16.1760   26.3110 O.2    17  SER17      -0.2714
     42  CB        10.9720  -14.9600   23.5530 C.3    17  SER17       0.2130
     43  OG        10.6590  -13.6900   23.0010 O.3    17  SER17      -0.2179
     44  N         12.9180  -17.2760   24.4620 N.am   18  ASN18      -0.1971
     45  CA        13.2110  -18.4960   25.1870 C.3    18  ASN18       0.1688
     46  C         14.3440  -18.3050   26.1920 C.2    18  ASN18       0.2292
     47  O         14.2740  -18.8040   27.3270 O.2    18  ASN18      -0.2864
     48  CB        13.5990  -19.5900   24.1960 C.3    18  ASN18       0.1181
     49  CG        12.4620  -20.5080   23.8920 C.2    18  ASN18       0.2629
     50  OD1       12.2230  -21.4670   24.6250 O.2    18  ASN18      -0.2716
     51  ND2       11.7280  -20.2140   22.8170 N.am   18  ASN18      -0.0877
     52  N          5.2260  -13.0770   23.5450 N.3    45  ASN45      -0.1240
     53  CA         5.3360  -14.5260   23.5010 C.3    45  ASN45       0.1653
     54  C          5.5260  -15.2030   24.8620 C.2    45  ASN45       0.2266
     55  O          5.4390  -16.4250   24.9600 O.2    45  ASN45      -0.2867
     56  CB         6.4170  -14.9510   22.5000 C.3    45  ASN45       0.1155
     57  CG         5.9970  -14.7080   21.0640 C.2    45  ASN45       0.2627
     58  OD1        4.8220  -14.4620   20.7800 O.2    45  ASN45      -0.2716
     59  ND2        6.9420  -14.7880   20.1540 N.am   45  ASN45      -0.0877
     60  N          4.7740  -19.2950   25.8070 N.3    49  LEU49      -0.1245
     61  CA         5.8520  -20.2010   26.2130 C.3    49  LEU49       0.1561
     62  C          5.5700  -20.8800   27.5540 C.2    49  LEU49       0.2260
     63  O          6.0700  -21.9790   27.8260 O.2    49  LEU49      -0.2867
     64  CB         7.1860  -19.4520   26.2840 C.3    49  LEU49       0.0270
     65  CG         7.8030  -18.8650   25.0100 C.3    49  LEU49       0.0019
     66  CD1        9.0990  -18.1210   25.3550 C.3    49  LEU49       0.0001
     67  CD2        8.0860  -19.9510   23.9830 C.3    49  LEU49       0.0001
     68  N         12.5140   -7.6040   19.1650 N.3   122  ALA122     -0.1245
     69  CA        13.7270   -7.9270   18.4240 C.3   122  ALA122      0.1562
     70  C         14.1420   -6.7750   17.5150 C.2   122  ALA122      0.2260
     71  O         13.2950   -6.0270   17.0120 O.2   122  ALA122     -0.2867
     72  CB        13.5490   -9.2060   17.6210 C.3   122  ALA122      0.0290
     73  N         23.6070  -18.5490   21.3190 N.3   173  ASN173     -0.1225
     74  CA        22.6200  -19.6170   21.4490 C.3   173  ASN173      0.1785
     75  C         22.6370  -20.4680   20.1730 C.2   173  ASN173      0.2597
     76  O         23.1230  -20.0230   19.1320 O.2   173  ASN173     -0.2718
     77  CB        21.2320  -19.0040   21.7130 C.3   173  ASN173      0.1169
     78  CG        20.1370  -20.0500   21.8830 C.2   173  ASN173      0.2627
     79  OD1       20.3880  -21.1580   22.3550 O.2   173  ASN173     -0.2716
     80  ND2       18.9090  -19.6950   21.4970 N.am  173  ASN173     -0.0877
     81  N         22.1450  -21.6960   20.2700 N.am  174  ARG174     -0.1979
     82  CA        22.1190  -22.6170   19.1380 C.3   174  ARG174      0.1597
     83  C         23.5300  -22.9580   18.6520 C.2   174  ARG174      0.2287
     84  O         23.7400  -23.2250   17.4700 O.2   174  ARG174     -0.2864
     85  CB        21.2720  -22.0400   17.9930 C.3   174  ARG174      0.0334
     86  CG        19.8860  -21.5790   18.4530 C.3   174  ARG174      0.0492
     87  CD        18.8520  -21.5930   17.3350 C.3   174  ARG174      0.2205
     88  NE        18.5850  -22.9400   16.8320 N.pl3 174  ARG174     -0.0865
     89  CZ        17.5310  -23.2620   16.0790 C.cat 174  ARG174      0.5346
     90  NH1       16.6310  -22.3380   15.7570 N.pl3 174  ARG174      0.1354
     91  NH2       17.3720  -24.5100   15.6570 N.pl3 174  ARG174      0.1354
     92  N         24.8660  -21.4250   24.7360 N.3   206  ILE206     -0.1231
     93  CA        23.8220  -22.4300   24.8480 C.3   206  ILE206      0.1678
     94  C         23.8250  -23.2840   23.5870 C.2   206  ILE206      0.2434
     95  O         23.7590  -22.7620   22.4860 O.2   206  ILE206     -0.2733
     96  CB        22.4400  -21.7770   25.0020 C.3   206  ILE206      0.0265
     97  CG1       22.4430  -20.8160   26.1930 C.3   206  ILE206      0.0019
     98  CG2       21.3480  -22.8470   25.1180 C.3   206  ILE206      0.0020
     99  CD1       21.2500  -19.8950   26.2200 C.3   206  ILE206      0.0001
    100  N         23.9020  -24.6150   23.7420 N.am  207  PRO207     -0.2718
    101  CA        24.0110  -25.4700   22.5520 C.3   207  PRO207      0.1535
    102  C         22.6840  -25.6330   21.8240 C.2   207  PRO207      0.2598
    103  O         21.6350  -25.3930   22.4230 O.2   207  PRO207     -0.2715
    104  CB        24.4270  -26.8260   23.1420 C.3   207  PRO207      0.0310
    105  CG        23.8030  -26.8330   24.4970 C.3   207  PRO207      0.0237
    106  CD        23.9330  -25.3950   24.9900 C.3   207  PRO207      0.0939
    107  N         22.7150  -26.0440   20.5920 N.am  208  GLU208     -0.1964
    108  CA        21.5610  -26.4690   19.9140 C.3   208  GLU208      0.1733
    109  C         21.0420  -27.7130   20.6640 C.2   208  GLU208      0.2616
    110  O         21.7940  -28.5610   20.9910 O.2   208  GLU208     -0.2715
    111  CB        21.9900  -26.8320   18.5250 C.3   208  GLU208      0.0429
    112  CG        20.9260  -27.3510   17.6070 C.3   208  GLU208      0.1163
    113  CD        19.9230  -26.3270   17.2830 C.2   208  GLU208      0.3649
    114  OE1       20.1510  -25.1630   17.4760 O.co2 208  GLU208     -0.2457
    115  OE2       18.8590  -26.7140   16.8850 O.co2 208  GLU208     -0.2457
    116  N         19.7560  -27.7360   20.9620 N.am  209  ASP209     -0.1957
    117  CA        19.1390  -28.7950   21.7100 C.3   209  ASP209      0.1840
    118  C         17.6730  -28.9850   21.2880 C.2   209  ASP209      0.2621
    119  O         16.9270  -28.0810   21.3670 O.2   209  ASP209     -0.2715
    120  CB        19.2830  -28.4990   23.2080 C.3   209  ASP209      0.1450
    121  CG        18.8140  -29.6450   24.1170 C.2   209  ASP209      0.3671
    122  OD1       18.2470  -30.5830   23.6430 O.co2 209  ASP209     -0.2456
    123  OD2       19.0510  -29.5800   25.3090 O.co2 209  ASP209     -0.2456
    124  N         17.2700  -30.1990   20.9540 N.am  210  ARG210     -0.1977
    125  CA        15.8740  -30.4900   20.5670 C.3   210  ARG210      0.1597
    126  C         14.8490  -30.2600   21.6550 C.2   210  ARG210      0.2287
    127  O         13.7240  -30.0960   21.3720 O.2   210  ARG210     -0.2864
    128  CB        15.6740  -31.8900   20.0260 C.3   210  ARG210      0.0334
    129  CG        16.4940  -32.2290   18.8180 C.3   210  ARG210      0.0492
    130  CD        16.1960  -33.6520   18.3080 C.3   210  ARG210      0.2205
    131  NE        17.0490  -34.0240   17.1980 N.pl3 210  ARG210     -0.0865
    132  CZ        17.4540  -35.2620   16.9170 C.cat 210  ARG210      0.5346
    133  NH1       17.1440  -36.2950   17.6830 N.pl3 210  ARG210      0.1354
    134  NH2       18.2120  -35.4820   15.8520 N.pl3 210  ARG210      0.1354
    135  N         14.5340  -27.7270   23.3830 N.3   212  VAL212     -0.1231
    136  CA        14.0040  -26.3990   23.2820 C.3   212  VAL212      0.1692
    137  C         12.7820  -26.3850   22.3870 C.2   212  VAL212      0.2591
    138  O         11.8050  -25.8050   22.7190 O.2   212  VAL212     -0.2718
    139  CB        15.0640  -25.4140   22.8020 C.3   212  VAL212      0.0266
    140  CG1       14.5180  -24.0190   22.7480 C.3   212  VAL212      0.0020
    141  CG2       16.2550  -25.4690   23.7080 C.3   212  VAL212      0.0020
    142  N         12.8710  -27.0640   21.2660 N.am  213  ALA213     -0.1980
    143  CA        11.7750  -27.1120   20.3550 C.3   213  ALA213      0.1597
    144  C         10.6200  -27.8180   21.0300 C.2   213  ALA213      0.2287
    145  O          9.5500  -27.3100   21.0850 O.2   213  ALA213     -0.2864
    146  CB        12.1800  -27.8260   19.0800 C.3   213  ALA213      0.0319
    147  N          8.8250  -25.5390   23.4430 N.3   216  VAL216     -0.1245
    148  CA         7.9730  -24.5650   22.7570 C.3   216  VAL216      0.1561
    149  C          6.6380  -25.1630   22.2950 C.2   216  VAL216      0.2260
    150  O          5.5830  -24.5640   22.5030 O.2   216  VAL216     -0.2867
    151  CB         8.7010  -23.9430   21.5500 C.3   216  VAL216      0.0252
    152  CG1        7.7480  -23.0810   20.7400 C.3   216  VAL216      0.0019
    153  CG2        9.8840  -23.1100   22.0280 C.3   216  VAL216      0.0019
    154  N         11.9330  -25.1220   28.9240 N.3   222  PHE222     -0.1241
    155  CA        12.8520  -26.2520   28.9100 C.3   222  PHE222      0.1605
    156  C         13.6070  -26.4930   30.2030 C.2   222  PHE222      0.2264
    157  O         13.9050  -27.6420   30.5240 O.2   222  PHE222     -0.2867
    158  CB        13.8140  -26.2140   27.7100 C.3   222  PHE222      0.0534
    159  CG        14.6600  -24.9680   27.6030 C.ar  222  PHE222     -0.0203
    160  CD1       15.9130  -24.9070   28.2070 C.ar  222  PHE222     -0.0042
    161  CD2       14.2520  -23.8990   26.8010 C.ar  222  PHE222     -0.0042
    162  CE1       16.7320  -23.7780   28.0620 C.ar  222  PHE222     -0.0003
    163  CE2       15.0610  -22.7600   26.6500 C.ar  222  PHE222     -0.0003
    164  CZ        16.3040  -22.7040   27.2810 C.ar  222  PHE222     -0.0000
@<TRIPOS>BOND
     1     8     9    1
     2     8     7    1
     3     7     6    1
     4     5     6    1
     5     5     2    1
     6    13    12    2
     7     2     3    1
     8     2     1    1
     9    10     3   am
    10    10    11    1
    11    12    11    1
    12    12    14   am
    13     3     4    2
    14    15    14    1
    15    15    16    1
    16    17    16    2
    17    91    89    1
    18    90    89    1
    19   134   132    1
    20    16    18   am
    21    89    88    2
    22    23    22    1
    23    88    87    1
    24   115   113   ar
    25   132   131    2
    26   132   133    1
    27    71    70    2
    28    18    19    1
    29   131   130    1
    30   113   114   ar
    31   113   112    1
    32    87    86    1
    33    84    83    2
    34    70    69    1
    35   112   111    1
    36    72    69    1
    37    19    22    1
    38    19    20    1
    39    22    24    1
    40    85    86    1
    41    85    82    1
    42   130   129    1
    43    69    68    1
    44   111   108    1
    45    83    82    1
    46   129   128    1
    47   146   143    1
    48    20    25   am
    49    20    21    2
    50    76    75    2
    51    82    81    1
    52    25    26    1
    53   108   107    1
    54   108   109    1
    55   128   125    1
    56    59    57   am
    57    75    81   am
    58    75    74    1
    59   143   144    1
    60   143   142    1
    61   125   124    1
    62   125   126    1
    63   107   102   am
    64   109   116   am
    65   109   110    2
    66   152   151    1
    67    26    27    1
    68    58    57    2
    69   124   118   am
    70   116   117    1
    71   144   145    2
    72    57    56    1
    73   142   137   am
    74   118   119    2
    75   118   117    1
    76    73    74    1
    77   127   126    2
    78    36    35    1
    79    36    37    1
    80    74    77    1
    81    80    78   am
    82    29    27   am
    83    29    30    1
    84   151   153    1
    85   151   148    1
    86   117   120    1
    87    77    78    1
    88   102   103    2
    89   102   101    1
    90    78    79    2
    91    27    28    2
    92    33    30    1
    93    33    34    1
    94    35    34    1
    95   149   150    2
    96   149   148    1
    97   137   138    2
    98   137   136    1
    99    95    94    2
   100    56    53    1
   101   101   104    1
   102   101   100    1
   103    30    31    1
   104   140   139    1
   105   148   147    1
   106   139   136    1
   107   139   141    1
   108    51    49   am
   109    43    42    1
   110   104   105    1
   111   120   121    1
   112    38    31   am
   113    38    39    1
   114   136   135    1
   115    53    52    1
   116    53    54    1
   117    42    39    1
   118    94   100   am
   119    94    93    1
   120   122   121   ar
   121    31    32    2
   122   100   106    1
   123    49    48    1
   124    49    50    2
   125    67    65    1
   126   121   123   ar
   127    48    45    1
   128    39    40    1
   129    44    40   am
   130    44    45    1
   131   105   106    1
   132    92    93    1
   133    93    96    1
   134    54    55    2
   135    96    98    1
   136    96    97    1
   137    65    66    1
   138    65    64    1
   139    40    41    2
   140    45    46    1
   141    60    61    1
   142    46    47    2
   143    97    99    1
   144    61    64    1
   145    61    62    1
   146   163   161   ar
   147   163   164   ar
   148   161   159   ar
   149   164   162   ar
   150    62    63    2
   151   159   158    1
   152   159   160   ar
   153   158   155    1
   154   162   160   ar
   155   155   154    1
   156   155   156    1
   157   156   157    2
