@<TRIPOS>MOLECULE
tmp/4rz6A00.pdb
 96 95 0 0 0
SMALL
GASTEIGER

@<TRIPOS>ATOM
      1  N        -27.2080   -1.2110  -18.2690 N.3   102  TYR102     -0.1241
      2  CA       -27.9090   -1.9760  -19.3200 C.3   102  TYR102      0.1605
      3  C        -27.4120   -3.4020  -19.4330 C.2   102  TYR102      0.2264
      4  O        -27.6010   -4.0370  -20.4720 O.2   102  TYR102     -0.2867
      5  CB       -27.7600   -1.2870  -20.6770 C.3   102  TYR102      0.0534
      6  CG       -28.1760    0.1560  -20.6470 C.ar  102  TYR102     -0.0201
      7  CD1      -29.5040    0.5190  -20.7910 C.ar  102  TYR102     -0.0009
      8  CD2      -27.2410    1.1590  -20.4460 C.ar  102  TYR102     -0.0009
      9  CE1      -29.8930    1.8520  -20.7550 C.ar  102  TYR102      0.0417
     10  CE2      -27.6180    2.4840  -20.4070 C.ar  102  TYR102      0.0417
     11  CZ       -28.9400    2.8300  -20.5570 C.ar  102  TYR102      0.1957
     12  OH       -29.3000    4.1650  -20.5120 O.3   102  TYR102     -0.2866
     13  N        -33.5090    0.7710  -15.4350 N.3   135  THR135     -0.1203
     14  CA       -33.6730    0.3370  -16.8130 C.3   135  THR135      0.1994
     15  C        -34.3510   -1.0350  -16.7480 C.2   135  THR135      0.2618
     16  O        -34.4490   -1.6290  -15.6700 O.2   135  THR135     -0.2717
     17  CB       -32.3160    0.1470  -17.5010 C.3   135  THR135      0.1784
     18  OG1      -31.5760   -0.8730  -16.8110 O.3   135  THR135     -0.2211
     19  CG2      -31.4970    1.4310  -17.5230 C.3   135  THR135      0.0376
     20  N        -34.7980   -1.5590  -17.8860 N.am  136  TRP136     -0.1961
     21  CA       -35.3630   -2.9170  -17.9360 C.3   136  TRP136      0.1771
     22  C        -34.3650   -3.9250  -17.3750 C.2   136  TRP136      0.2619
     23  O        -34.7310   -4.8190  -16.6010 O.2   136  TRP136     -0.2715
     24  CB       -35.7100   -3.3140  -19.3750 C.3   136  TRP136      0.0590
     25  CG       -36.3820   -4.6380  -19.4770 C.ar  136  TRP136      0.0006
     26  CD1      -35.8460   -5.7960  -19.9560 C.ar  136  TRP136      0.0946
     27  CD2      -37.7250   -4.9490  -19.0840 C.ar  136  TRP136      0.0152
     28  NE1      -36.7710   -6.8090  -19.8850 N.ar  136  TRP136     -0.2442
     29  CE2      -37.9370   -6.3120  -19.3630 C.ar  136  TRP136      0.0810
     30  CE3      -38.7720   -4.2010  -18.5350 C.ar  136  TRP136      0.0012
     31  CZ2      -39.1610   -6.9510  -19.1080 C.ar  136  TRP136      0.0191
     32  CZ3      -39.9850   -4.8280  -18.2820 C.ar  136  TRP136      0.0001
     33  CH2      -40.1670   -6.1940  -18.5630 C.ar  136  TRP136      0.0015
     34  N        -33.1020   -3.7630  -17.7700 N.am  137  GLN137     -0.1977
     35  CA       -32.0350   -4.6590  -17.3340 C.3   137  GLN137      0.1601
     36  C        -31.8150   -4.5780  -15.8270 C.2   137  GLN137      0.2287
     37  O        -31.5500   -5.5890  -15.1820 O.2   137  GLN137     -0.2864
     38  CB       -30.7290   -4.3550  -18.0680 C.3   137  GLN137      0.0394
     39  CG       -30.7230   -4.8310  -19.5030 C.3   137  GLN137      0.0908
     40  CD       -31.6070   -4.0180  -20.4170 C.2   137  GLN137      0.2608
     41  OE1      -31.7160   -2.8030  -20.2770 O.2   137  GLN137     -0.2717
     42  NE2      -32.2260   -4.6790  -21.3840 N.am  137  GLN137     -0.0878
     43  N        -41.5730   -6.7270  -21.8770 N.3   277  GLU277     -0.1245
     44  CA       -40.4590   -5.8540  -22.2560 C.3   277  GLU277      0.1567
     45  C        -40.8530   -4.8880  -23.3870 C.2   277  GLU277      0.2260
     46  O        -40.5400   -3.7020  -23.3130 O.2   277  GLU277     -0.2867
     47  CB       -39.2140   -6.6420  -22.6660 C.3   277  GLU277      0.0388
     48  CG       -38.0220   -5.7170  -22.9040 C.3   277  GLU277      0.1160
     49  CD       -36.7530   -6.4370  -23.2820 C.2   277  GLU277      0.3649
     50  OE1      -36.7840   -7.6650  -23.4330 O.co2 277  GLU277     -0.2457
     51  OE2      -35.7220   -5.7600  -23.4430 O.co2 277  GLU277     -0.2457
     52  N        -43.2260   -2.2120  -22.0830 N.3   280  PHE280     -0.1227
     53  CA       -42.4440   -1.3260  -21.2280 C.3   280  PHE280      0.1736
     54  C        -41.6510   -0.3440  -22.0850 C.2   280  PHE280      0.2595
     55  O        -41.6720    0.8660  -21.8610 O.2   280  PHE280     -0.2718
     56  CB       -41.4820   -2.1460  -20.3470 C.3   280  PHE280      0.0547
     57  CG       -40.4050   -1.3230  -19.7130 C.ar  280  PHE280     -0.0202
     58  CD1      -40.6090   -0.7200  -18.4770 C.ar  280  PHE280     -0.0042
     59  CD2      -39.1940   -1.1290  -20.3530 C.ar  280  PHE280     -0.0042
     60  CE1      -39.6170    0.0580  -17.8980 C.ar  280  PHE280     -0.0003
     61  CE2      -38.1990   -0.3590  -19.7770 C.ar  280  PHE280     -0.0003
     62  CZ       -38.4110    0.2410  -18.5470 C.ar  280  PHE280     -0.0000
     63  N        -40.9440   -0.8740  -23.0780 N.am  281  LEU281     -0.1980
     64  CA       -40.1620   -0.0210  -23.9720 C.3   281  LEU281      0.1596
     65  C        -41.0340    1.0170  -24.6790 C.2   281  LEU281      0.2287
     66  O        -40.6680    2.1870  -24.7410 O.2   281  LEU281     -0.2864
     67  CB       -39.3890   -0.8620  -24.9930 C.3   281  LEU281      0.0297
     68  CG       -38.2520   -1.6820  -24.4020 C.3   281  LEU281      0.0022
     69  CD1      -37.5770   -2.5410  -25.4560 C.3   281  LEU281      0.0001
     70  CD2      -37.2490   -0.7570  -23.7510 C.3   281  LEU281      0.0001
     71  N        -42.3620    3.5910  -21.7990 N.3   284  HIS284     -0.1226
     72  CA       -41.2830    4.4440  -21.2740 C.3   284  HIS284      0.1752
     73  C        -40.9040    5.5230  -22.2830 C.2   284  HIS284      0.2596
     74  O        -40.7480    6.6950  -21.9260 O.2   284  HIS284     -0.2718
     75  CB       -40.0400    3.6120  -20.9030 C.3   284  HIS284      0.0759
     76  CG       -38.8680    4.4400  -20.4740 C.ar  284  HIS284      0.0818
     77  ND1      -38.7750    5.0140  -19.2250 N.ar  284  HIS284     -0.2268
     78  CD2      -37.7430    4.8010  -21.1370 C.ar  284  HIS284      0.1154
     79  CE1      -37.6450    5.6930  -19.1350 C.ar  284  HIS284      0.1986
     80  NE2      -36.9960    5.5720  -20.2800 N.ar  284  HIS284     -0.2212
     81  N        -40.7800    5.1310  -23.5510 N.am  285  ASN285     -0.1974
     82  CA       -40.3450    6.0560  -24.6040 C.3   285  ASN285      0.1688
     83  C        -41.4570    6.9840  -25.1030 C.2   285  ASN285      0.2292
     84  O        -41.2030    7.8430  -25.9230 O.2   285  ASN285     -0.2864
     85  CB       -39.6800    5.2950  -25.7560 C.3   285  ASN285      0.1181
     86  CG       -38.2930    4.8140  -25.3870 C.2   285  ASN285      0.2629
     87  OD1      -37.3510    5.5940  -25.3660 O.2   285  ASN285     -0.2716
     88  ND2      -38.1700    3.5370  -25.0520 N.am  285  ASN285     -0.0877
     89  N        -33.5240    9.4040  -17.5840 N.3   294  LEU294     -0.1245
     90  CA       -32.9470    8.0980  -17.2340 C.3   294  LEU294      0.1561
     91  C        -31.5480    7.9300  -17.8470 C.2   294  LEU294      0.2260
     92  O        -30.6040    7.5570  -17.1540 O.2   294  LEU294     -0.2867
     93  CB       -33.8620    6.9380  -17.6460 C.3   294  LEU294      0.0270
     94  CG       -33.3030    5.5220  -17.4700 C.3   294  LEU294      0.0019
     95  CD1      -32.9500    5.2060  -16.0220 C.3   294  LEU294      0.0001
     96  CD2      -34.3070    4.5120  -18.0090 C.3   294  LEU294      0.0001
@<TRIPOS>BOND
     1    84    83    2
     2    85    86    1
     3    85    82    1
     4    69    68    1
     5    86    87    2
     6    86    88   am
     7    83    82    1
     8    67    68    1
     9    67    64    1
    10    66    65    2
    11    65    64    1
    12    82    81    1
    13    68    70    1
    14    64    63    1
    15    81    73   am
    16    51    49   ar
    17    50    49   ar
    18    45    46    2
    19    45    44    1
    20    49    48    1
    21    63    54   am
    22    48    47    1
    23    47    44    1
    24    73    74    2
    25    73    72    1
    26    44    43    1
    27    54    55    2
    28    54    53    1
    29    52    53    1
    30    71    72    1
    31    42    40   am
    32    72    75    1
    33    53    56    1
    34    78    76   ar
    35    78    80   ar
    36    75    76    1
    37     7     9   ar
    38     7     6   ar
    39     9    11   ar
    40     5     6    1
    41     5     2    1
    42     6     8   ar
    43    11    12    1
    44    11    10   ar
    45    76    77   ar
    46     4     3    2
    47     8    10   ar
    48    40    41    2
    49    40    39    1
    50    59    61   ar
    51    59    57   ar
    52    56    57    1
    53    80    79   ar
    54    26    28   ar
    55    26    25   ar
    56    28    29   ar
    57    61    62   ar
    58    57    58   ar
    59    39    38    1
    60    25    24    1
    61    25    27   ar
    62     3     2    1
    63    24    21    1
    64    29    31   ar
    65    29    27   ar
    66     2     1    1
    67    77    79   ar
    68    31    33   ar
    69    27    30   ar
    70    33    32   ar
    71    62    60   ar
    72    30    32   ar
    73    58    60   ar
    74    38    35    1
    75    96    94    1
    76    21    20    1
    77    21    22    1
    78    20    15   am
    79    91    90    1
    80    91    92    2
    81    34    22   am
    82    34    35    1
    83    93    94    1
    84    93    90    1
    85    89    90    1
    86    19    17    1
    87    17    14    1
    88    17    18    1
    89    94    95    1
    90    22    23    2
    91    35    36    1
    92    14    15    1
    93    14    13    1
    94    15    16    2
    95    36    37    2
