@<TRIPOS>MOLECULE
tmp/4rz7A00.pdb
 167 156 0 0 0
SMALL
GASTEIGER

@<TRIPOS>ATOM
      1  N        -23.6680   76.4720   36.4250 N.3   532  ILE532     -0.1231
      2  CA       -24.8230   75.6150   36.6880 C.3   532  ILE532      0.1692
      3  C        -24.5110   74.1260   36.8790 C.2   532  ILE532      0.2592
      4  O        -25.4040   73.2920   36.7310 O.2   532  ILE532     -0.2718
      5  CB       -25.8700   75.7300   35.5470 C.3   532  ILE532      0.0266
      6  CG1      -25.2260   75.4520   34.1850 C.3   532  ILE532      0.0019
      7  CG2      -26.5410   77.1010   35.5570 C.3   532  ILE532      0.0020
      8  CD1      -26.2100   75.4510   33.0430 C.3   532  ILE532      0.0001
      9  N        -23.2670   73.7890   37.2150 N.am  533  GLY533     -0.1957
     10  CA       -22.9010   72.4010   37.4550 C.3   533  GLY533      0.1869
     11  C        -21.4280   72.1700   37.7650 C.2   533  GLY533      0.2309
     12  O        -20.5590   72.5890   36.9950 O.2   533  GLY533     -0.2863
     13  N        -20.0350   72.9350   34.1660 N.3   538  VAL538     -0.1245
     14  CA       -20.9690   73.4000   33.1410 C.3   538  VAL538      0.1561
     15  C        -21.4140   74.8440   33.3850 C.2   538  VAL538      0.2260
     16  O        -21.9540   75.1680   34.4460 O.2   538  VAL538     -0.2867
     17  CB       -22.2290   72.4970   33.0690 C.3   538  VAL538      0.0252
     18  CG1      -23.2510   73.0820   32.1130 C.3   538  VAL538      0.0019
     19  CG2      -21.8590   71.0830   32.6520 C.3   538  VAL538      0.0019
     20  N        -25.4360   76.0440   26.6870 N.3   551  ALA551     -0.1245
     21  CA       -24.7510   75.4870   27.8460 C.3   551  ALA551      0.1562
     22  C        -23.3940   74.9650   27.4050 C.2   551  ALA551      0.2260
     23  O        -23.2580   74.4130   26.3120 O.2   551  ALA551     -0.2867
     24  CB       -25.5700   74.3770   28.4940 C.3   551  ALA551      0.0290
     25  N        -20.2690   72.5740   28.7110 N.3   553  LYS553     -0.1245
     26  CA       -19.6510   71.6550   29.6460 C.3   553  LYS553      0.1561
     27  C        -18.1400   71.7040   29.4770 C.2   553  LYS553      0.2260
     28  O        -17.6180   71.5520   28.3690 O.2   553  LYS553     -0.2867
     29  CB       -20.1710   70.2340   29.4330 C.3   553  LYS553      0.0271
     30  CG       -19.6430   69.2280   30.4420 C.3   553  LYS553      0.0035
     31  CD       -20.1410   67.8200   30.1340 C.3   553  LYS553      0.0206
     32  CE       -19.8770   66.8670   31.2900 C.3   553  LYS553      0.1093
     33  NZ       -20.5320   65.5600   31.0380 N.3   553  LYS553     -0.1314
     34  N        -17.6820   58.9640   23.1250 N.3   568  GLU568     -0.1245
     35  CA       -18.8290   59.7300   23.6120 C.3   568  GLU568      0.1567
     36  C        -19.1470   60.9050   22.6870 C.2   568  GLU568      0.2260
     37  O        -20.3090   61.1350   22.3480 O.2   568  GLU568     -0.2867
     38  CB       -18.5910   60.2530   25.0330 C.3   568  GLU568      0.0388
     39  CG       -19.7310   61.1280   25.5350 C.3   568  GLU568      0.1160
     40  CD       -19.5730   61.5430   26.9810 C.2   568  GLU568      0.3649
     41  OE1      -18.6100   61.0730   27.6310 O.co2 568  GLU568     -0.2457
     42  OE2      -20.4100   62.3390   27.4720 O.co2 568  GLU568     -0.2457
     43  N        -22.6540   61.5850   20.9170 N.3   572  THR572     -0.1218
     44  CA       -23.3540   62.8230   21.2550 C.3   572  THR572      0.1862
     45  C        -23.6140   63.7400   20.0490 C.2   572  THR572      0.2287
     46  O        -24.6160   64.4540   20.0110 O.2   572  THR572     -0.2866
     47  CB       -22.5910   63.6330   22.3120 C.3   572  THR572      0.1770
     48  OG1      -22.0910   62.7510   23.3200 O.3   572  THR572     -0.2211
     49  CG2      -23.5190   64.6400   22.9670 C.3   572  THR572      0.0375
     50  N        -30.6170   65.3890   24.1810 N.3   581  ILE581     -0.1245
     51  CA       -29.8730   66.6400   24.1640 C.3   581  ILE581      0.1561
     52  C        -29.1850   66.8620   22.8020 C.2   581  ILE581      0.2260
     53  O        -28.5940   65.9480   22.2330 O.2   581  ILE581     -0.2867
     54  CB       -28.8300   66.6670   25.3180 C.3   581  ILE581      0.0252
     55  CG1      -28.2090   68.0490   25.4410 C.3   581  ILE581      0.0019
     56  CG2      -27.7850   65.5910   25.1600 C.3   581  ILE581      0.0019
     57  CD1      -28.9910   68.9430   26.3360 C.3   581  ILE581      0.0001
     58  N        -26.3200   68.3940   20.6570 N.3   583  LEU583     -0.1245
     59  CA       -24.9910   68.9920   20.6340 C.3   583  LEU583      0.1561
     60  C        -24.8560   70.0290   19.4970 C.2   583  LEU583      0.2260
     61  O        -25.3360   69.8180   18.3760 O.2   583  LEU583     -0.2867
     62  CB       -23.9390   67.8980   20.4750 C.3   583  LEU583      0.0270
     63  CG       -22.4820   68.3590   20.4240 C.3   583  LEU583      0.0019
     64  CD1      -22.0820   69.0320   21.7260 C.3   583  LEU583      0.0001
     65  CD2      -21.5910   67.1730   20.1380 C.3   583  LEU583      0.0001
     66  N        -18.0010   70.9610   25.4200 N.3   595  PHE595     -0.1241
     67  CA       -19.2340   70.5560   24.7650 C.3   595  PHE595      0.1605
     68  C        -20.2170   71.7140   24.7500 C.2   595  PHE595      0.2264
     69  O        -20.6320   72.1910   25.8010 O.2   595  PHE595     -0.2867
     70  CB       -19.8590   69.3560   25.4770 C.3   595  PHE595      0.0534
     71  CG       -19.0620   68.0910   25.3570 C.ar  595  PHE595     -0.0203
     72  CD1      -19.0430   67.3780   24.1650 C.ar  595  PHE595     -0.0042
     73  CD2      -18.3560   67.5920   26.4380 C.ar  595  PHE595     -0.0042
     74  CE1      -18.3240   66.1940   24.0450 C.ar  595  PHE595     -0.0003
     75  CE2      -17.6380   66.4000   26.3300 C.ar  595  PHE595     -0.0003
     76  CZ       -17.6210   65.7050   25.1310 C.ar  595  PHE595     -0.0000
     77  N        -23.9100   72.7160   23.9250 N.3   597  THR597     -0.1203
     78  CA       -25.2060   72.1050   23.6670 C.3   597  THR597      0.1994
     79  C        -26.3170   73.1080   23.8840 C.2   597  THR597      0.2618
     80  O        -26.0820   74.1940   24.4030 O.2   597  THR597     -0.2717
     81  CB       -25.4490   70.8780   24.5850 C.3   597  THR597      0.1784
     82  OG1      -25.6690   71.3330   25.9190 O.3   597  THR597     -0.2211
     83  CG2      -24.2540   69.9630   24.5780 C.3   597  THR597      0.0376
     84  N        -27.5270   72.7390   23.4830 N.am  598  GLU598     -0.1965
     85  CA       -28.7000   73.5200   23.8230 C.3   598  GLU598      0.1733
     86  C        -28.7850   73.6600   25.3440 C.2   598  GLU598      0.2616
     87  O        -28.2370   72.8350   26.0870 O.2   598  GLU598     -0.2715
     88  CB       -29.9620   72.8730   23.2730 C.3   598  GLU598      0.0429
     89  CG       -30.2150   71.4880   23.8490 C.3   598  GLU598      0.1163
     90  CD       -31.3240   70.7420   23.1520 C.2   598  GLU598      0.3649
     91  OE1      -32.3530   71.3600   22.8180 O.co2 598  GLU598     -0.2457
     92  OE2      -31.1600   69.5270   22.9230 O.co2 598  GLU598     -0.2457
     93  N        -29.4360   74.7240   25.8040 N.am  599  LEU599     -0.1963
     94  CA       -29.6230   74.9360   27.2290 C.3   599  LEU599      0.1728
     95  C        -30.9770   74.3850   27.6440 C.2   599  LEU599      0.2616
     96  O        -31.9800   74.6700   27.0010 O.2   599  LEU599     -0.2715
     97  CB       -29.5300   76.4250   27.5700 C.3   599  LEU599      0.0311
     98  CG       -29.8660   76.7490   29.0220 C.3   599  LEU599      0.0022
     99  CD1      -28.7070   76.3000   29.8530 C.3   599  LEU599      0.0001
    100  CD2      -30.1440   78.2240   29.2160 C.3   599  LEU599      0.0001
    101  N        -31.0090   73.5920   28.7110 N.am  600  VAL600     -0.1977
    102  CA       -32.2520   72.9930   29.1890 C.3   600  VAL600      0.1596
    103  C        -32.5510   73.5180   30.6020 C.2   600  VAL600      0.2287
    104  O        -31.7270   73.3760   31.5010 O.2   600  VAL600     -0.2864
    105  CB       -32.1700   71.4270   29.1750 C.3   600  VAL600      0.0276
    106  CG1      -33.5600   70.8170   29.1780 C.3   600  VAL600      0.0022
    107  CG2      -31.4020   70.9500   27.9750 C.3   600  VAL600      0.0022
    108  N        -34.8570   71.6530   34.8840 N.3   603  GLY603     -0.1210
    109  CA       -34.3470   70.8170   35.9620 C.3   603  GLY603      0.1956
    110  C        -34.3170   69.3130   35.6960 C.2   603  GLY603      0.2611
    111  O        -34.6080   68.8630   34.5890 O.2   603  GLY603     -0.2717
    112  N        -33.9680   68.5260   36.7120 N.am  604  GLU604     -0.1979
    113  CA       -33.9130   67.0780   36.5580 C.3   604  GLU604      0.1602
    114  C        -35.2610   66.4180   36.7880 C.2   604  GLU604      0.2287
    115  O        -36.0640   66.8980   37.5750 O.2   604  GLU604     -0.2864
    116  CB       -32.8770   66.4750   37.5080 C.3   604  GLU604      0.0415
    117  CG       -31.4530   66.9400   37.1950 C.3   604  GLU604      0.1163
    118  CD       -30.3770   66.1980   37.9740 C.2   604  GLU604      0.3649
    119  OE1      -30.6770   65.6600   39.0680 O.co2 604  GLU604     -0.2457
    120  OE2      -29.2250   66.1610   37.4840 O.co2 604  GLU604     -0.2457
    121  N        -33.2300   65.5880   31.8260 N.3   650  LEU650     -0.1245
    122  CA       -33.6210   66.9640   32.1200 C.3   650  LEU650      0.1561
    123  C        -34.9870   67.2680   31.5390 C.2   650  LEU650      0.2260
    124  O        -35.4730   66.5350   30.6900 O.2   650  LEU650     -0.2867
    125  CB       -32.5890   67.9410   31.5890 C.3   650  LEU650      0.0270
    126  CG       -31.2220   68.0040   32.2820 C.3   650  LEU650      0.0019
    127  CD1      -30.4090   69.1830   31.7290 C.3   650  LEU650      0.0001
    128  CD2      -31.3550   68.1220   33.8060 C.3   650  LEU650      0.0001
    129  N        -29.5290   63.1290   28.7930 N.3   660  ILE660     -0.1231
    130  CA       -28.3100   63.9560   28.7120 C.3   660  ILE660      0.1692
    131  C        -26.9050   63.3680   28.9470 C.2   660  ILE660      0.2592
    132  O        -25.9360   63.9310   28.4550 O.2   660  ILE660     -0.2718
    133  CB       -28.3960   65.1560   29.6900 C.3   660  ILE660      0.0266
    134  CG1      -28.4490   64.6380   31.1290 C.3   660  ILE660      0.0019
    135  CG2      -29.5650   66.0590   29.3190 C.3   660  ILE660      0.0020
    136  CD1      -28.2630   65.6850   32.2350 C.3   660  ILE660      0.0001
    137  N        -26.7440   62.3070   29.7140 N.am  661  ASP661     -0.1960
    138  CA       -25.3790   61.8690   30.0330 C.3   661  ASP661      0.1840
    139  C        -25.0140   60.6150   29.2530 C.2   661  ASP661      0.2622
    140  O        -25.5280   59.5250   29.5420 O.2   661  ASP661     -0.2715
    141  CB       -25.2120   61.6120   31.5420 C.3   661  ASP661      0.1450
    142  CG       -25.1170   62.9240   32.3330 C.2   661  ASP661      0.3671
    143  OD1      -24.0190   63.5070   32.3140 O.co2 661  ASP661     -0.2456
    144  OD2      -26.1190   63.3440   32.9470 O.co2 661  ASP661     -0.2456
    145  N        -24.1180   60.7650   28.2810 N.am  662  PHE662     -0.1974
    146  CA       -23.8010   59.6780   27.3680 C.3   662  PHE662      0.1639
    147  C        -22.4390   59.0500   27.6560 C.2   662  PHE662      0.2290
    148  O        -21.9050   58.2800   26.8580 O.2   662  PHE662     -0.2864
    149  CB       -23.9060   60.1790   25.9190 C.3   662  PHE662      0.0560
    150  CG       -25.3280   60.2540   25.4360 C.ar  662  PHE662     -0.0200
    151  CD1      -26.1070   61.3660   25.7090 C.ar  662  PHE662     -0.0042
    152  CD2      -25.9110   59.1710   24.7780 C.ar  662  PHE662     -0.0042
    153  CE1      -27.4270   61.4150   25.3090 C.ar  662  PHE662     -0.0003
    154  CE2      -27.2300   59.2180   24.3740 C.ar  662  PHE662     -0.0003
    155  CZ       -27.9900   60.3410   24.6400 C.ar  662  PHE662     -0.0000
    156  N        -32.2740   74.8850   38.6590 N.3   801  TYR801     -0.1241
    157  CA       -31.0790   74.0470   38.5910 C.3   801  TYR801      0.1605
    158  C        -30.8010   73.3870   39.9520 C.2   801  TYR801      0.2264
    159  O        -29.7730   72.7330   40.1520 O.2   801  TYR801     -0.2867
    160  CB       -29.8730   74.8700   38.1270 C.3   801  TYR801      0.0534
    161  CG       -30.0820   75.5870   36.8060 C.ar  801  TYR801     -0.0201
    162  CD1      -29.8160   74.9510   35.6010 C.ar  801  TYR801     -0.0009
    163  CD2      -30.5360   76.9050   36.7660 C.ar  801  TYR801     -0.0009
    164  CE1      -30.0020   75.5950   34.3920 C.ar  801  TYR801      0.0417
    165  CE2      -30.7280   77.5580   35.5630 C.ar  801  TYR801      0.0417
    166  CZ       -30.4550   76.8980   34.3770 C.ar  801  TYR801      0.1957
    167  OH       -30.6350   77.5380   33.1710 O.3   801  TYR801     -0.2866
@<TRIPOS>BOND
     1    61    60    2
     2    60    59    1
     3    46    45    2
     4    45    44    1
     5    65    63    1
     6    63    62    1
     7    63    64    1
     8    62    59    1
     9    59    58    1
    10    43    44    1
    11    44    47    1
    12    53    52    2
    13    47    49    1
    14    47    48    1
    15    37    36    2
    16    36    35    1
    17    52    51    1
    18    91    90   ar
    19    92    90   ar
    20    34    35    1
    21    90    89    1
    22    88    85    1
    23    88    89    1
    24    84    85    1
    25    84    79   am
    26    35    38    1
    27    78    79    1
    28    78    77    1
    29    78    81    1
    30    85    86    1
    31    79    80    2
    32    74    72   ar
    33    74    76   ar
    34    51    50    1
    35    51    54    1
    36    72    71   ar
    37   154   155   ar
    38   154   152   ar
    39    83    81    1
    40    81    82    1
    41   155   153   ar
    42    68    67    1
    43    68    69    2
    44    67    66    1
    45    67    70    1
    46   152   150   ar
    47    38    39    1
    48    76    75   ar
    49    56    54    1
    50   153   151   ar
    51    54    55    1
    52    86    93   am
    53    86    87    2
    54    71    70    1
    55    71    73   ar
    56   150   151   ar
    57   150   149    1
    58    55    57    1
    59    39    40    1
    60    93    94    1
    61   149   146    1
    62    23    22    2
    63    75    73   ar
    64    20    21    1
    65   148   147    2
    66    40    42   ar
    67    40    41   ar
    68    96    95    2
    69    94    97    1
    70    94    95    1
    71   146   147    1
    72   146   145    1
    73    22    21    1
    74    97    98    1
    75    95   101   am
    76    21    24    1
    77   107   105    1
    78   145   139   am
    79    28    27    2
    80   132   131    2
    81   101   102    1
    82    25    26    1
    83   130   129    1
    84   130   131    1
    85   130   133    1
    86   131   137   am
    87    98   100    1
    88    98    99    1
    89   105   106    1
    90   105   102    1
    91   102   103    1
    92   139   140    2
    93   139   138    1
    94   135   133    1
    95    29    26    1
    96    29    30    1
    97    27    26    1
    98   133   134    1
    99   137   138    1
   100   138   141    1
   101    31    30    1
   102    31    32    1
   103   103   104    2
   104   124   123    2
   105    33    32    1
   106   134   136    1
   107   123   122    1
   108   141   142    1
   109   125   122    1
   110   125   126    1
   111   127   126    1
   112   121   122    1
   113    18    17    1
   114   126   128    1
   115   143   142   ar
   116   142   144   ar
   117    19    17    1
   118     8     6    1
   119    17    14    1
   120    14    15    1
   121    14    13    1
   122   167   166    1
   123    15    16    2
   124     6     5    1
   125   166   164   ar
   126   166   165   ar
   127   164   162   ar
   128   111   110    2
   129   108   109    1
   130     5     7    1
   131     5     2    1
   132   165   163   ar
   133   162   161   ar
   134   110   109    1
   135   110   112   am
   136     1     2    1
   137   113   112    1
   138   113   114    1
   139   113   116    1
   140     2     3    1
   141     4     3    2
   142   163   161   ar
   143   114   115    2
   144   161   160    1
   145     3     9   am
   146    12    11    2
   147   117   116    1
   148   117   118    1
   149     9    10    1
   150    10    11    1
   151   120   118   ar
   152   118   119   ar
   153   160   157    1
   154   157   156    1
   155   157   158    1
   156   158   159    2
