@<TRIPOS>MOLECULE
tmp/4rz8A11.pdb
 178 174 0 0 0
SMALL
GASTEIGER

@<TRIPOS>ATOM
      1  N         18.2660    1.5120   29.7130 N.3    69  TRP69      -0.1241
      2  CA        18.3060    2.7920   29.0140 C.3    69  TRP69       0.1605
      3  C         19.0800    2.7050   27.7010 C.2    69  TRP69       0.2264
      4  O         18.7080    3.3360   26.7120 O.2    69  TRP69      -0.2867
      5  CB        18.9130    3.8690   29.9160 C.3    69  TRP69       0.0550
      6  CG        17.9170    4.4910   30.8480 C.ar   69  TRP69       0.0003
      7  CD1       17.1740    3.8540   31.8000 C.ar   69  TRP69       0.0946
      8  CD2       17.5580    5.8760   30.9200 C.ar   69  TRP69       0.0152
      9  NE1       16.3710    4.7560   32.4560 N.ar   69  TRP69      -0.2442
     10  CE2       16.5890    6.0040   31.9360 C.ar   69  TRP69       0.0810
     11  CE3       17.9600    7.0200   30.2240 C.ar   69  TRP69       0.0012
     12  CZ2       16.0170    7.2300   32.2710 C.ar   69  TRP69       0.0191
     13  CZ3       17.3910    8.2350   30.5580 C.ar   69  TRP69       0.0001
     14  CH2       16.4310    8.3310   31.5730 C.ar   69  TRP69       0.0015
     15  N         14.7530    7.8290   37.0570 N.3   139  VAL139     -0.1231
     16  CA        15.9590    8.6380   36.9270 C.3   139  VAL139      0.1692
     17  C         15.6160   10.1220   36.9770 C.2   139  VAL139      0.2593
     18  O         14.8490   10.6180   36.1520 O.2   139  VAL139     -0.2718
     19  CB        16.7070    8.3300   35.6180 C.3   139  VAL139      0.0266
     20  CG1       17.9320    9.2230   35.4840 C.3   139  VAL139      0.0020
     21  CG2       17.1010    6.8610   35.5680 C.3   139  VAL139      0.0020
     22  N         16.1840   10.8260   37.9510 N.am  140  SER140     -0.1938
     23  CA        15.9200   12.2500   38.1150 C.3   140  SER140      0.2055
     24  C         16.9870   12.9210   38.9710 C.2   140  SER140      0.2643
     25  O         17.8350   12.2510   39.5610 O.2   140  SER140     -0.2714
     26  CB        14.5420   12.4690   38.7410 C.3   140  SER140      0.2130
     27  OG        14.4950   11.9420   40.0560 O.3   140  SER140     -0.2179
     28  N         16.9390   14.2480   39.0310 N.am  141  THR141     -0.1950
     29  CA        17.8590   15.0140   39.8620 C.3   141  THR141      0.1897
     30  C         17.0920   15.9050   40.8330 C.2   141  THR141      0.2313
     31  O         15.8990   16.1520   40.6520 O.2   141  THR141     -0.2863
     32  CB        18.8030   15.8870   39.0120 C.3   141  THR141      0.1794
     33  OG1       18.0360   16.8310   38.2550 O.3   141  THR141     -0.2208
     34  CG2       19.6190   15.0220   38.0630 C.3   141  THR141      0.0378
     35  N         26.9320   24.5230   37.5030 N.3   228  GLY228     -0.1210
     36  CA        26.9560   23.1810   36.9520 C.3   228  GLY228      0.1956
     37  C         26.0700   23.0510   35.7280 C.2   228  GLY228      0.2611
     38  O         25.4940   24.0340   35.2630 O.2   228  GLY228     -0.2717
     39  N         25.9620   21.8340   35.2040 N.am  229  ASP229     -0.1973
     40  CA        25.1230   21.5780   34.0380 C.3   229  ASP229      0.1709
     41  C         23.6470   21.7420   34.3800 C.2   229  ASP229      0.2293
     42  O         23.2710   21.7590   35.5520 O.2   229  ASP229     -0.2864
     43  CB        25.3790   20.1760   33.4840 C.3   229  ASP229      0.1436
     44  CG        26.8020   19.9910   32.9980 C.2   229  ASP229      0.3671
     45  OD1       27.5040   21.0060   32.8070 O.co2 229  ASP229     -0.2456
     46  OD2       27.2180   18.8300   32.8010 O.co2 229  ASP229     -0.2456
     47  N         21.3720   19.6560   34.0440 N.3   231  GLU231     -0.1231
     48  CA        20.8380   18.4190   34.6100 C.3   231  GLU231      0.1699
     49  C         20.8030   18.4530   36.1350 C.2   231  GLU231      0.2592
     50  O         19.9840   17.7790   36.7600 O.2   231  GLU231     -0.2718
     51  CB        21.6560   17.2110   34.1450 C.3   231  GLU231      0.0402
     52  CG        21.3770   16.7720   32.7210 C.3   231  GLU231      0.1161
     53  CD        21.9910   17.7020   31.6920 C.2   231  GLU231      0.3649
     54  OE1       22.8800   18.4930   32.0630 O.co2 231  GLU231     -0.2457
     55  OE2       21.5840   17.6370   30.5160 O.co2 231  GLU231     -0.2457
     56  N         21.6950   19.2370   36.7320 N.am  232  ILE232     -0.1980
     57  CA        21.7870   19.3020   38.1850 C.3   232  ILE232      0.1595
     58  C         21.3410   20.6590   38.7220 C.2   232  ILE232      0.2287
     59  O         20.9400   20.7720   39.8800 O.2   232  ILE232     -0.2864
     60  CB        23.2190   19.0090   38.6700 C.3   232  ILE232      0.0276
     61  CG1       24.2050   20.0090   38.0650 C.3   232  ILE232      0.0022
     62  CG2       23.6170   17.5840   38.3140 C.3   232  ILE232      0.0022
     63  CD1       25.6390   19.7770   38.4870 C.3   232  ILE232      0.0001
     64  N         15.5910   17.6130   36.6390 N.3   236  SER236     -0.1202
     65  CA        15.4990   16.9000   35.3700 C.3   236  SER236      0.2020
     66  C         14.9380   15.4950   35.5560 C.2   236  SER236      0.2619
     67  O         15.2630   14.8060   36.5220 O.2   236  SER236     -0.2717
     68  CB        16.8700   16.8280   34.6950 C.3   236  SER236      0.2103
     69  OG        17.7810   16.0700   35.4710 O.3   236  SER236     -0.2182
     70  N         14.0980   15.0780   34.6160 N.am  237  PHE237     -0.1961
     71  CA        13.4700   13.7650   34.6650 C.3   237  PHE237      0.1771
     72  C         12.8960   13.4090   33.3000 C.2   237  PHE237      0.2619
     73  O         12.7670   14.2700   32.4300 O.2   237  PHE237     -0.2715
     74  CB        12.3710   13.7320   35.7270 C.3   237  PHE237      0.0574
     75  CG        11.2710   14.7240   35.4870 C.ar  237  PHE237     -0.0200
     76  CD1       11.3760   16.0220   35.9570 C.ar  237  PHE237     -0.0042
     77  CD2       10.1330   14.3610   34.7870 C.ar  237  PHE237     -0.0042
     78  CE1       10.3670   16.9390   35.7350 C.ar  237  PHE237     -0.0003
     79  CE2        9.1200   15.2740   34.5620 C.ar  237  PHE237     -0.0003
     80  CZ         9.2370   16.5630   35.0360 C.ar  237  PHE237     -0.0000
     81  N         12.5500   12.1400   33.1160 N.am  238  ASN238     -0.1972
     82  CA        11.9770   11.6910   31.8560 C.3   238  ASN238      0.1688
     83  C         10.4730   11.4710   31.9730 C.2   238  ASN238      0.2292
     84  O         10.0090   10.7360   32.8430 O.2   238  ASN238     -0.2864
     85  CB        12.6600   10.4070   31.3840 C.3   238  ASN238      0.1181
     86  CG        12.3070   10.0540   29.9540 C.2   238  ASN238      0.2629
     87  OD1       11.2470    9.4910   29.6850 O.2   238  ASN238     -0.2716
     88  ND2       13.1980   10.3850   29.0260 N.am  238  ASN238     -0.0877
     89  N         12.6200   14.3650   27.9090 N.3   243  PHE243     -0.1241
     90  CA        13.4830   14.8370   28.9860 C.3   243  PHE243      0.1605
     91  C         13.0610   16.2230   29.4620 C.2   243  PHE243      0.2264
     92  O         13.2920   17.2240   28.7830 O.2   243  PHE243     -0.2867
     93  CB        14.9480   14.8530   28.5360 C.3   243  PHE243      0.0534
     94  CG        15.5110   13.4860   28.2640 C.ar  243  PHE243     -0.0203
     95  CD1       16.0930   12.7480   29.2800 C.ar  243  PHE243     -0.0042
     96  CD2       15.4530   12.9360   26.9940 C.ar  243  PHE243     -0.0042
     97  CE1       16.6090   11.4870   29.0350 C.ar  243  PHE243     -0.0003
     98  CE2       15.9670   11.6770   26.7420 C.ar  243  PHE243     -0.0003
     99  CZ        16.5460   10.9520   27.7640 C.ar  243  PHE243     -0.0000
    100  N         13.1340   19.5400   31.8380 N.3   245  TYR245     -0.1241
    101  CA        14.0410   20.3720   32.6190 C.3   245  TYR245      0.1605
    102  C         13.2660   21.5000   33.2890 C.2   245  TYR245      0.2264
    103  O         12.7970   22.4220   32.6220 O.2   245  TYR245     -0.2867
    104  CB        15.1530   20.9410   31.7370 C.3   245  TYR245      0.0534
    105  CG        16.2170   19.9340   31.3650 C.ar  245  TYR245     -0.0201
    106  CD1       15.9480   18.9080   30.4700 C.ar  245  TYR245     -0.0009
    107  CD2       17.4940   20.0140   31.9050 C.ar  245  TYR245     -0.0009
    108  CE1       16.9190   17.9860   30.1280 C.ar  245  TYR245      0.0417
    109  CE2       18.4720   19.0980   31.5680 C.ar  245  TYR245      0.0417
    110  CZ        18.1790   18.0870   30.6790 C.ar  245  TYR245      0.1957
    111  OH        19.1500   17.1720   30.3420 O.3   245  TYR245     -0.2866
    112  N         20.9570   16.6310   25.3950 N.3   271  ILE271     -0.1231
    113  CA        21.0880   16.2500   26.7950 C.3   271  ILE271      0.1692
    114  C         22.4700   15.6970   27.1240 C.2   271  ILE271      0.2592
    115  O         23.1420   15.1300   26.2640 O.2   271  ILE271     -0.2718
    116  CB        20.0350   15.1870   27.1780 C.3   271  ILE271      0.0266
    117  CG1       18.6350   15.6400   26.7570 C.3   271  ILE271      0.0019
    118  CG2       20.0910   14.8810   28.6670 C.3   271  ILE271      0.0020
    119  CD1       18.2020   16.9440   27.3810 C.3   271  ILE271      0.0001
    120  N         22.8910   15.8730   28.3730 N.am  272  ASN272     -0.1960
    121  CA        24.0530   15.1670   28.8930 C.3   272  ASN272      0.1819
    122  C         23.6120   13.8640   29.5510 C.2   272  ASN272      0.2621
    123  O         22.8710   13.8740   30.5350 O.2   272  ASN272     -0.2715
    124  CB        24.8250   16.0330   29.8900 C.3   272  ASN272      0.1195
    125  CG        25.7750   17.0000   29.2100 C.2   272  ASN272      0.2630
    126  OD1       25.5550   17.4100   28.0700 O.2   272  ASN272     -0.2716
    127  ND2       26.8450   17.3640   29.9070 N.am  272  ASN272     -0.0877
    128  N         24.0590   12.7430   28.9940 N.am  273  MET273     -0.1963
    129  CA        23.6510   11.4310   29.4840 C.3   273  MET273      0.1736
    130  C         24.1710   11.1600   30.8910 C.2   273  MET273      0.2616
    131  O         25.3550   11.3440   31.1720 O.2   273  MET273     -0.2715
    132  CB        24.1290   10.3360   28.5290 C.3   273  MET273      0.0427
    133  CG        23.3860   10.3030   27.2040 C.3   273  MET273      0.0599
    134  SD        23.9420    8.9610   26.1370 S.3   273  MET273     -0.1393
    135  CE        22.7340    9.0510   24.8180 C.3   273  MET273      0.0692
    136  N         23.2770   10.7190   31.7710 N.am  274  TRP274     -0.1960
    137  CA        23.6440   10.4220   33.1500 C.3   274  TRP274      0.1771
    138  C         24.5390    9.1890   33.2300 C.2   274  TRP274      0.2620
    139  O         25.1660    8.9340   34.2580 O.2   274  TRP274     -0.2715
    140  CB        22.3940   10.2250   34.0110 C.3   274  TRP274      0.0590
    141  CG        21.5100    9.1060   33.5540 C.ar  274  TRP274      0.0006
    142  CD1       20.4570    9.1930   32.6910 C.ar  274  TRP274      0.0946
    143  CD2       21.5990    7.7280   33.9390 C.ar  274  TRP274      0.0152
    144  NE1       19.8860    7.9560   32.5130 N.ar  274  TRP274     -0.2442
    145  CE2       20.5690    7.0400   33.2690 C.ar  274  TRP274      0.0810
    146  CE3       22.4500    7.0110   34.7850 C.ar  274  TRP274      0.0012
    147  CZ2       20.3670    5.6690   33.4180 C.ar  274  TRP274      0.0191
    148  CZ3       22.2480    5.6500   34.9310 C.ar  274  TRP274      0.0001
    149  CH2       21.2150    4.9940   34.2510 C.ar  274  TRP274      0.0015
    150  N         24.5950    8.4260   32.1410 N.am  275  GLN275     -0.1963
    151  CA        25.4800    7.2700   32.0710 C.3   275  GLN275      0.1733
    152  C         26.9380    7.7150   32.0160 C.2   275  GLN275      0.2616
    153  O         27.8470    6.9340   32.2980 O.2   275  GLN275     -0.2715
    154  CB        25.1540    6.4010   30.8530 C.3   275  GLN275      0.0408
    155  CG        23.7690    5.7720   30.8690 C.3   275  GLN275      0.0908
    156  CD        22.7020    6.6870   30.3050 C.2   275  GLN275      0.2608
    157  OE1       22.7380    7.9010   30.5030 O.2   275  GLN275     -0.2717
    158  NE2       21.7470    6.1070   29.5860 N.am  275  GLN275     -0.0878
    159  N         27.1520    8.9750   31.6500 N.am  276  GLY276     -0.1955
    160  CA        28.4900    9.5260   31.5450 C.3   276  GLY276      0.1869
    161  C         29.1150    9.2770   30.1860 C.2   276  GLY276      0.2309
    162  O         30.3380    9.2440   30.0520 O.2   276  GLY276     -0.2863
    163  N         28.6270   11.2240   27.5570 N.3   278  GLY278     -0.1225
    164  CA        28.6580   12.4780   26.8270 C.3   278  GLY278      0.1811
    165  C         27.2780   13.0500   26.5690 C.2   278  GLY278      0.2280
    166  O         26.3210   12.7330   27.2750 O.2   278  GLY278     -0.2866
    167  N         22.8830   14.3040   40.6190 N.3   320  GLY320     -0.1225
    168  CA        23.6860   13.9580   39.4610 C.3   320  GLY320      0.1811
    169  C         24.0900   12.4980   39.4900 C.2   320  GLY320      0.2280
    170  O         23.9910   11.7940   38.4850 O.2   320  GLY320     -0.2866
    171  N         23.1590    9.2350   39.8820 N.3   322  ILE322     -0.1245
    172  CA        21.9100    8.4810   39.8540 C.3   322  ILE322      0.1561
    173  C         21.9330    7.3090   40.8310 C.2   322  ILE322      0.2260
    174  O         20.8850    6.8150   41.2480 O.2   322  ILE322     -0.2867
    175  CB        21.6090    7.9540   38.4370 C.3   322  ILE322      0.0252
    176  CG1       21.6580    9.1000   37.4240 C.3   322  ILE322      0.0019
    177  CG2       20.2560    7.2600   38.3960 C.3   322  ILE322      0.0019
    178  CD1       20.7230   10.2440   37.7530 C.3   322  ILE322      0.0001
@<TRIPOS>BOND
     1   135   134    1
     2   112   113    1
     3   134   133    1
     4   115   114    2
     5   165   164    1
     6   165   166    2
     7     4     3    2
     8    98    96   ar
     9    98    99   ar
    10   117   116    1
    11   117   119    1
    12   113   114    1
    13   113   116    1
    14   164   163    1
    15    96    94   ar
    16   114   120   am
    17   116   118    1
    18   133   132    1
    19     3     2    1
    20    99    97   ar
    21    89    90    1
    22   126   125    2
    23    94    93    1
    24    94    95   ar
    25   120   121    1
    26   132   129    1
    27    93    90    1
    28    92    91    2
    29   121   122    1
    30   121   124    1
    31    90    91    1
    32   128   129    1
    33   128   122   am
    34     2     1    1
    35     2     5    1
    36    88    86   am
    37    97    95   ar
    38   125   124    1
    39   125   127   am
    40   129   130    1
    41   122   123    2
    42   158   156   am
    43    87    86    2
    44     5     6    1
    45    86    85    1
    46   162   161    2
    47   108   106   ar
    48   108   110   ar
    49   161   160    1
    50    11    13   ar
    51    11     8   ar
    52   156   157    2
    53   156   155    1
    54   111   110    1
    55   106   105   ar
    56    55    53   ar
    57    13    14   ar
    58   110   109   ar
    59     6     8   ar
    60     6     7   ar
    61   154   155    1
    62   154   151    1
    63   130   131    2
    64   130   136   am
    65     8    10   ar
    66   105   104    1
    67   105   107   ar
    68    85    82    1
    69   160   159    1
    70   109   107   ar
    71    14    12   ar
    72   159   152   am
    73    53    54   ar
    74    53    52    1
    75   104   101    1
    76   136   137    1
    77     7     9   ar
    78   100   101    1
    79    82    83    1
    80    82    81    1
    81    10    12   ar
    82    10     9   ar
    83    83    84    2
    84   152   151    1
    85   152   153    2
    86   151   150    1
    87   150   138   am
    88    73    72    2
    89   144   142   ar
    90   144   145   ar
    91   101   102    1
    92   103   102    2
    93   142   141   ar
    94    52    51    1
    95    46    44   ar
    96    45    44   ar
    97    44    43    1
    98    81    72   am
    99   137   138    1
   100   137   140    1
   101   138   139    2
   102   145   147   ar
   103   145   143   ar
   104    72    71    1
   105   147   149   ar
   106    43    40    1
   107   141   143   ar
   108   141   140    1
   109   143   146   ar
   110    40    41    1
   111    40    39    1
   112    47    48    1
   113    51    48    1
   114   149   148   ar
   115    41    42    2
   116    79    77   ar
   117    79    80   ar
   118    48    49    1
   119    70    71    1
   120    70    66   am
   121    71    74    1
   122    68    65    1
   123    68    69    1
   124   146   148   ar
   125    77    75   ar
   126    80    78   ar
   127    39    37   am
   128    38    37    2
   129    65    66    1
   130    65    64    1
   131    20    19    1
   132    75    74    1
   133    75    76   ar
   134    66    67    2
   135    21    19    1
   136    19    16    1
   137    37    36    1
   138    78    76   ar
   139    49    56   am
   140    49    50    2
   141    18    17    2
   142    56    57    1
   143    16    17    1
   144    16    15    1
   145    36    35    1
   146    17    22   am
   147   176   178    1
   148   176   175    1
   149    22    23    1
   150    34    32    1
   151    61    63    1
   152    61    60    1
   153    23    26    1
   154    23    24    1
   155    57    60    1
   156    57    58    1
   157    33    32    1
   158    62    60    1
   159   177   175    1
   160   175   172    1
   161   170   169    2
   162    58    59    2
   163    26    27    1
   164    24    28   am
   165    24    25    2
   166    32    29    1
   167    28    29    1
   168   168   169    1
   169   168   167    1
   170   172   171    1
   171   172   173    1
   172    29    30    1
   173    31    30    2
   174   173   174    2
