@<TRIPOS>MOLECULE
tmp/4rzcC00.pdb
 86 86 0 0 0
SMALL
GASTEIGER

@<TRIPOS>ATOM
      1  N        -12.0310  -61.8370    8.6750 N.3    32  TRP32      -0.1227
      2  CA       -13.2340  -61.1310    9.1050 C.3    32  TRP32       0.1737
      3  C        -12.9860  -59.8330    9.8720 C.2    32  TRP32       0.2595
      4  O        -13.9480  -59.1290   10.1650 O.2    32  TRP32      -0.2718
      5  CB       -14.0880  -62.0310   10.0050 C.3    32  TRP32       0.0564
      6  CG       -14.5540  -63.2900    9.3780 C.ar   32  TRP32       0.0003
      7  CD1      -14.3260  -64.5690    9.8250 C.ar   32  TRP32       0.0946
      8  CD2      -15.3400  -63.4140    8.1870 C.ar   32  TRP32       0.0152
      9  NE1      -14.9220  -65.4780    8.9810 N.ar   32  TRP32      -0.2442
     10  CE2      -15.5530  -64.7960    7.9680 C.ar   32  TRP32       0.0810
     11  CE3      -15.8930  -62.4950    7.2930 C.ar   32  TRP32       0.0012
     12  CZ2      -16.2930  -65.2810    6.8820 C.ar   32  TRP32       0.0191
     13  CZ3      -16.6250  -62.9790    6.1970 C.ar   32  TRP32       0.0001
     14  CH2      -16.8170  -64.3640    6.0070 C.ar   32  TRP32       0.0015
     15  N        -11.7330  -59.5170   10.2050 N.am   33  TYR33      -0.1962
     16  CA       -11.4260  -58.2790   10.9520 C.3    33  TYR33       0.1771
     17  C        -10.3580  -57.3960   10.3240 C.2    33  TYR33       0.2620
     18  O         -9.4070  -57.8680    9.7200 O.2    33  TYR33      -0.2715
     19  CB       -11.0060  -58.5700   12.3900 C.3    33  TYR33       0.0574
     20  CG       -11.8190  -59.6430   13.0430 C.ar   33  TYR33      -0.0198
     21  CD1      -13.1550  -59.4330   13.3640 C.ar   33  TYR33      -0.0009
     22  CD2      -11.2490  -60.8840   13.3390 C.ar   33  TYR33      -0.0009
     23  CE1      -13.9000  -60.4340   13.9560 C.ar   33  TYR33       0.0417
     24  CE2      -11.9800  -61.8850   13.9430 C.ar   33  TYR33       0.0417
     25  CZ       -13.2950  -61.6620   14.2380 C.ar   33  TYR33       0.1957
     26  OH       -14.0110  -62.6650   14.8260 O.3    33  TYR33      -0.2866
     27  N        -10.5650  -56.0940   10.5090 N.am   34  THR34      -0.1951
     28  CA        -9.6660  -55.0350   10.0980 C.3    34  THR34       0.1897
     29  C         -8.6770  -54.8860   11.2360 C.2    34  THR34       0.2313
     30  O         -9.0890  -54.8940   12.3950 O.2    34  THR34      -0.2863
     31  CB       -10.4700  -53.7260    9.9450 C.3    34  THR34       0.1794
     32  OG1      -11.4870  -53.9090    8.9620 O.3    34  THR34      -0.2208
     33  CG2       -9.6080  -52.5400    9.5360 C.3    34  THR34       0.0378
     34  N         -7.8450  -53.5350    5.7450 N.3    53  GLY53      -0.1210
     35  CA        -9.1930  -54.1390    5.7980 C.3    53  GLY53       0.1956
     36  C         -9.2200  -55.6540    5.8720 C.2    53  GLY53       0.2611
     37  O         -8.2030  -56.2870    5.7270 O.2    53  GLY53      -0.2717
     38  N        -10.4020  -56.2260    6.0790 N.am   54  ALA54      -0.1979
     39  CA       -10.5780  -57.6910    6.2510 C.3    54  ALA54       0.1597
     40  C        -10.3700  -58.4630    4.9640 C.2    54  ALA54       0.2287
     41  O        -10.6840  -57.9760    3.8840 O.2    54  ALA54      -0.2864
     42  CB       -11.9680  -58.0020    6.7820 C.3    54  ALA54       0.0319
     43  N         -5.8860  -47.6740    4.9580 N.3    61  TYR61      -0.1241
     44  CA        -6.1370  -46.2810    5.2650 C.3    61  TYR61       0.1605
     45  C         -4.9960  -45.7910    6.1330 C.2    61  TYR61       0.2264
     46  O         -4.3730  -46.5870    6.8590 O.2    61  TYR61      -0.2867
     47  CB        -7.4650  -46.1120    5.9860 C.3    61  TYR61       0.0534
     48  CG        -8.6380  -46.6120    5.1960 C.ar   61  TYR61      -0.0201
     49  CD1       -9.1040  -45.9070    4.0940 C.ar   61  TYR61      -0.0009
     50  CD2       -9.2780  -47.7990    5.5380 C.ar   61  TYR61      -0.0009
     51  CE1      -10.1840  -46.3720    3.3530 C.ar   61  TYR61       0.0417
     52  CE2      -10.3580  -48.2700    4.8130 C.ar   61  TYR61       0.0417
     53  CZ       -10.8090  -47.5560    3.7220 C.ar   61  TYR61       0.1957
     54  OH       -11.8740  -48.0400    2.9950 O.3    61  TYR61      -0.2866
     55  N         -9.9820  -54.5960   15.1900 N.3   100  ASP100     -0.1225
     56  CA       -11.3080  -54.0290   15.1050 C.3   100  ASP100      0.1805
     57  C        -12.2370  -55.2210   15.1730 C.2   100  ASP100      0.2598
     58  O        -12.5490  -55.8330   14.1560 O.2   100  ASP100     -0.2718
     59  CB       -11.4860  -53.2380   13.7960 C.3   100  ASP100      0.1424
     60  CG       -12.8320  -52.5290   13.6960 C.2   100  ASP100      0.3668
     61  OD1      -13.8360  -53.0220   14.2540 O.co2 100  ASP100     -0.2456
     62  OD2      -12.8930  -51.4520   13.0440 O.co2 100  ASP100     -0.2456
     63  N        -12.6840  -55.5430   16.3820 N.am  101  GLY101     -0.1942
     64  CA       -13.5900  -56.6620   16.5900 C.3   101  GLY101      0.2014
     65  C        -14.9560  -56.3750   16.0230 C.2   101  GLY101      0.2639
     66  O        -15.4990  -57.1520   15.2460 O.2   101  GLY101     -0.2714
     67  N        -15.5250  -55.2520   16.4270 N.am  102  ILE102     -0.1963
     68  CA       -16.8850  -54.8960   16.0500 C.3   102  ILE102      0.1727
     69  C        -17.0560  -53.3660   15.9520 C.2   102  ILE102      0.2616
     70  O        -16.8280  -52.6380   16.9280 O.2   102  ILE102     -0.2715
     71  CB       -17.8650  -55.5070   17.0760 C.3   102  ILE102      0.0290
     72  CG1      -19.3350  -55.2190   16.6920 C.3   102  ILE102      0.0022
     73  CG2      -17.5220  -55.0160   18.4930 C.3   102  ILE102      0.0023
     74  CD1      -19.6550  -55.2540   15.2080 C.3   102  ILE102      0.0001
     75  N        -17.3840  -52.9100   14.7360 N.am  103  ASN103     -0.1958
     76  CA       -17.7580  -51.5260   14.4370 C.3   103  ASN103      0.1819
     77  C        -16.9410  -50.4510   15.1580 C.2   103  ASN103      0.2621
     78  O        -17.4900  -49.4730   15.6710 O.2   103  ASN103     -0.2715
     79  CB       -19.2500  -51.3390   14.7140 C.3   103  ASN103      0.1195
     80  CG       -19.8290  -50.1180   14.0100 C.2   103  ASN103      0.2630
     81  OD1      -19.5050  -49.8460   12.8540 O.2   103  ASN103     -0.2716
     82  ND2      -20.7120  -49.3940   14.6960 N.am  103  ASN103     -0.0877
     83  N        -15.6230  -50.6410   15.2030 N.am  104  GLY104     -0.1954
     84  CA       -14.7030  -49.6050   15.7090 C.3   104  GLY104      0.1869
     85  C        -14.1560  -49.8130   17.1090 C.2   104  GLY104      0.2309
     86  O        -13.2100  -49.1270   17.5220 O.2   104  GLY104     -0.2863
@<TRIPOS>BOND
     1    54    53    1
     2    51    53   ar
     3    51    49   ar
     4    53    52   ar
     5    41    40    2
     6    49    48   ar
     7    52    50   ar
     8    43    44    1
     9    40    39    1
    10    48    50   ar
    11    48    47    1
    12    44    47    1
    13    44    45    1
    14    37    36    2
    15    34    35    1
    16    35    36    1
    17    36    38   am
    18    14    13   ar
    19    14    12   ar
    20    38    39    1
    21    45    46    2
    22    13    11   ar
    23    39    42    1
    24    12    10   ar
    25    11     8   ar
    26    10     8   ar
    27    10     9   ar
    28     8     6   ar
    29     1     2    1
    30    32    31    1
    31     9     7   ar
    32     2     3    1
    33     2     5    1
    34     6     7   ar
    35     6     5    1
    36    33    31    1
    37    18    17    2
    38     3     4    2
    39     3    15   am
    40    31    28    1
    41    28    27    1
    42    28    29    1
    43    15    16    1
    44    17    27   am
    45    17    16    1
    46    16    19    1
    47    29    30    2
    48    19    20    1
    49    81    80    2
    50    20    22   ar
    51    20    21   ar
    52    62    60   ar
    53    22    24   ar
    54    21    23   ar
    55    60    59    1
    56    60    61   ar
    57    59    56    1
    58    24    25   ar
    59    23    25   ar
    60    80    82   am
    61    80    79    1
    62    58    57    2
    63    25    26    1
    64    76    79    1
    65    76    75    1
    66    76    77    1
    67    75    69   am
    68    56    57    1
    69    56    55    1
    70    77    83   am
    71    77    78    2
    72    57    63   am
    73    83    84    1
    74    74    72    1
    75    66    65    2
    76    84    85    1
    77    69    68    1
    78    69    70    2
    79    65    67   am
    80    65    64    1
    81    68    67    1
    82    68    71    1
    83    63    64    1
    84    72    71    1
    85    71    73    1
    86    85    86    2
