@<TRIPOS>MOLECULE
tmp/4rzgB00.pdb
 136 132 0 0 0
SMALL
GASTEIGER

@<TRIPOS>ATOM
      1  N         17.2650   -4.0900   -0.2190 N.3    76  LEU76      -0.1245
      2  CA        17.5970   -5.2640   -0.9850 C.3    76  LEU76       0.1561
      3  C         16.8660   -6.4670   -0.4130 C.2    76  LEU76       0.2260
      4  O         16.3070   -7.2560   -1.1740 O.2    76  LEU76      -0.2867
      5  CB        19.1010   -5.5140   -1.0030 C.3    76  LEU76       0.0270
      6  CG        19.5050   -6.7310   -1.8350 C.3    76  LEU76       0.0019
      7  CD1       19.3140   -6.5870   -3.3330 C.3    76  LEU76       0.0001
      8  CD2       20.9510   -7.0690   -1.5740 C.3    76  LEU76       0.0001
      9  N         12.9400   -5.9850   -1.1470 N.3    79  GLU79      -0.1231
     10  CA        12.7120   -6.1920   -2.5630 C.3    79  GLU79       0.1699
     11  C         12.9560   -7.6430   -2.9790 C.2    79  GLU79       0.2593
     12  O         12.2410   -8.1820   -3.7880 O.2    79  GLU79      -0.2718
     13  CB        13.6220   -5.2380   -3.3530 C.3    79  GLU79       0.0402
     14  CG        13.1150   -3.7940   -3.2560 C.3    79  GLU79       0.1161
     15  CD        14.0680   -2.7330   -3.7470 C.2    79  GLU79       0.3649
     16  OE1       14.1480   -1.6800   -3.0830 O.co2  79  GLU79      -0.2457
     17  OE2       14.6880   -2.9270   -4.8090 O.co2  79  GLU79      -0.2457
     18  N         13.9520   -8.3010   -2.4180 N.am   80  SER80      -0.1938
     19  CA        14.2160   -9.6630   -2.7810 C.3    80  SER80       0.2055
     20  C         13.2260  -10.6450   -2.1680 C.2    80  SER80       0.2643
     21  O         13.0550  -11.7560   -2.6780 O.2    80  SER80      -0.2714
     22  CB        15.6240  -10.0420   -2.3590 C.3    80  SER80       0.2130
     23  OG        16.5320   -9.1520   -2.9620 O.3    80  SER80      -0.2179
     24  N         12.5940  -10.2810   -1.0710 N.am   81  ALA81      -0.1963
     25  CA        11.6730  -11.2100   -0.4380 C.3    81  ALA81       0.1728
     26  C         10.2170  -10.8270   -0.6930 C.2    81  ALA81       0.2616
     27  O          9.3260  -11.6220   -0.4360 O.2    81  ALA81      -0.2715
     28  CB        11.9330  -11.2490    1.0370 C.3    81  ALA81       0.0334
     29  N          9.9650   -9.6260   -1.2090 N.am   82  PHE82      -0.1960
     30  CA         8.6210   -9.1680   -1.3480 C.3    82  PHE82       0.1771
     31  C          7.5850  -10.1860   -1.8410 C.2    82  PHE82       0.2619
     32  O          6.5830  -10.4250   -1.2080 O.2    82  PHE82      -0.2715
     33  CB         8.5480   -8.0320   -2.3170 C.3    82  PHE82       0.0574
     34  CG         7.1580   -7.5980   -2.5440 C.ar   82  PHE82      -0.0200
     35  CD1        6.3600   -7.2600   -1.4810 C.ar   82  PHE82      -0.0042
     36  CD2        6.6170   -7.5860   -3.8200 C.ar   82  PHE82      -0.0042
     37  CE1        5.0550   -6.9120   -1.6690 C.ar   82  PHE82      -0.0003
     38  CE2        5.2890   -7.2320   -4.0140 C.ar   82  PHE82      -0.0003
     39  CZ         4.5280   -6.8840   -2.9280 C.ar   82  PHE82      -0.0000
     40  N          7.8060  -10.7230   -3.0210 N.am   83  LEU83      -0.1963
     41  CA         6.8410  -11.6250   -3.6790 C.3    83  LEU83       0.1728
     42  C          6.6340  -12.8350   -2.8190 C.2    83  LEU83       0.2616
     43  O          5.5200  -13.1970   -2.5530 O.2    83  LEU83      -0.2715
     44  CB         7.3560  -12.0910   -5.0530 C.3    83  LEU83       0.0311
     45  CG         6.5230  -11.8990   -6.3010 C.3    83  LEU83       0.0022
     46  CD1        5.8200  -10.5680   -6.3700 C.3    83  LEU83       0.0001
     47  CD2        7.4420  -12.0920   -7.4840 C.3    83  LEU83       0.0001
     48  N          7.7260  -13.4390   -2.3880 N.am   84  GLU84      -0.1977
     49  CA         7.6880  -14.5690   -1.5080 C.3    84  GLU84       0.1602
     50  C          6.9300  -14.2620   -0.2220 C.2    84  GLU84       0.2287
     51  O          6.0920  -15.0670    0.2340 O.2    84  GLU84      -0.2864
     52  CB         9.0920  -14.9400   -1.1610 C.3    84  GLU84       0.0415
     53  CG         9.2580  -16.3400   -0.6860 C.3    84  GLU84       0.1163
     54  CD        10.7290  -16.7200   -0.5530 C.2    84  GLU84       0.3649
     55  OE1       11.6760  -15.8580   -0.7780 O.co2  84  GLU84      -0.2457
     56  OE2       10.8980  -17.9210   -0.2150 O.co2  84  GLU84      -0.2457
     57  N         21.3460  -12.4250    0.4960 N.3   154  ARG154     -0.1231
     58  CA        21.1210  -12.1010   -0.8760 C.3   154  ARG154      0.1694
     59  C         22.4050  -11.5560   -1.4300 C.2   154  ARG154      0.2592
     60  O         23.1940  -10.9740   -0.6960 O.2   154  ARG154     -0.2718
     61  CB        20.0640  -11.0310   -1.0490 C.3   154  ARG154      0.0321
     62  CG        18.7370  -11.3360   -0.3980 C.3   154  ARG154      0.0489
     63  CD        17.9350  -12.3680   -1.1500 C.3   154  ARG154      0.2205
     64  NE        16.5980  -12.4660   -0.5760 N.pl3 154  ARG154     -0.0865
     65  CZ        15.6750  -13.3520   -0.9410 C.cat 154  ARG154      0.5346
     66  NH1       15.9270  -14.2360   -1.8870 N.pl3 154  ARG154      0.1354
     67  NH2       14.4910  -13.3630   -0.3560 N.pl3 154  ARG154      0.1354
     68  N         22.6010  -11.7880   -2.7240 N.am  155  HIS155     -0.1976
     69  CA        23.6620  -11.2220   -3.4600 C.3   155  HIS155      0.1656
     70  C         23.5290   -9.7320   -3.4580 C.2   155  HIS155      0.2291
     71  O         22.4200   -9.2110   -3.6750 O.2   155  HIS155     -0.2864
     72  CB        23.5610  -11.6630   -4.8850 C.3   155  HIS155      0.0771
     73  CG        24.7280  -11.2550   -5.7100 C.ar  155  HIS155      0.0820
     74  ND1       25.9570  -11.8750   -5.6180 N.ar  155  HIS155     -0.2267
     75  CD2       24.8490  -10.3100   -6.6680 C.ar  155  HIS155      0.1154
     76  CE1       26.7860  -11.3220   -6.4880 C.ar  155  HIS155      0.1986
     77  NE2       26.1350  -10.3750   -7.1410 N.ar  155  HIS155     -0.2212
     78  N          6.2630  -17.7570   -6.7880 N.3   201  CYS201     -0.1221
     79  CA         6.9460  -16.5080   -7.1200 C.3   201  CYS201      0.1808
     80  C          7.1290  -16.4320   -8.6050 C.2   201  CYS201      0.2601
     81  O          6.9340  -15.4010   -9.2360 O.2   201  CYS201     -0.2717
     82  CB         8.3010  -16.4910   -6.4980 C.3   201  CYS201      0.0970
     83  SG         8.2210  -16.6860   -4.7260 S.3   201  CYS201     -0.0800
     84  N          7.4960  -17.5530   -9.1750 N.am  202  THR202     -0.1953
     85  CA         7.7550  -17.5680  -10.5740 C.3   202  THR202      0.1897
     86  C          6.4980  -17.2010  -11.3230 C.2   202  THR202      0.2313
     87  O          6.5670  -16.3620  -12.2060 O.2   202  THR202     -0.2863
     88  CB         8.3070  -18.9220  -10.9560 C.3   202  THR202      0.1794
     89  OG1        9.5640  -19.0220  -10.3060 O.3   202  THR202     -0.2208
     90  CG2        8.5360  -19.0390  -12.3990 C.3   202  THR202      0.0378
     91  N          6.0760  -13.5560  -11.3850 N.3   205  LEU205     -0.1245
     92  CA         6.9060  -12.8130  -12.3280 C.3   205  LEU205      0.1561
     93  C          6.3080  -12.9390  -13.7330 C.2   205  LEU205      0.2260
     94  O          6.2700  -11.9920  -14.5110 O.2   205  LEU205     -0.2867
     95  CB         8.3320  -13.3300  -12.3020 C.3   205  LEU205      0.0270
     96  CG         9.0640  -13.0750  -10.9910 C.3   205  LEU205      0.0019
     97  CD1       10.4480  -13.6510  -11.0830 C.3   205  LEU205      0.0001
     98  CD2        9.2100  -11.6090  -10.6540 C.3   205  LEU205      0.0001
     99  N         11.4910   -4.2370   -8.8410 N.3   226  ILE226     -0.1245
    100  CA        11.6460   -5.5620   -8.2130 C.3   226  ILE226      0.1561
    101  C         11.5680   -6.6020   -9.3060 C.2   226  ILE226      0.2260
    102  O         12.3390   -7.5560   -9.3550 O.2   226  ILE226     -0.2867
    103  CB        10.5520   -5.8010   -7.1170 C.3   226  ILE226      0.0252
    104  CG1       10.7800   -4.8770   -5.9350 C.3   226  ILE226      0.0019
    105  CG2       10.5870   -7.2070   -6.5730 C.3   226  ILE226      0.0019
    106  CD1        9.6320   -4.8110   -4.9650 C.3   226  ILE226      0.0001
    107  N         14.9240   -6.2190  -11.2990 N.3   229  ASP229     -0.1225
    108  CA        16.1380   -6.5860  -10.5750 C.3   229  ASP229      0.1805
    109  C         16.1840   -8.0890  -10.3550 C.2   229  ASP229      0.2598
    110  O         17.2460   -8.6840  -10.3050 O.2   229  ASP229     -0.2718
    111  CB        16.2100   -5.8850   -9.2270 C.3   229  ASP229      0.1424
    112  CG        16.4420   -4.4030   -9.3420 C.2   229  ASP229      0.3668
    113  OD1       16.6260   -3.8840  -10.4680 O.co2 229  ASP229     -0.2456
    114  OD2       16.4330   -3.7360   -8.2840 O.co2 229  ASP229     -0.2456
    115  N         15.0170   -8.6970  -10.2040 N.am  230  THR230     -0.1939
    116  CA        14.9110  -10.1490  -10.0350 C.3   230  THR230      0.2028
    117  C         15.3450  -10.9390  -11.2710 C.2   230  THR230      0.2642
    118  O         15.7160  -12.1050  -11.1910 O.2   230  THR230     -0.2714
    119  CB        13.4360  -10.5110   -9.8780 C.3   230  THR230      0.1808
    120  OG1       12.7870   -9.6260   -8.9490 O.3   230  THR230     -0.2208
    121  CG2       13.2400  -11.9910   -9.5060 C.3   230  THR230      0.0379
    122  N         15.2030  -10.3260  -12.4380 N.am  231  LEU231     -0.1963
    123  CA        15.5990  -10.9870  -13.6950 C.3   231  LEU231      0.1713
    124  C         17.1290  -11.0810  -13.8720 C.2   231  LEU231      0.2458
    125  O         17.8190  -10.0480  -13.8420 O.2   231  LEU231     -0.2730
    126  CB        15.0080  -10.2440  -14.8860 C.3   231  LEU231      0.0310
    127  CG        13.5650  -10.4660  -15.3180 C.3   231  LEU231      0.0022
    128  CD1       12.6220  -10.7530  -14.1760 C.3   231  LEU231      0.0001
    129  CD2       13.1360   -9.2430  -16.1200 C.3   231  LEU231      0.0001
    130  N         17.6700  -12.3120  -14.0830 N.am  232  PRO232     -0.2727
    131  CA        19.1100  -12.4280  -14.3720 C.3   232  PRO232      0.1402
    132  C         19.4930  -12.0530  -15.8310 C.2   232  PRO232      0.2269
    133  O         20.0450  -12.8950  -16.5420 O.2   232  PRO232     -0.2865
    134  CB        19.4050  -13.9160  -14.0760 C.3   232  PRO232      0.0296
    135  CG        18.1240  -14.6260  -14.3740 C.3   232  PRO232      0.0237
    136  CD        17.0110  -13.6400  -14.0880 C.3   232  PRO232      0.0939
@<TRIPOS>BOND
     1   133   132    2
     2   129   127    1
     3   132   131    1
     4   127   126    1
     5   127   128    1
     6   126   123    1
     7    94    93    2
     8   135   136    1
     9   135   134    1
    10   131   130    1
    11   131   134    1
    12   136   130    1
    13   130   124   am
    14   124   125    2
    15   124   123    1
    16    93    92    1
    17   123   122    1
    18   122   117   am
    19    90    88    1
    20    92    95    1
    21    92    91    1
    22    95    96    1
    23    87    86    2
    24    86    85    1
    25   107   108    1
    26   117   118    2
    27   117   116    1
    28    97    96    1
    29    96    98    1
    30    88    85    1
    31    88    89    1
    32   108   109    1
    33   108   111    1
    34    85    84    1
    35   113   112   ar
    36   109   110    2
    37   109   115   am
    38   115   116    1
    39   116   119    1
    40   119   121    1
    41   119   120    1
    42   102   101    2
    43   112   111    1
    44   112   114   ar
    45   101   100    1
    46    81    80    2
    47    84    80   am
    48    99   100    1
    49    80    79    1
    50   100   103    1
    51    47    45    1
    52    77    75   ar
    53    77    76   ar
    54    79    78    1
    55    79    82    1
    56   103   105    1
    57   103   104    1
    58    75    73   ar
    59    82    83    1
    60    76    74   ar
    61    46    45    1
    62    45    44    1
    63   104   106    1
    64    73    74   ar
    65    73    72    1
    66    44    41    1
    67    72    69    1
    68    17    15   ar
    69    38    36   ar
    70    38    39   ar
    71    36    34   ar
    72    12    11    2
    73    15    14    1
    74    15    16   ar
    75    41    40    1
    76    41    42    1
    77    71    70    2
    78    69    70    1
    79    69    68    1
    80    13    14    1
    81    13    10    1
    82     7     6    1
    83    40    31   am
    84    11    10    1
    85    11    18   am
    86    23    22    1
    87    39    37   ar
    88    42    43    2
    89    42    48   am
    90    19    18    1
    91    19    22    1
    92    19    20    1
    93    68    59   am
    94    21    20    2
    95    10     9    1
    96    34    33    1
    97    34    35   ar
    98    48    49    1
    99    33    30    1
   100    20    24   am
   101    66    65    1
   102    31    30    1
   103    31    32    2
   104     6     8    1
   105     6     5    1
   106    37    35   ar
   107    49    52    1
   108    49    50    1
   109    59    58    1
   110    59    60    2
   111    30    29    1
   112    29    26   am
   113     4     3    2
   114    52    53    1
   115    63    64    1
   116    63    62    1
   117    24    25    1
   118    61    58    1
   119    61    62    1
   120     5     2    1
   121     2     3    1
   122     2     1    1
   123    65    64    2
   124    65    67    1
   125    58    57    1
   126    55    54   ar
   127    26    25    1
   128    26    27    2
   129    53    54    1
   130    54    56   ar
   131    25    28    1
   132    50    51    2
