@<TRIPOS>MOLECULE
tmp/4rzmB00.pdb
 190 182 0 0 0
SMALL
GASTEIGER

@<TRIPOS>ATOM
      1  N         -9.4980   -1.8410   73.1980 N.3   173  ASP173     -0.1225
      2  CA       -10.6840   -1.6720   72.3690 C.3   173  ASP173      0.1790
      3  C        -10.2910   -1.7050   70.8980 C.2   173  ASP173      0.2439
      4  O         -9.6480   -0.7840   70.3900 O.2   173  ASP173     -0.2733
      5  CB       -11.3290   -0.3570   72.6630 C.3   173  ASP173      0.1423
      6  CG       -12.4800   -0.0420   71.7240 C.2   173  ASP173      0.3668
      7  OD1      -12.8600   -0.9090   70.9100 O.co2 173  ASP173     -0.2456
      8  OD2      -13.0650    1.0630   71.8710 O.co2 173  ASP173     -0.2456
      9  N        -10.6270   -2.7890   70.2100 N.am  174  PRO174     -0.2729
     10  CA       -11.2850   -4.0120   70.6180 C.3   174  PRO174      0.1401
     11  C        -10.3750   -4.9930   71.3250 C.2   174  PRO174      0.2269
     12  O         -9.1500   -4.9350   71.1850 O.2   174  PRO174     -0.2865
     13  CB       -11.6910   -4.6240   69.2990 C.3   174  PRO174      0.0296
     14  CG       -10.5550   -4.2170   68.4000 C.3   174  PRO174      0.0237
     15  CD       -10.2590   -2.8260   68.7790 C.3   174  PRO174      0.0939
     16  N         -6.6320   -6.1750   70.2900 N.3   177  SER177     -0.1202
     17  CA        -5.7010   -5.1700   69.7820 C.3   177  SER177      0.2020
     18  C         -4.6760   -4.8220   70.8790 C.2   177  SER177      0.2618
     19  O         -4.5640   -5.5470   71.7980 O.2   177  SER177     -0.2717
     20  CB        -6.4790   -3.9250   69.3420 C.3   177  SER177      0.2103
     21  OG        -7.1700   -3.3160   70.4250 O.3   177  SER177     -0.2182
     22  N         -3.9620   -3.7130   70.7680 N.am  178  TRP178     -0.1975
     23  CA        -3.0950   -3.2510   71.8400 C.3   178  TRP178      0.1640
     24  C         -3.8330   -2.7850   73.1060 C.2   178  TRP178      0.2290
     25  O         -4.7770   -2.0160   73.0600 O.2   178  TRP178     -0.2864
     26  CB        -2.1170   -2.1180   71.3770 C.3   178  TRP178      0.0576
     27  CG        -0.7450   -2.6440   71.1530 C.ar  178  TRP178      0.0006
     28  CD1        0.2850   -2.7130   72.0660 C.ar  178  TRP178      0.0946
     29  CD2       -0.2620   -3.2390   69.9620 C.ar  178  TRP178      0.0152
     30  NE1        1.3920   -3.3150   71.5000 N.ar  178  TRP178     -0.2442
     31  CE2        1.0910   -3.6420   70.2070 C.ar  178  TRP178      0.0810
     32  CE3       -0.8210   -3.4380   68.6840 C.ar  178  TRP178      0.0012
     33  CZ2        1.8830   -4.2420   69.2290 C.ar  178  TRP178      0.0191
     34  CZ3       -0.0340   -4.0410   67.7140 C.ar  178  TRP178      0.0001
     35  CH2        1.3110   -4.4370   67.9930 C.ar  178  TRP178      0.0015
     36  N         -3.8760   -0.1940   75.7300 N.3   180  ARG180     -0.1245
     37  CA        -3.5100    1.1990   75.7920 C.3   180  ARG180      0.1563
     38  C         -3.4450    1.5940   77.2570 C.2   180  ARG180      0.2260
     39  O         -4.1970    1.0450   78.0520 O.2   180  ARG180     -0.2867
     40  CB        -4.5920    1.9940   75.0750 C.3   180  ARG180      0.0307
     41  CG        -4.8150    1.4840   73.6860 C.3   180  ARG180      0.0489
     42  CD        -5.5370    2.4590   72.8390 C.3   180  ARG180      0.2205
     43  NE        -6.6790    1.8590   72.2180 N.pl3 180  ARG180     -0.0865
     44  CZ        -7.6260    2.5290   71.5730 C.cat 180  ARG180      0.5346
     45  NH1       -7.5590    3.8570   71.4240 N.pl3 180  ARG180      0.1354
     46  NH2       -8.6400    1.8510   71.0530 N.pl3 180  ARG180      0.1354
     47  N         -7.4230   10.8280   73.9140 N.3   188  ALA188     -0.1231
     48  CA        -7.3230   10.8340   72.4990 C.3   188  ALA188      0.1694
     49  C         -8.4880   10.0170   71.8950 C.2   188  ALA188      0.2592
     50  O         -9.0640   10.3950   70.8670 O.2   188  ALA188     -0.2718
     51  CB        -5.9530   10.2610   72.1060 C.3   188  ALA188      0.0304
     52  N         -8.8460    8.9010   72.5200 N.am  189  HIS189     -0.1976
     53  CA        -9.9660    8.0960   72.0020 C.3   189  HIS189      0.1656
     54  C        -11.2620    8.8970   72.0770 C.2   189  HIS189      0.2291
     55  O        -12.0070    9.0090   71.1280 O.2   189  HIS189     -0.2864
     56  CB       -10.1510    6.8040   72.7820 C.3   189  HIS189      0.0771
     57  CG       -10.9230    5.7570   72.0320 C.ar  189  HIS189      0.0820
     58  ND1      -10.8380    4.4160   72.3300 N.ar  189  HIS189     -0.2267
     59  CD2      -11.7480    5.8480   70.9620 C.ar  189  HIS189      0.1154
     60  CE1      -11.5690    3.7260   71.4730 C.ar  189  HIS189      0.1986
     61  NE2      -12.1350    4.5720   70.6350 N.ar  189  HIS189     -0.2212
     62  N        -11.5960   11.8000   69.5970 N.3   192  MET192     -0.1230
     63  CA       -11.9550   11.3130   68.2810 C.3   192  MET192      0.1702
     64  C        -13.4360   10.8860   68.1620 C.2   192  MET192      0.2592
     65  O        -14.0870   11.1270   67.1390 O.2   192  MET192     -0.2718
     66  CB       -11.0560   10.1290   67.9130 C.3   192  MET192      0.0401
     67  CG        -9.6520   10.5290   67.4470 C.3   192  MET192      0.0596
     68  SD        -9.5890   11.2760   65.8100 S.3   192  MET192     -0.1393
     69  CE       -11.2370   10.9640   65.0880 C.3   192  MET192      0.0692
     70  N        -13.9520   10.2320   69.2010 N.am  193  ALA193     -0.1980
     71  CA       -15.3400    9.8090   69.2470 C.3   193  ALA193      0.1597
     72  C        -16.2410   11.0200   69.1270 C.2   193  ALA193      0.2287
     73  O        -17.1650   11.0390   68.3260 O.2   193  ALA193     -0.2864
     74  CB       -15.6370    9.0750   70.5440 C.3   193  ALA193      0.0319
     75  N        -16.2020   12.2540   65.6320 N.3   196  SER196     -0.1217
     76  CA       -16.9520   11.3900   64.7260 C.3   196  SER196      0.1889
     77  C        -18.4110   11.2380   65.1030 C.2   196  SER196      0.2288
     78  O        -19.0850   10.3460   64.5810 O.2   196  SER196     -0.2866
     79  CB       -16.2830   10.0170   64.6330 C.3   196  SER196      0.2089
     80  OG       -15.0370   10.1420   63.9450 O.3   196  SER196     -0.2183
     81  N        -19.8870   10.1170   67.7940 N.3   198  VAL198     -0.1245
     82  CA       -20.2540    8.8920   68.4100 C.3   198  VAL198      0.1561
     83  C        -21.4540    9.0630   69.3380 C.2   198  VAL198      0.2260
     84  O        -21.5780   10.0420   70.0730 O.2   198  VAL198     -0.2867
     85  CB       -19.0750    8.2830   69.1650 C.3   198  VAL198      0.0252
     86  CG1      -19.5440    7.1730   70.0550 C.3   198  VAL198      0.0019
     87  CG2      -18.0450    7.7920   68.1440 C.3   198  VAL198      0.0019
     88  N        -23.2270    6.3890   71.9710 N.3   200  GLU200     -0.1245
     89  CA       -23.2200    5.1100   72.6240 C.3   200  GLU200      0.1567
     90  C        -24.4870    4.9530   73.4590 C.2   200  GLU200      0.2260
     91  O        -24.6770    5.6780   74.4140 O.2   200  GLU200     -0.2867
     92  CB       -21.9970    5.0460   73.5430 C.3   200  GLU200      0.0388
     93  CG       -20.6760    5.0030   72.7900 C.3   200  GLU200      0.1160
     94  CD       -19.4870    5.0010   73.7040 C.2   200  GLU200      0.3649
     95  OE1      -19.6690    4.8730   74.9520 O.co2 200  GLU200     -0.2457
     96  OE2      -18.3760    5.1620   73.1730 O.co2 200  GLU200     -0.2457
     97  N        -23.4440    1.4570   69.3570 N.3   220  ALA220     -0.1245
     98  CA       -22.7720    2.7020   69.0520 C.3   220  ALA220      0.1562
     99  C        -22.9010    2.9650   67.5980 C.2   220  ALA220      0.2260
    100  O        -22.8140    2.0490   66.8120 O.2   220  ALA220     -0.2867
    101  CB       -21.3030    2.6450   69.4490 C.3   220  ALA220      0.0290
    102  N        -21.4990    6.0310   64.6550 N.3   222  MET222     -0.1245
    103  CA       -20.4810    7.0400   64.4380 C.3   222  MET222      0.1570
    104  C        -20.4490    7.3970   62.9470 C.2   222  MET222      0.2261
    105  O        -20.9250    6.6130   62.1240 O.2   222  MET222     -0.2867
    106  CB       -19.1310    6.4880   64.8640 C.3   222  MET222      0.0387
    107  CG       -18.6300    5.3970   63.9660 C.3   222  MET222      0.0595
    108  SD       -17.3470    4.3730   64.7140 S.3   222  MET222     -0.1393
    109  CE       -18.4560    3.2870   65.6300 C.3   222  MET222      0.0692
    110  N        -14.0620    9.2390   59.4390 N.3   226  PRO226     -0.2102
    111  CA       -12.9760    8.4170   58.8950 C.3   226  PRO226      0.1504
    112  C        -12.9430    6.9650   59.3630 C.2   226  PRO226      0.2576
    113  O        -12.1020    6.1670   58.9340 O.2   226  PRO226     -0.2718
    114  CB       -11.7640    9.1120   59.4790 C.3   226  PRO226      0.0282
    115  CG       -12.2400    9.4410   60.8650 C.3   226  PRO226      0.0208
    116  CD       -13.6010   10.0160   60.6020 C.3   226  PRO226      0.0893
    117  N        -13.8120    6.6140   60.2760 N.am  227  SER227     -0.1953
    118  CA       -13.6350    5.3540   60.9750 C.3   227  SER227      0.1924
    119  C        -13.6990    4.1540   60.0100 C.2   227  SER227      0.2314
    120  O        -12.9550    3.1920   60.1520 O.2   227  SER227     -0.2863
    121  CB       -14.6110    5.2670   62.1750 C.3   227  SER227      0.2116
    122  OG       -14.8530    6.5870   62.7100 O.3   227  SER227     -0.2180
    123  N        -10.4860    3.6930   57.8860 N.3   230  LEU230     -0.1231
    124  CA        -9.4110    3.3560   58.8040 C.3   230  LEU230      0.1693
    125  C         -9.4960    1.9390   59.3500 C.2   230  LEU230      0.2591
    126  O         -8.5710    1.1080   59.2250 O.2   230  LEU230     -0.2718
    127  CB        -9.3440    4.4010   59.9310 C.3   230  LEU230      0.0284
    128  CG        -8.1550    5.3580   59.7460 C.3   230  LEU230      0.0019
    129  CD1       -6.8770    4.5480   60.0330 C.3   230  LEU230      0.0001
    130  CD2       -8.1380    6.0450   58.3540 C.3   230  LEU230      0.0001
    131  N        -10.6450    1.6280   59.9070 N.am  231  LEU231     -0.1980
    132  CA       -10.8710    0.3020   60.4720 C.3   231  LEU231      0.1596
    133  C        -10.8340   -0.8070   59.4300 C.2   231  LEU231      0.2287
    134  O        -10.3940   -1.9310   59.7630 O.2   231  LEU231     -0.2864
    135  CB       -12.1740    0.2700   61.2660 C.3   231  LEU231      0.0297
    136  CG       -12.2930    1.1420   62.5290 C.3   231  LEU231      0.0022
    137  CD1      -13.7160    0.9710   63.0590 C.3   231  LEU231      0.0001
    138  CD2      -11.2900    0.8000   63.6150 C.3   231  LEU231      0.0001
    139  N         -7.2670   -1.7260   58.7680 N.3   234  HIS234     -0.1241
    140  CA        -6.6350   -2.4830   59.8500 C.3   234  HIS234      0.1621
    141  C         -7.1180   -3.9590   59.9010 C.2   234  HIS234      0.2264
    142  O         -6.7790   -4.7110   60.8340 O.2   234  HIS234     -0.2867
    143  CB        -6.8940   -1.7980   61.2260 C.3   234  HIS234      0.0745
    144  CG        -6.0290   -0.6000   61.5170 C.ar  234  HIS234      0.0817
    145  ND1       -6.1660    0.6030   60.8570 N.ar  234  HIS234     -0.2268
    146  CD2       -5.0530   -0.4070   62.4350 C.ar  234  HIS234      0.1154
    147  CE1       -5.2810    1.4690   61.3170 C.ar  234  HIS234      0.1986
    148  NE2       -4.6110    0.8890   62.2930 N.ar  234  HIS234     -0.2212
    149  N        -10.1220   -4.9500   60.6380 N.3   236  LEU236     -0.1245
    150  CA       -10.9680   -5.1060   61.7930 C.3   236  LEU236      0.1561
    151  C        -12.4280   -5.2300   61.4300 C.2   236  LEU236      0.2260
    152  O        -13.2300   -5.5310   62.2670 O.2   236  LEU236     -0.2867
    153  CB       -10.7910   -3.9090   62.7190 C.3   236  LEU236      0.0270
    154  CG        -9.4550   -3.8490   63.5110 C.3   236  LEU236      0.0019
    155  CD1       -9.3370   -2.5330   64.2530 C.3   236  LEU236      0.0001
    156  CD2       -9.3140   -5.0240   64.4610 C.3   236  LEU236      0.0001
    157  N        -21.4910   -0.2440   65.6980 N.3   252  ILE252     -0.1245
    158  CA       -20.7680   -1.2850   66.3790 C.3   252  ILE252      0.1561
    159  C        -21.5230   -1.6640   67.6280 C.2   252  ILE252      0.2260
    160  O        -21.8120   -0.8110   68.4150 O.2   252  ILE252     -0.2867
    161  CB       -19.3450   -0.8710   66.7560 C.3   252  ILE252      0.0252
    162  CG1      -18.6010   -0.4570   65.4850 C.3   252  ILE252      0.0019
    163  CG2      -18.6250   -2.0480   67.4190 C.3   252  ILE252      0.0019
    164  CD1      -17.1510   -0.0780   65.6500 C.3   252  ILE252      0.0001
    165  N        -21.1360   -3.7820   71.0020 N.3   254  TYR254     -0.1241
    166  CA       -20.0540   -4.3140   71.8260 C.3   254  TYR254      0.1605
    167  C        -20.4620   -4.4140   73.2760 C.2   254  TYR254      0.2264
    168  O        -21.4720   -3.8490   73.6650 O.2   254  TYR254     -0.2867
    169  CB       -18.8240   -3.4340   71.6670 C.3   254  TYR254      0.0534
    170  CG       -18.8780   -1.9890   72.1780 C.ar  254  TYR254     -0.0201
    171  CD1      -19.3850   -0.9640   71.3910 C.ar  254  TYR254     -0.0009
    172  CD2      -18.3210   -1.6440   73.3990 C.ar  254  TYR254     -0.0009
    173  CE1      -19.3850    0.3420   71.8280 C.ar  254  TYR254      0.0417
    174  CE2      -18.3140   -0.3420   73.8440 C.ar  254  TYR254      0.0417
    175  CZ       -18.8510    0.6470   73.0560 C.ar  254  TYR254      0.1957
    176  OH       -18.8400    1.9280   73.4840 O.3   254  TYR254     -0.2866
    177  N        -15.7460   -6.5140   70.7320 N.3   273  TRP273     -0.1241
    178  CA       -16.4280   -6.5960   69.4420 C.3   273  TRP273      0.1605
    179  C        -15.4790   -7.1840   68.4200 C.2   273  TRP273      0.2264
    180  O        -14.2880   -7.0150   68.5540 O.2   273  TRP273     -0.2867
    181  CB       -16.9330   -5.2460   68.9380 C.3   273  TRP273      0.0550
    182  CG       -15.8980   -4.1570   68.8030 C.ar  273  TRP273      0.0003
    183  CD1      -15.4880   -3.2940   69.7750 C.ar  273  TRP273      0.0946
    184  CD2      -15.1790   -3.7870   67.6170 C.ar  273  TRP273      0.0152
    185  NE1      -14.5300   -2.4210   69.2660 N.ar  273  TRP273     -0.2442
    186  CE2      -14.3200   -2.7250   67.9510 C.ar  273  TRP273      0.0810
    187  CE3      -15.1820   -4.2470   66.3180 C.ar  273  TRP273      0.0012
    188  CZ2      -13.4940   -2.1160   67.0200 C.ar  273  TRP273      0.0191
    189  CZ3      -14.3480   -3.6520   65.4030 C.ar  273  TRP273      0.0001
    190  CH2      -13.5170   -2.6120   65.7550 C.ar  273  TRP273      0.0015
@<TRIPOS>BOND
     1   123   124    1
     2   130   128    1
     3   139   140    1
     4   124   125    1
     5   124   127    1
     6   111   112    1
     7   111   110    1
     8   111   114    1
     9   113   112    2
    10   126   125    2
    11   125   131   am
    12   112   117   am
    13   133   134    2
    14   133   132    1
    15   110   116    1
    16   114   115    1
    17   128   127    1
    18   128   129    1
    19   140   141    1
    20   140   143    1
    21   141   142    2
    22   131   132    1
    23   119   120    2
    24   119   118    1
    25   117   118    1
    26   132   135    1
    27   116   115    1
    28   149   150    1
    29   145   147   ar
    30   145   144   ar
    31   118   121    1
    32   143   144    1
    33   135   136    1
    34   147   148   ar
    35   151   150    1
    36   151   152    2
    37   144   146   ar
    38   150   153    1
    39   105   104    2
    40   121   122    1
    41   148   146   ar
    42   136   137    1
    43   136   138    1
    44   153   154    1
    45   104   103    1
    46   154   155    1
    47   154   156    1
    48    80    79    1
    49   107   108    1
    50   107   106    1
    51   103   102    1
    52   103   106    1
    53    78    77    2
    54    79    76    1
    55   108   109    1
    56    76    77    1
    57    76    75    1
    58    69    68    1
    59   189   190   ar
    60   189   187   ar
    61   162   164    1
    62   162   161    1
    63   157   158    1
    64   190   188   ar
    65    68    67    1
    66   187   184   ar
    67   158   161    1
    68   158   159    1
    69   161   163    1
    70   100    99    2
    71   188   186   ar
    72    65    64    2
    73    67    66    1
    74    99    98    1
    75   184   186   ar
    76   184   182   ar
    77   159   160    2
    78    34    35   ar
    79    34    32   ar
    80    81    82    1
    81    66    63    1
    82   186   185   ar
    83    35    33   ar
    84    87    85    1
    85    64    63    1
    86    64    70   am
    87    63    62    1
    88    73    72    2
    89    14    15    1
    90    14    13    1
    91    82    85    1
    92    82    83    1
    93   179   180    2
    94   179   178    1
    95    32    29   ar
    96    15     9    1
    97   182   181    1
    98   182   183   ar
    99   181   178    1
   100    98    97    1
   101    98   101    1
   102    72    71    1
   103    85    86    1
   104    70    71    1
   105    33    31   ar
   106    71    74    1
   107   185   183   ar
   108    13    10    1
   109    83    84    2
   110    20    17    1
   111    20    21    1
   112   178   177    1
   113    17    16    1
   114    17    18    1
   115    29    31   ar
   116    29    27   ar
   117    31    30   ar
   118     9    10    1
   119     9     3   am
   120     4     3    2
   121    10    11    1
   122    61    59   ar
   123    61    60   ar
   124    22    18   am
   125    22    23    1
   126    50    49    2
   127    18    19    2
   128     3     2    1
   129     7     6   ar
   130    59    57   ar
   131   165   166    1
   132    46    44    1
   133    55    54    2
   134    27    26    1
   135    27    28   ar
   136    12    11    2
   137    26    23    1
   138   171   173   ar
   139   171   170   ar
   140    45    44    1
   141    60    58   ar
   142    30    28   ar
   143    44    43    2
   144   169   166    1
   145   169   170    1
   146     6     8   ar
   147     6     5    1
   148   166   167    1
   149   173   175   ar
   150    23    24    1
   151    49    48    1
   152    49    52   am
   153    88    89    1
   154    53    54    1
   155    53    52    1
   156    53    56    1
   157    57    58   ar
   158    57    56    1
   159    51    48    1
   160   170   172   ar
   161    43    42    1
   162     2     5    1
   163     2     1    1
   164    48    47    1
   165    89    90    1
   166    89    92    1
   167    93    92    1
   168    93    94    1
   169    42    41    1
   170   175   176    1
   171   175   174   ar
   172    25    24    2
   173    96    94   ar
   174   167   168    2
   175   172   174   ar
   176    90    91    2
   177    41    40    1
   178    94    95   ar
   179    40    37    1
   180    36    37    1
   181    37    38    1
   182    38    39    2
