@<TRIPOS>MOLECULE
tmp/4rzqA00.pdb
 175 167 0 0 0
SMALL
GASTEIGER

@<TRIPOS>ATOM
      1  N         19.9690   -2.1180   -9.0010 N.3    10  ASN10      -0.1225
      2  CA        20.7380   -0.8960   -9.2400 C.3    10  ASN10       0.1785
      3  C         21.7930   -1.1770  -10.3340 C.2    10  ASN10       0.2597
      4  O         21.7440   -2.2050  -11.0470 O.2    10  ASN10      -0.2718
      5  CB        21.3480   -0.3680   -7.9260 C.3    10  ASN10       0.1169
      6  CG        21.3890    1.1330   -7.8820 C.2    10  ASN10       0.2627
      7  OD1       22.0280    1.7750   -8.7580 O.2    10  ASN10      -0.2716
      8  ND2       20.7430    1.7040   -6.8870 N.am   10  ASN10      -0.0877
      9  N         22.6960   -0.2380  -10.5360 N.am   11  ARG11      -0.1966
     10  CA        23.6450   -0.3200  -11.6140 C.3    11  ARG11       0.1729
     11  C         24.9690    0.3920  -11.2060 C.2    11  ARG11       0.2617
     12  O         25.1660    0.8810  -10.0570 O.2    11  ARG11      -0.2715
     13  CB        23.0260    0.4170  -12.8610 C.3    11  ARG11       0.0348
     14  CG        22.8450    1.9600  -12.6280 C.3    11  ARG11       0.0492
     15  CD        22.4980    2.7480  -13.8680 C.3    11  ARG11       0.2205
     16  NE        23.3950    2.4920  -14.9800 N.pl3  11  ARG11      -0.0865
     17  CZ        24.5780    3.0500  -15.1610 C.cat  11  ARG11       0.5346
     18  NH1       25.0880    3.8980  -14.2950 N.pl3  11  ARG11       0.1354
     19  NH2       25.2920    2.6980  -16.1830 N.pl3  11  ARG11       0.1354
     20  N         25.9130    0.4250  -12.1290 N.am   12  GLY12      -0.1940
     21  CA        27.1010    1.2490  -11.9540 C.3    12  GLY12       0.2014
     22  C         27.9410    0.8630  -10.7430 C.2    12  GLY12       0.2639
     23  O         28.1150   -0.3150  -10.4430 O.2    12  GLY12      -0.2714
     24  N         28.5930    1.8440  -10.1190 N.am   13  GLU13      -0.1963
     25  CA        29.5200    1.4920   -9.1050 C.3    13  GLU13       0.1733
     26  C         28.8240    0.7910   -7.8970 C.2    13  GLU13       0.2616
     27  O         29.4110   -0.1580   -7.3210 O.2    13  GLU13      -0.2715
     28  CB        30.4040    2.6860   -8.7120 C.3    13  GLU13       0.0429
     29  CG        29.7250    3.7160   -7.7790 C.3    13  GLU13       0.1163
     30  CD        29.7010    3.3220   -6.3210 C.2    13  GLU13       0.3649
     31  OE1       30.4590    2.4020   -5.9200 O.co2  13  GLU13      -0.2457
     32  OE2       28.9670    4.0150   -5.4890 O.co2  13  GLU13      -0.2457
     33  N         27.6490    1.2420   -7.4770 N.am   14  ILE14      -0.1977
     34  CA        27.0860    0.6890   -6.2460 C.3    14  ILE14       0.1596
     35  C         26.6450   -0.7450   -6.5290 C.2    14  ILE14       0.2287
     36  O         26.6580   -1.5950   -5.6250 O.2    14  ILE14      -0.2864
     37  CB        25.9750    1.5610   -5.6780 C.3    14  ILE14       0.0276
     38  CG1       25.5990    1.1300   -4.2610 C.3    14  ILE14       0.0022
     39  CG2       24.6840    1.4940   -6.5520 C.3    14  ILE14       0.0022
     40  CD1       26.7010    1.2630   -3.2450 C.3    14  ILE14       0.0001
     41  N         21.4520    2.9440   -3.7950 N.3    83  TYR83      -0.1227
     42  CA        21.0180    4.2810   -3.5280 C.3    83  TYR83       0.1736
     43  C         20.4310    4.8470   -4.8540 C.2    83  TYR83       0.2596
     44  O         20.6550    4.2850   -5.9500 O.2    83  TYR83      -0.2718
     45  CB        22.1330    5.1190   -3.0420 C.3    83  TYR83       0.0548
     46  CG        23.3690    5.1310   -3.9480 C.ar   83  TYR83      -0.0200
     47  CD1       23.3630    5.7850   -5.2420 C.ar   83  TYR83      -0.0009
     48  CD2       24.5520    4.5990   -3.5070 C.ar   83  TYR83      -0.0009
     49  CE1       24.5200    5.7730   -6.0370 C.ar   83  TYR83       0.0417
     50  CE2       25.7140    4.6400   -4.2920 C.ar   83  TYR83       0.0417
     51  CZ        25.7120    5.2480   -5.5160 C.ar   83  TYR83       0.1957
     52  OH        26.8810    5.2510   -6.2330 O.3    83  TYR83      -0.2866
     53  N         19.6750    5.9070   -4.7180 N.am   84  GLY84      -0.1942
     54  CA        18.9440    6.5260   -5.7990 C.3    84  GLY84       0.2014
     55  C         17.7950    5.5810   -6.1890 C.2    84  GLY84       0.2638
     56  O         17.2900    4.7880   -5.3810 O.2    84  GLY84      -0.2714
     57  N         17.4100    5.6610   -7.4610 N.am   85  PHE85      -0.1973
     58  CA        16.3610    4.8570   -8.0950 C.3    85  PHE85       0.1639
     59  C         15.2160    4.5070   -7.1440 C.2    85  PHE85       0.2290
     60  O         14.6040    5.4060   -6.5730 O.2    85  PHE85      -0.2864
     61  CB        17.0100    3.6210   -8.7360 C.3    85  PHE85       0.0560
     62  CG        17.9070    3.9440   -9.8940 C.ar   85  PHE85      -0.0200
     63  CD1       17.4090    4.5150  -11.0100 C.ar   85  PHE85      -0.0042
     64  CD2       19.2620    3.7130   -9.8430 C.ar   85  PHE85      -0.0042
     65  CE1       18.2000    4.8140  -12.0910 C.ar   85  PHE85      -0.0003
     66  CE2       20.0770    4.0110  -10.9260 C.ar   85  PHE85      -0.0003
     67  CZ        19.5410    4.5580  -12.0630 C.ar   85  PHE85      -0.0000
     68  N         24.6200   19.0210   -4.9130 N.3   213  GLN213     -0.1231
     69  CA        25.2330   17.6840   -5.1300 C.3   213  GLN213      0.1698
     70  C         26.6580   17.6420   -4.5670 C.2   213  GLN213      0.2592
     71  O         27.5030   18.4940   -4.8520 O.2   213  GLN213     -0.2718
     72  CB        25.3120   17.3480   -6.6240 C.3   213  GLN213      0.0381
     73  CG        24.0000   17.5510   -7.4350 C.3   213  GLN213      0.0905
     74  CD        22.7410   16.8350   -6.8910 C.2   213  GLN213      0.2608
     75  OE1       22.8070   15.7790   -6.2540 O.2   213  GLN213     -0.2717
     76  NE2       21.5710   17.4200   -7.1730 N.am  213  GLN213     -0.0878
     77  N         26.9490   16.5870   -3.8400 N.am  214  LYS214     -0.1980
     78  CA        28.2430   16.4410   -3.1420 C.3   214  LYS214      0.1596
     79  C         29.3780   16.1390   -4.0860 C.2   214  LYS214      0.2287
     80  O         29.1790   15.4560   -5.0340 O.2   214  LYS214     -0.2864
     81  CB        28.0830   15.3650   -2.0990 C.3   214  LYS214      0.0298
     82  CG        27.0190   15.6860   -1.0360 C.3   214  LYS214      0.0038
     83  CD        26.7610   14.4100   -0.1980 C.3   214  LYS214      0.0206
     84  CE        25.7410   14.6230    0.9040 C.3   214  LYS214      0.1093
     85  NZ        25.1330   13.3630    1.4940 N.3   214  LYS214     -0.1314
     86  N         21.3900   13.0770    8.4690 N.3   252  GLU252     -0.1245
     87  CA        22.0590   14.2850    7.9730 C.3   252  GLU252      0.1567
     88  C         21.7010   15.4710    8.8020 C.2   252  GLU252      0.2260
     89  O         20.4930   15.7410    9.0150 O.2   252  GLU252     -0.2867
     90  CB        21.6820   14.5460    6.5080 C.3   252  GLU252      0.0388
     91  CG        22.1930   13.5100    5.5190 C.3   252  GLU252      0.1160
     92  CD        21.9560   13.8560    4.0620 C.2   252  GLU252      0.3649
     93  OE1       20.9850   14.5250    3.7880 O.co2 252  GLU252     -0.2457
     94  OE2       22.7330   13.4380    3.1550 O.co2 252  GLU252     -0.2457
     95  N         18.4650    9.4970    5.4230 N.3   266  ASN266     -0.1240
     96  CA        18.4750    8.7360    4.1640 C.3   266  ASN266      0.1653
     97  C         18.3890    7.3520    4.6540 C.2   266  ASN266      0.2266
     98  O         19.2320    6.9220    5.4670 O.2   266  ASN266     -0.2867
     99  CB        19.7810    8.9290    3.3860 C.3   266  ASN266      0.1155
    100  CG        20.1060   10.4100    3.1210 C.2   266  ASN266      0.2627
    101  OD1       21.2100   10.8440    3.4480 O.2   266  ASN266     -0.2716
    102  ND2       19.1580   11.1940    2.6420 N.am  266  ASN266     -0.0877
    103  N         18.8740    4.2190    3.6690 N.3   268  ARG268     -0.1245
    104  CA        19.5480    3.4430    2.6220 C.3   268  ARG268      0.1563
    105  C         21.0510    3.6260    2.8500 C.2   268  ARG268      0.2260
    106  O         21.4590    4.4820    3.6300 O.2   268  ARG268     -0.2867
    107  CB        19.1690    4.0060    1.2270 C.3   268  ARG268      0.0307
    108  CG        19.5080    5.5060    1.0790 C.3   268  ARG268      0.0489
    109  CD        19.3650    5.9810   -0.3750 C.3   268  ARG268      0.2205
    110  NE        19.3960    7.4240   -0.4370 N.pl3 268  ARG268     -0.0865
    111  CZ        20.4920    8.1450   -0.4120 C.cat 268  ARG268      0.5346
    112  NH1       21.6450    7.5380   -0.2690 N.pl3 268  ARG268      0.1354
    113  NH2       20.4210    9.4950   -0.4610 N.pl3 268  ARG268      0.1354
    114  N         24.5360    5.0560    1.5250 N.3   270  GLN270     -0.1231
    115  CA        24.9230    6.2810    0.7480 C.3   270  GLN270      0.1698
    116  C         26.1490    6.1030   -0.1370 C.2   270  GLN270      0.2592
    117  O         26.9870    5.2490    0.1140 O.2   270  GLN270     -0.2718
    118  CB        25.0360    7.4760    1.6920 C.3   270  GLN270      0.0381
    119  CG        23.6840    8.0690    2.1740 C.3   270  GLN270      0.0905
    120  CD        23.9610    9.2780    2.9670 C.2   270  GLN270      0.2608
    121  OE1       24.7860    9.2440    3.8550 O.2   270  GLN270     -0.2717
    122  NE2       23.4400   10.3510    2.5700 N.am  270  GLN270     -0.0878
    123  N         26.2400    6.9360   -1.1820 N.am  271  VAL271     -0.1966
    124  CA        27.3940    6.9990   -2.0530 C.3   271  VAL271      0.1727
    125  C         28.6550    7.0660   -1.2280 C.2   271  VAL271      0.2616
    126  O         29.6130    6.3260   -1.4720 O.2   271  VAL271     -0.2715
    127  CB        27.3260    8.2980   -2.9390 C.3   271  VAL271      0.0290
    128  CG1       28.6420    8.5630   -3.6670 C.3   271  VAL271      0.0023
    129  CG2       26.1910    8.2470   -3.9350 C.3   271  VAL271      0.0023
    130  N         28.6790    7.9100   -0.1950 N.am  272  GLU272     -0.1977
    131  CA        29.9040    8.2330    0.4720 C.3   272  GLU272      0.1602
    132  C         30.2370    7.3000    1.6240 C.2   272  GLU272      0.2287
    133  O         31.1440    7.5670    2.4310 O.2   272  GLU272     -0.2864
    134  CB        29.9490    9.7280    0.9290 C.3   272  GLU272      0.0415
    135  CG        28.9170   10.1290    1.9480 C.3   272  GLU272      0.1163
    136  CD        27.6020   10.5840    1.3380 C.2   272  GLU272      0.3649
    137  OE1       26.8310   11.1950    2.1340 O.co2 272  GLU272     -0.2457
    138  OE2       27.2670   10.2500    0.1310 O.co2 272  GLU272     -0.2457
    139  N         34.3200   12.2150   -5.8660 N.3   314  ARG314     -0.1245
    140  CA        33.3750   11.6220   -6.8200 C.3   314  ARG314      0.1563
    141  C         33.7890   11.9890   -8.2180 C.2   314  ARG314      0.2260
    142  O         33.7490   13.1880   -8.6190 O.2   314  ARG314     -0.2867
    143  CB        31.9730   12.1430   -6.5750 C.3   314  ARG314      0.0307
    144  CG        31.3700   11.8230   -5.2000 C.3   314  ARG314      0.0489
    145  CD        29.8730   12.1760   -5.2310 C.3   314  ARG314      0.2205
    146  NE        29.2660   12.0300   -3.9170 N.pl3 314  ARG314     -0.0865
    147  CZ        27.9520   11.9370   -3.7340 C.cat 314  ARG314      0.5346
    148  NH1       27.1700   11.9990   -4.7840 N.pl3 314  ARG314      0.1354
    149  NH2       27.4620   11.7600   -2.5540 N.pl3 314  ARG314      0.1354
    150  N         33.1430    0.9060  -11.6440 N.3   346  HIS346     -0.1241
    151  CA        32.7870   -0.1230  -12.6360 C.3   346  HIS346      0.1621
    152  C         33.3800    0.1490  -14.0400 C.2   346  HIS346      0.2264
    153  O         33.2770   -0.7060  -14.9630 O.2   346  HIS346     -0.2867
    154  CB        31.2720   -0.1580  -12.7420 C.3   346  HIS346      0.0745
    155  CG        30.6860    1.1460  -13.1660 C.ar  346  HIS346      0.0817
    156  ND1       30.7640    2.2950  -12.4030 N.ar  346  HIS346     -0.2268
    157  CD2       30.0650    1.4950  -14.3010 C.ar  346  HIS346      0.1154
    158  CE1       30.2110    3.2920  -13.0560 C.ar  346  HIS346      0.1986
    159  NE2       29.7370    2.8240  -14.2080 N.ar  346  HIS346     -0.2212
    160  N         23.2460    8.8070  -14.3200 N.3   358  ASP358     -0.1239
    161  CA        24.0660    9.9120  -13.7210 C.3   358  ASP358      0.1674
    162  C         25.4520    9.8970  -14.3600 C.2   358  ASP358      0.2266
    163  O         25.8020    8.9640  -15.1540 O.2   358  ASP358     -0.2867
    164  CB        24.1690    9.6870  -12.2130 C.3   358  ASP358      0.1410
    165  CG        24.6300    8.2840  -11.9160 C.2   358  ASP358      0.3668
    166  OD1       25.8110    8.0450  -11.6340 O.co2 358  ASP358     -0.2456
    167  OD2       23.7890    7.3750  -12.1390 O.co2 358  ASP358     -0.2456
    168  N         28.4390    9.8550  -12.5760 N.3   360  MET360     -0.1245
    169  CA        29.4630    9.2530  -11.7000 C.3   360  MET360      0.1570
    170  C         30.1080    8.0360  -12.3060 C.2   360  MET360      0.2261
    171  O         29.4360    7.0760  -12.6870 O.2   360  MET360     -0.2867
    172  CB        28.9130    8.8490  -10.3520 C.3   360  MET360      0.0387
    173  CG        30.0460    8.1990   -9.5480 C.3   360  MET360      0.0595
    174  SD        29.3570    7.5280   -7.9850 S.3   360  MET360     -0.1393
    175  CE        29.8680    9.0650   -7.2940 C.3   360  MET360      0.0692
@<TRIPOS>BOND
     1    19    17    1
     2    17    16    2
     3    17    18    1
     4   163   162    2
     5    16    15    1
     6   153   152    2
     7   162   161    1
     8   160   161    1
     9   157   159   ar
    10   157   155   ar
    11   159   158   ar
    12   152   151    1
    13    15    14    1
    14   161   164    1
    15   155   154    1
    16   155   156   ar
    17   158   156   ar
    18    13    14    1
    19    13    10    1
    20   154   151    1
    21   171   170    2
    22   151   150    1
    23   168   169    1
    24   170   169    1
    25   164   165    1
    26   167   165   ar
    27    20    21    1
    28    20    11   am
    29    65    67   ar
    30    65    63   ar
    31    67    66   ar
    32    21    22    1
    33   165   166   ar
    34   169   172    1
    35    10    11    1
    36    10     9    1
    37    11    12    2
    38     4     3    2
    39    63    62   ar
    40    66    64   ar
    41    22    23    2
    42    22    24   am
    43     9     3   am
    44   172   173    1
    45     3     2    1
    46    24    25    1
    47    62    64   ar
    48    62    61    1
    49   173   174    1
    50     2     1    1
    51     2     5    1
    52    25    28    1
    53    25    26    1
    54     7     6    2
    55    61    58    1
    56    28    29    1
    57   142   141    2
    58   141   140    1
    59    58    57    1
    60    58    59    1
    61   174   175    1
    62     5     6    1
    63    26    33   am
    64    26    27    2
    65     6     8   am
    66    29    30    1
    67    33    34    1
    68    57    55   am
    69    73    74    1
    70    73    72    1
    71    76    74   am
    72    59    60    2
    73    74    75    2
    74   140   143    1
    75   140   139    1
    76    72    69    1
    77   143   144    1
    78    39    37    1
    79    35    34    1
    80    35    36    2
    81    30    31   ar
    82    30    32   ar
    83    34    37    1
    84    52    51    1
    85    55    54    1
    86    55    56    2
    87    49    51   ar
    88    49    47   ar
    89    44    43    2
    90    54    53    1
    91    37    38    1
    92    51    50   ar
    93    47    46   ar
    94   145   144    1
    95   145   146    1
    96    69    68    1
    97    69    70    1
    98    80    79    2
    99    43    53   am
   100    43    42    1
   101    71    70    2
   102   148   147    1
   103    70    77   am
   104    50    48   ar
   105    38    40    1
   106    79    78    1
   107    46    48   ar
   108    46    45    1
   109   129   127    1
   110   146   147    2
   111    77    78    1
   112    41    42    1
   113   147   149    1
   114   128   127    1
   115    42    45    1
   116    78    81    1
   117   127   124    1
   118    81    82    1
   119   124   125    1
   120   124   123    1
   121   126   125    2
   122   125   130   am
   123   123   116   am
   124    82    83    1
   125   113   111    1
   126   110   111    2
   127   110   109    1
   128   111   112    1
   129   109   108    1
   130    83    84    1
   131   130   131    1
   132   116   117    2
   133   116   115    1
   134   138   136   ar
   135   131   134    1
   136   131   132    1
   137   115   114    1
   138   115   118    1
   139    84    85    1
   140   134   135    1
   141   108   107    1
   142   107   104    1
   143   136   135    1
   144   136   137   ar
   145   132   133    2
   146   118   119    1
   147   119   120    1
   148   122   120   am
   149   104   105    1
   150   104   103    1
   151   102   100   am
   152   105   106    2
   153   120   121    2
   154   100    99    1
   155   100   101    2
   156    94    92   ar
   157    99    96    1
   158    93    92   ar
   159    92    91    1
   160    96    97    1
   161    96    95    1
   162    97    98    2
   163    91    90    1
   164    90    87    1
   165    87    86    1
   166    87    88    1
   167    88    89    2
