@<TRIPOS>MOLECULE
tmp/4rzqA01.pdb
 167 158 0 0 0
SMALL
GASTEIGER

@<TRIPOS>ATOM
      1  N          8.8110   15.3270    5.5070 N.3   117  LYS117     -0.1245
      2  CA         9.6340   16.2100    6.3640 C.3   117  LYS117      0.1561
      3  C          9.0410   16.4980    7.7350 C.2   117  LYS117      0.2260
      4  O          9.7060   16.2990    8.7710 O.2   117  LYS117     -0.2867
      5  CB         9.9880   17.5500    5.6460 C.3   117  LYS117      0.0271
      6  CG        11.3100   17.4820    4.8680 C.3   117  LYS117      0.0035
      7  CD        11.4220   18.3820    3.6140 C.3   117  LYS117      0.0206
      8  CE        12.3410   17.7630    2.5330 C.3   117  LYS117      0.1093
      9  NZ        13.1870   18.7450    1.7650 N.3   117  LYS117     -0.1314
     10  N         16.0130   21.7170   13.7670 N.3   132  VAL132     -0.1245
     11  CA        16.1210   23.1370   13.5720 C.3   132  VAL132      0.1561
     12  C         14.8780   23.8010   14.1920 C.2   132  VAL132      0.2260
     13  O         13.7720   23.3800   13.9050 O.2   132  VAL132     -0.2867
     14  CB        16.1160   23.4830   12.0790 C.3   132  VAL132      0.0252
     15  CG1       16.4660   24.9540   11.8950 C.3   132  VAL132      0.0019
     16  CG2       17.0420   22.5670   11.2580 C.3   132  VAL132      0.0019
     17  N         13.2460   30.4450    6.7710 N.3   153  ILE153     -0.1245
     18  CA        13.0460   29.6940    5.5180 C.3   153  ILE153      0.1561
     19  C         11.6540   29.0940    5.4890 C.2   153  ILE153      0.2260
     20  O         11.3120   28.2020    6.2800 O.2   153  ILE153     -0.2867
     21  CB        14.0280   28.4990    5.2730 C.3   153  ILE153      0.0252
     22  CG1       15.0180   28.3140    6.3990 C.3   153  ILE153      0.0019
     23  CG2       14.7430   28.6600    3.9470 C.3   153  ILE153      0.0019
     24  CD1       14.5210   27.3410    7.4260 C.3   153  ILE153      0.0001
     25  N         10.2120   26.6120    3.6250 N.3   155  LYS155     -0.1245
     26  CA        10.8250   25.5130    2.8290 C.3   155  LYS155      0.1561
     27  C         11.7650   24.6650    3.6960 C.2   155  LYS155      0.2260
     28  O         11.3450   24.0210    4.6450 O.2   155  LYS155     -0.2867
     29  CB        11.6060   26.0400    1.6050 C.3   155  LYS155      0.0271
     30  CG        12.1970   24.9650    0.7220 C.3   155  LYS155      0.0035
     31  CD        11.1350   24.1840   -0.0690 C.3   155  LYS155      0.0206
     32  CE        10.4250   23.1280    0.7850 C.3   155  LYS155      0.1093
     33  NZ        11.4010   22.1810    1.4110 N.3   155  LYS155     -0.1314
     34  N         11.0830   27.6870    9.7000 N.3   177  GLU177     -0.1231
     35  CA        12.2360   27.0910   10.3660 C.3   177  GLU177      0.1699
     36  C         13.3630   28.1570   10.4180 C.2   177  GLU177      0.2592
     37  O         13.3520   29.0860    9.6260 O.2   177  GLU177     -0.2718
     38  CB        12.6090   25.8330    9.5500 C.3   177  GLU177      0.0402
     39  CG        13.9020   25.1170    9.9100 C.3   177  GLU177      0.1161
     40  CD        13.9980   23.6930    9.3480 C.2   177  GLU177      0.3649
     41  OE1       14.9940   23.3750    8.6900 O.co2 177  GLU177     -0.2457
     42  OE2       13.0920   22.8620    9.5730 O.co2 177  GLU177     -0.2457
     43  N         14.3150   28.0500   11.3400 N.am  178  LYS178     -0.1966
     44  CA        15.4820   28.9630   11.3390 C.3   178  LYS178      0.1728
     45  C         16.3080   28.6910   10.0960 C.2   178  LYS178      0.2616
     46  O         16.6260   27.5490    9.8440 O.2   178  LYS178     -0.2715
     47  CB        16.3590   28.7350   12.5810 C.3   178  LYS178      0.0311
     48  CG        17.5680   29.6670   12.7180 C.3   178  LYS178      0.0038
     49  CD        17.3640   30.8080   13.7350 C.3   178  LYS178      0.0206
     50  CE        17.6990   32.1890   13.1540 C.3   178  LYS178      0.1093
     51  NZ        17.1010   33.3060   13.9570 N.3   178  LYS178     -0.1314
     52  N         16.6150   29.7050    9.2960 N.am  179  TYR179     -0.1960
     53  CA        17.5920   29.5370    8.2080 C.3   179  TYR179      0.1771
     54  C         18.9930   29.5970    8.7880 C.2   179  TYR179      0.2619
     55  O         19.3900   30.6020    9.3310 O.2   179  TYR179     -0.2715
     56  CB        17.4440   30.6230    7.1450 C.3   179  TYR179      0.0574
     57  CG        18.4360   30.5270    5.9960 C.ar  179  TYR179     -0.0198
     58  CD1       18.2740   29.5900    4.9620 C.ar  179  TYR179     -0.0009
     59  CD2       19.5390   31.3800    5.9210 C.ar  179  TYR179     -0.0009
     60  CE1       19.1780   29.5180    3.9010 C.ar  179  TYR179      0.0417
     61  CE2       20.4480   31.2950    4.8590 C.ar  179  TYR179      0.0417
     62  CZ        20.2530   30.3620    3.8550 C.ar  179  TYR179      0.1957
     63  OH        21.1560   30.2870    2.8250 O.3   179  TYR179     -0.2866
     64  N         19.7540   28.5260    8.6710 N.am  180  LEU180     -0.1977
     65  CA        21.1350   28.5720    9.1300 C.3   180  LEU180      0.1596
     66  C         21.9770   29.1160    8.0270 C.2   180  LEU180      0.2287
     67  O         21.9150   28.6320    6.9190 O.2   180  LEU180     -0.2864
     68  CB        21.6040   27.2120    9.5380 C.3   180  LEU180      0.0297
     69  CG        20.7500   26.7150   10.6770 C.3   180  LEU180      0.0022
     70  CD1       21.0750   25.2730   10.9400 C.3   180  LEU180      0.0001
     71  CD2       20.9480   27.5920   11.9030 C.3   180  LEU180      0.0001
     72  N         26.2470   26.8560    7.6050 N.3   183  PRO183     -0.2116
     73  CA        26.4630   25.5850    8.2870 C.3   183  PRO183      0.1372
     74  C         27.3480   24.6940    7.4430 C.2   183  PRO183      0.2244
     75  O         27.5710   24.9790    6.2650 O.2   183  PRO183     -0.2868
     76  CB        25.0640   24.9970    8.3380 C.3   183  PRO183      0.0268
     77  CG        24.5050   25.4040    6.9860 C.3   183  PRO183      0.0207
     78  CD        25.0600   26.8010    6.7320 C.3   183  PRO183      0.0892
     79  N         27.7280   20.4240    6.4200 N.3   185  HIS185     -0.1241
     80  CA        26.9300   19.2340    6.3290 C.3   185  HIS185      0.1621
     81  C         27.6770   18.1450    7.0750 C.2   185  HIS185      0.2264
     82  O         28.7310   17.6870    6.6070 O.2   185  HIS185     -0.2867
     83  CB        26.7770   18.8630    4.8520 C.3   185  HIS185      0.0745
     84  CG        26.0060   17.6080    4.6140 C.ar  185  HIS185      0.0817
     85  ND1       24.7780   17.6100    3.9940 N.ar  185  HIS185     -0.2268
     86  CD2       26.2860   16.3090    4.8960 C.ar  185  HIS185      0.1154
     87  CE1       24.3260   16.3700    3.9080 C.ar  185  HIS185      0.1986
     88  NE2       25.2220   15.5610    4.4390 N.ar  185  HIS185     -0.2212
     89  N         29.9750   21.0460   -2.0450 N.3   209  GLN209     -0.1245
     90  CA        28.8470   20.7540   -2.8880 C.3   209  GLN209      0.1566
     91  C         28.6760   21.7910   -3.9620 C.2   209  GLN209      0.2260
     92  O         29.0580   22.9210   -3.7990 O.2   209  GLN209     -0.2867
     93  CB        27.5650   20.8420   -2.0760 C.3   209  GLN209      0.0367
     94  CG        27.5580   19.8980   -0.9210 C.3   209  GLN209      0.0905
     95  CD        26.2730   20.0030   -0.1340 C.2   209  GLN209      0.2608
     96  OE1       25.3300   20.6310   -0.5940 O.2   209  GLN209     -0.2717
     97  NE2       26.2090   19.3220    1.0200 N.am  209  GLN209     -0.0878
     98  N         23.7120   21.6270   -4.6640 N.3   212  HIS212     -0.1241
     99  CA        23.2580   20.6440   -3.6520 C.3   212  HIS212      0.1621
    100  C         23.8210   19.2390   -3.8610 C.2   212  HIS212      0.2264
    101  O         23.5830   18.3610   -3.0400 O.2   212  HIS212     -0.2867
    102  CB        21.7050   20.6600   -3.4740 C.3   212  HIS212      0.0745
    103  CG        21.1610   22.0300   -3.1300 C.ar  212  HIS212      0.0817
    104  ND1       21.1540   22.5360   -1.8400 N.ar  212  HIS212     -0.2268
    105  CD2       20.6900   23.0300   -3.9230 C.ar  212  HIS212      0.1154
    106  CE1       20.6650   23.7640   -1.8500 C.ar  212  HIS212      0.1986
    107  NE2       20.3960   24.0930   -3.1030 N.ar  212  HIS212     -0.2212
    108  N         21.3900   13.0770    8.4690 N.3   252  GLU252     -0.1245
    109  CA        22.0590   14.2850    7.9730 C.3   252  GLU252      0.1567
    110  C         21.7010   15.4710    8.8020 C.2   252  GLU252      0.2260
    111  O         20.4930   15.7410    9.0150 O.2   252  GLU252     -0.2867
    112  CB        21.6820   14.5460    6.5080 C.3   252  GLU252      0.0388
    113  CG        22.1930   13.5100    5.5190 C.3   252  GLU252      0.1160
    114  CD        21.9560   13.8560    4.0620 C.2   252  GLU252      0.3649
    115  OE1       20.9850   14.5250    3.7880 O.co2 252  GLU252     -0.2457
    116  OE2       22.7330   13.4380    3.1550 O.co2 252  GLU252     -0.2457
    117  N         22.6180   19.8120    9.4150 N.3   254  LEU254     -0.1245
    118  CA        23.2700   21.0950    9.2820 C.3   254  LEU254      0.1561
    119  C         23.9270   21.4410   10.6060 C.2   254  LEU254      0.2260
    120  O         23.3190   21.4140   11.6570 O.2   254  LEU254     -0.2867
    121  CB        22.3000   22.1860    8.8660 C.3   254  LEU254      0.0270
    122  CG        21.6520   22.0290    7.4810 C.3   254  LEU254      0.0019
    123  CD1       20.7940   23.2430    7.0910 C.3   254  LEU254      0.0001
    124  CD2       22.6710   21.6650    6.4270 C.3   254  LEU254      0.0001
    125  N         18.1650   17.5100    9.3290 N.3   263  ILE263     -0.1231
    126  CA        17.5060   17.8520    8.0910 C.3   263  ILE263      0.1692
    127  C         17.0320   16.6380    7.2970 C.2   263  ILE263      0.2591
    128  O         16.0660   16.7610    6.5940 O.2   263  ILE263     -0.2718
    129  CB        18.3670   18.7290    7.1490 C.3   263  ILE263      0.0266
    130  CG1       19.7830   18.2080    7.0660 C.3   263  ILE263      0.0019
    131  CG2       18.3410   20.1730    7.5940 C.3   263  ILE263      0.0020
    132  CD1       20.5350   18.7270    5.8710 C.3   263  ILE263      0.0001
    133  N         17.6360   15.4680    7.3910 N.am  264  GLU264     -0.1979
    134  CA        17.0320   14.3250    6.6930 C.3   264  GLU264      0.1602
    135  C         17.6370   13.0200    7.1580 C.2   264  GLU264      0.2287
    136  O         18.7890   12.9920    7.6350 O.2   264  GLU264     -0.2864
    137  CB        17.1850   14.5710    5.1770 C.3   264  GLU264      0.0415
    138  CG        17.4340   13.3790    4.2600 C.3   264  GLU264      0.1163
    139  CD        16.3960   13.2580    3.1480 C.2   264  GLU264      0.3649
    140  OE1       15.2540   13.7080    3.3710 O.co2 264  GLU264     -0.2457
    141  OE2       16.7000   12.6780    2.0780 O.co2 264  GLU264     -0.2457
    142  N         18.4650    9.4970    5.4230 N.3   266  ASN266     -0.1240
    143  CA        18.4750    8.7360    4.1640 C.3   266  ASN266      0.1653
    144  C         18.3890    7.3520    4.6540 C.2   266  ASN266      0.2266
    145  O         19.2320    6.9220    5.4670 O.2   266  ASN266     -0.2867
    146  CB        19.7810    8.9290    3.3860 C.3   266  ASN266      0.1155
    147  CG        20.1060   10.4100    3.1210 C.2   266  ASN266      0.2627
    148  OD1       21.2100   10.8440    3.4480 O.2   266  ASN266     -0.2716
    149  ND2       19.1580   11.1940    2.6420 N.am  266  ASN266     -0.0877
    150  N         28.8210   24.8590    3.4730 N.3   413  ILE413     -0.1231
    151  CA        28.1560   24.3230    2.3150 C.3   413  ILE413      0.1692
    152  C         28.0970   25.2280    1.0960 C.2   413  ILE413      0.2592
    153  O         27.8190   24.7500   -0.0070 O.2   413  ILE413     -0.2718
    154  CB        26.7090   23.8640    2.6260 C.3   413  ILE413      0.0266
    155  CG1       25.8290   24.9720    3.1900 C.3   413  ILE413      0.0019
    156  CG2       26.7240   22.7130    3.6100 C.3   413  ILE413      0.0020
    157  CD1       24.3330   24.6790    3.0030 C.3   413  ILE413      0.0001
    158  N         28.3640   26.5270    1.2930 N.am  414  HIS414     -0.1976
    159  CA        28.3470   27.4680    0.1780 C.3   414  HIS414      0.1656
    160  C         29.7260   27.7020   -0.3980 C.2   414  HIS414      0.2291
    161  O         29.8460   28.4380   -1.3820 O.2   414  HIS414     -0.2864
    162  CB        27.7120   28.8010    0.6220 C.3   414  HIS414      0.0771
    163  CG        26.4440   28.6170    1.3970 C.ar  414  HIS414      0.0820
    164  ND1       25.2740   28.2030    0.8040 N.ar  414  HIS414     -0.2267
    165  CD2       26.1720   28.7450    2.7200 C.ar  414  HIS414      0.1154
    166  CE1       24.3230   28.1200    1.7200 C.ar  414  HIS414      0.1986
    167  NE2       24.8480   28.4220    2.8940 N.ar  414  HIS414     -0.2212
@<TRIPOS>BOND
     1    98    99    1
     2    91    92    2
     3    91    90    1
     4   105   103   ar
     5   105   107   ar
     6   100    99    1
     7   100   101    2
     8    99   102    1
     9   102   103    1
    10   103   104   ar
    11   107   106   ar
    12    90    93    1
    13    90    89    1
    14    93    94    1
    15   106   104   ar
    16   161   160    2
    17    94    95    1
    18    96    95    2
    19   160   159    1
    20    95    97   am
    21    31    30    1
    22    31    32    1
    23   153   152    2
    24   159   162    1
    25   159   158    1
    26   162   163    1
    27    30    29    1
    28    32    33    1
    29   164   163   ar
    30   164   166   ar
    31   152   158   am
    32   152   151    1
    33   163   165   ar
    34    29    26    1
    35   166   167   ar
    36     9     8    1
    37   141   139   ar
    38   151   154    1
    39   151   150    1
    40     8     7    1
    41   154   155    1
    42   154   156    1
    43   149   147   am
    44   165   167   ar
    45    63    62    1
    46    26    25    1
    47    26    27    1
    48   157   155    1
    49   147   146    1
    50   147   148    2
    51   139   140   ar
    52   139   138    1
    53   116   114   ar
    54   146   143    1
    55     7     6    1
    56    27    28    2
    57   115   114   ar
    58    62    60   ar
    59    62    61   ar
    60    60    58   ar
    61    87    85   ar
    62    87    88   ar
    63    23    21    1
    64    85    84   ar
    65   114   113    1
    66   143   144    1
    67   143   142    1
    68   138   137    1
    69    88    86   ar
    70    84    83    1
    71    84    86   ar
    72   144   145    2
    73    83    80    1
    74    61    59   ar
    75     6     5    1
    76    58    57   ar
    77   137   134    1
    78    21    18    1
    79    21    22    1
    80    19    18    1
    81    19    20    2
    82     1     2    1
    83    18    17    1
    84   113   112    1
    85     5     2    1
    86   132   130    1
    87    59    57   ar
    88    57    56    1
    89    75    74    2
    90    80    79    1
    91    80    81    1
    92     2     3    1
    93    22    24    1
    94   124   122    1
    95   112   109    1
    96   128   127    2
    97    82    81    2
    98   134   135    1
    99   134   133    1
   100    78    77    1
   101    78    72    1
   102    67    66    2
   103    77    76    1
   104   130   129    1
   105   123   122    1
   106    56    53    1
   107   129   131    1
   108   129   126    1
   109   135   136    2
   110   127   133   am
   111   127   126    1
   112    74    73    1
   113   122   121    1
   114    72    73    1
   115     3     4    2
   116   109   108    1
   117   109   110    1
   118    66    65    1
   119   126   125    1
   120    53    54    1
   121    53    52    1
   122    73    76    1
   123    64    54   am
   124    64    65    1
   125    41    40   ar
   126    54    55    2
   127   110   111    2
   128   121   118    1
   129    65    68    1
   130   118   117    1
   131   118   119    1
   132    52    45   am
   133    40    42   ar
   134    40    39    1
   135    68    69    1
   136    38    39    1
   137    38    35    1
   138    37    36    2
   139    34    35    1
   140    46    45    2
   141    45    44    1
   142    35    36    1
   143    36    43   am
   144   119   120    2
   145    69    70    1
   146    69    71    1
   147    16    14    1
   148    44    43    1
   149    44    47    1
   150    15    14    1
   151    14    11    1
   152    47    48    1
   153    48    49    1
   154    50    49    1
   155    50    51    1
   156    11    10    1
   157    11    12    1
   158    13    12    2
