@<TRIPOS>MOLECULE
tmp/4rztC00.pdb
 188 178 0 0 0
SMALL
GASTEIGER

@<TRIPOS>ATOM
      1  N        -42.8560    5.1620  131.1130 N.3    10  SER10      -0.1217
      2  CA       -41.7360    4.2900  130.7330 C.3    10  SER10       0.1889
      3  C        -42.1890    2.8790  130.9550 C.2    10  SER10       0.2288
      4  O        -42.7210    2.5600  132.0220 O.2    10  SER10      -0.2866
      5  CB       -40.4500    4.5670  131.5560 C.3    10  SER10       0.2089
      6  OG       -40.5560    4.1420  132.9100 O.3    10  SER10      -0.2183
      7  N        -39.5900    0.3820  136.8390 N.3    14  LEU14      -0.1245
      8  CA       -38.8620    0.9630  137.9680 C.3    14  LEU14       0.1561
      9  C        -39.8570    1.3260  139.0520 C.2    14  LEU14       0.2260
     10  O        -41.0600    1.4130  138.7960 O.2    14  LEU14      -0.2867
     11  CB       -38.0990    2.1930  137.5350 C.3    14  LEU14       0.0270
     12  CG       -36.9200    1.8730  136.6320 C.3    14  LEU14       0.0019
     13  CD1      -36.7100    3.0550  135.6950 C.3    14  LEU14       0.0001
     14  CD2      -35.6740    1.5510  137.4460 C.3    14  LEU14       0.0001
     15  N        -40.1820    4.2270  141.1680 N.3    16  ALA16      -0.1231
     16  CA       -40.8110    5.5470  141.2290 C.3    16  ALA16       0.1679
     17  C        -41.9040    5.6720  140.1950 C.2    16  ALA16       0.2434
     18  O        -43.0290    5.9910  140.5360 O.2    16  ALA16      -0.2733
     19  CB       -39.7940    6.6670  141.1090 C.3    16  ALA16       0.0304
     20  N        -41.5980    5.3910  138.9340 N.am   17  PRO17      -0.2729
     21  CA       -42.6820    5.4900  137.9660 C.3    17  PRO17       0.1401
     22  C        -43.9000    4.6530  138.3370 C.2    17  PRO17       0.2269
     23  O        -45.0270    5.0830  138.1130 O.2    17  PRO17      -0.2865
     24  CB       -42.0360    4.9880  136.6780 C.3    17  PRO17       0.0296
     25  CG       -40.5830    5.3160  136.8460 C.3    17  PRO17       0.0237
     26  CD       -40.3140    5.0610  138.2950 C.3    17  PRO17       0.0939
     27  N        -45.7340    6.5980  140.9620 N.3    20  ILE20      -0.1245
     28  CA       -46.3140    7.7910  140.4130 C.3    20  ILE20       0.1561
     29  C        -47.6220    7.4660  139.7420 C.2    20  ILE20       0.2260
     30  O        -48.6140    8.1870  139.9030 O.2    20  ILE20      -0.2867
     31  CB       -45.3550    8.4500  139.4280 C.3    20  ILE20       0.0252
     32  CG1      -44.2370    9.1100  140.2280 C.3    20  ILE20       0.0019
     33  CG2      -46.0700    9.5060  138.6050 C.3    20  ILE20       0.0019
     34  CD1      -43.0720    9.6030  139.4120 C.3    20  ILE20       0.0001
     35  N        -45.6520   10.8930  131.6340 N.3    66  ASN66      -0.1225
     36  CA       -44.7410   10.4600  132.6710 C.3    66  ASN66       0.1785
     37  C        -43.5710    9.6720  132.0880 C.2    66  ASN66       0.2597
     38  O        -43.4090    8.4740  132.3000 O.2    66  ASN66      -0.2718
     39  CB       -45.5110    9.6740  133.7280 C.3    66  ASN66       0.1169
     40  CG       -44.6240    9.1680  134.8540 C.2    66  ASN66       0.2627
     41  OD1      -44.7100    8.0000  135.2400 O.2    66  ASN66      -0.2716
     42  ND2      -43.7640   10.0340  135.3860 N.am   66  ASN66      -0.0877
     43  N        -42.7430   10.3770  131.3390 N.am   67  TYR67      -0.1963
     44  CA       -41.5950    9.7910  130.6590 C.3    67  TYR67       0.1756
     45  C        -40.5950   10.9120  130.5960 C.2    67  TYR67       0.2461
     46  O        -40.9920   12.0550  130.4060 O.2    67  TYR67      -0.2730
     47  CB       -41.9900    9.3340  129.2360 C.3    67  TYR67       0.0574
     48  CG       -40.9160    8.5410  128.4950 C.ar   67  TYR67      -0.0198
     49  CD1      -40.7500    7.1850  128.7080 C.ar   67  TYR67      -0.0009
     50  CD2      -40.0790    9.1550  127.5690 C.ar   67  TYR67      -0.0009
     51  CE1      -39.7750    6.4630  128.0340 C.ar   67  TYR67       0.0417
     52  CE2      -39.1030    8.4390  126.8900 C.ar   67  TYR67       0.0417
     53  CZ       -38.9600    7.0950  127.1280 C.ar   67  TYR67       0.1957
     54  OH       -37.9940    6.3980  126.4700 O.3    67  TYR67      -0.2866
     55  N        -39.3050   10.6180  130.7290 N.am   68  PRO68      -0.2727
     56  CA       -38.3270   11.6980  130.7920 C.3    68  PRO68       0.1402
     57  C        -37.8480   12.1190  129.4020 C.2    68  PRO68       0.2269
     58  O        -37.2850   11.3020  128.6760 O.2    68  PRO68      -0.2865
     59  CB       -37.1740   11.0610  131.5630 C.3    68  PRO68       0.0296
     60  CG       -37.2700    9.5970  131.2410 C.3    68  PRO68       0.0237
     61  CD       -38.6350    9.3190  130.6370 C.3    68  PRO68       0.0939
     62  N        -44.4680   15.6070  133.1280 N.3    89  LEU89      -0.1231
     63  CA       -43.7450   15.4180  134.3870 C.3    89  LEU89       0.1693
     64  C        -42.2570   15.2920  134.1340 C.2    89  LEU89       0.2592
     65  O        -41.5510   14.6290  134.8910 O.2    89  LEU89      -0.2718
     66  CB       -44.2540   14.1990  135.1350 C.3    89  LEU89       0.0284
     67  CG       -45.7750   14.1370  135.2310 C.3    89  LEU89       0.0019
     68  CD1      -46.1760   13.0240  136.1830 C.3    89  LEU89       0.0001
     69  CD2      -46.3880   15.4520  135.6910 C.3    89  LEU89       0.0001
     70  N        -41.8000   15.9480  133.0700 N.am   90  THR90      -0.1953
     71  CA       -40.4100   16.3370  132.9220 C.3    90  THR90       0.1897
     72  C        -40.3700   17.8140  132.6510 C.2    90  THR90       0.2313
     73  O        -41.3620   18.4080  132.2590 O.2    90  THR90      -0.2863
     74  CB       -39.7220   15.6780  131.7130 C.3    90  THR90       0.1794
     75  OG1      -40.4420   14.5020  131.3260 O.3    90  THR90      -0.2208
     76  CG2      -38.2580   15.3440  132.0540 C.3    90  THR90       0.0378
     77  N        -42.5840   19.2800  138.0850 N.3   101  ILE101     -0.1231
     78  CA       -41.5110   18.4130  138.5250 C.3   101  ILE101      0.1692
     79  C        -41.0700   18.8620  139.9050 C.2   101  ILE101      0.2592
     80  O        -41.4060   19.9530  140.3350 O.2   101  ILE101     -0.2718
     81  CB       -40.3170   18.4340  137.5610 C.3   101  ILE101      0.0266
     82  CG1      -40.0110   19.8820  137.1330 C.3   101  ILE101      0.0019
     83  CG2      -40.5910   17.5230  136.3720 C.3   101  ILE101      0.0020
     84  CD1      -38.5440   20.1410  136.8520 C.3   101  ILE101      0.0001
     85  N        -40.3180   18.0080  140.5910 N.am  102  PHE102     -0.1976
     86  CA       -39.7710   18.3520  141.8820 C.3   102  PHE102      0.1639
     87  C        -38.5950   19.2550  141.6860 C.2   102  PHE102      0.2290
     88  O        -37.9580   19.2300  140.6330 O.2   102  PHE102     -0.2864
     89  CB       -39.2900   17.1190  142.5910 C.3   102  PHE102      0.0560
     90  CG       -40.3900   16.2050  142.9770 C.ar  102  PHE102     -0.0200
     91  CD1      -41.1210   16.4480  144.1200 C.ar  102  PHE102     -0.0042
     92  CD2      -40.7110   15.1250  142.1840 C.ar  102  PHE102     -0.0042
     93  CE1      -42.1460   15.6130  144.4830 C.ar  102  PHE102     -0.0003
     94  CE2      -41.7390   14.2880  142.5330 C.ar  102  PHE102     -0.0003
     95  CZ       -42.4620   14.5330  143.6850 C.ar  102  PHE102     -0.0000
     96  N        -33.3850   13.5970  133.7600 N.3   134  ASP134     -0.1239
     97  CA       -33.4360   13.4200  135.2140 C.3   134  ASP134      0.1674
     98  C        -32.0370   13.4800  135.7270 C.2   134  ASP134      0.2266
     99  O        -31.6490   14.3970  136.4500 O.2   134  ASP134     -0.2867
    100  CB       -33.9540   12.0320  135.6150 C.3   134  ASP134      0.1410
    101  CG       -35.3290   11.7410  135.1110 C.2   134  ASP134      0.3668
    102  OD1      -36.0340   12.7110  134.7430 O.co2 134  ASP134     -0.2456
    103  OD2      -35.6920   10.5330  135.0770 O.co2 134  ASP134     -0.2456
    104  N        -29.7260   16.1780  138.1800 N.3   138  ARG138     -0.1245
    105  CA       -29.3480   15.8480  139.5140 C.3   138  ARG138      0.1563
    106  C        -27.8330   15.8370  139.6330 C.2   138  ARG138      0.2260
    107  O        -27.2840   16.3520  140.6020 O.2   138  ARG138     -0.2867
    108  CB       -29.9570   14.5280  139.9050 C.3   138  ARG138      0.0307
    109  CG       -31.4670   14.6190  140.0520 C.3   138  ARG138      0.0489
    110  CD       -32.0290   13.2810  140.4730 C.3   138  ARG138      0.2205
    111  NE       -33.4690   13.2470  140.3620 N.pl3 138  ARG138     -0.0865
    112  CZ       -34.1900   12.1480  140.5090 C.cat 138  ARG138      0.5346
    113  NH1      -33.6020   10.9870  140.7790 N.pl3 138  ARG138      0.1354
    114  NH2      -35.5090   12.2050  140.3830 N.pl3 138  ARG138      0.1354
    115  N        -30.3390    3.2860  136.8790 N.3   161  TRP161     -0.1241
    116  CA       -31.4960    3.2280  137.8010 C.3   161  TRP161      0.1605
    117  C        -31.6510    1.8840  138.4980 C.2   161  TRP161      0.2264
    118  O        -32.3700    1.7860  139.4900 O.2   161  TRP161     -0.2867
    119  CB       -32.8290    3.5470  137.1070 C.3   161  TRP161      0.0550
    120  CG       -32.9210    4.8430  136.3750 C.ar  161  TRP161      0.0003
    121  CD1      -33.2320    5.0060  135.0760 C.ar  161  TRP161      0.0946
    122  CD2      -32.7520    6.1610  136.9140 C.ar  161  TRP161      0.0152
    123  NE1      -33.2660    6.3390  134.7570 N.ar  161  TRP161     -0.2442
    124  CE2      -32.9850    7.0660  135.8770 C.ar  161  TRP161      0.0810
    125  CE3      -32.4240    6.6620  138.1770 C.ar  161  TRP161      0.0012
    126  CZ2      -32.8960    8.4330  136.0540 C.ar  161  TRP161      0.0191
    127  CZ3      -32.3390    8.0340  138.3560 C.ar  161  TRP161      0.0001
    128  CH2      -32.5750    8.8930  137.3070 C.ar  161  TRP161      0.0015
    129  N        -30.8490    7.4730  142.7510 N.3   187  ASN187     -0.1240
    130  CA       -32.1640    6.9210  143.0710 C.3   187  ASN187      0.1653
    131  C        -32.0490    5.7710  144.0760 C.2   187  ASN187      0.2266
    132  O        -30.9670    5.2200  144.2720 O.2   187  ASN187     -0.2867
    133  CB       -32.9230    6.4960  141.8170 C.3   187  ASN187      0.1155
    134  CG       -32.5730    5.0860  141.3630 C.2   187  ASN187      0.2627
    135  OD1      -31.4370    4.6500  141.5140 O.2   187  ASN187     -0.2716
    136  ND2      -33.5410    4.3840  140.7590 N.am  187  ASN187     -0.0877
    137  N        -32.9240    2.6360  144.2430 N.3   189  GLN189     -0.1245
    138  CA       -32.5450    1.2940  143.8350 C.3   189  GLN189      0.1566
    139  C        -31.0270    1.1830  143.6670 C.2   189  GLN189      0.2260
    140  O        -30.3950    0.2400  144.1600 O.2   189  GLN189     -0.2867
    141  CB       -33.2960    0.8930  142.5640 C.3   189  GLN189      0.0367
    142  CG       -34.7680    0.6100  142.8500 C.3   189  GLN189      0.0905
    143  CD       -35.6440    0.4850  141.6070 C.2   189  GLN189      0.2608
    144  OE1      -36.2810    1.4520  141.1550 O.2   189  GLN189     -0.2717
    145  NE2      -35.7170   -0.7260  141.0810 N.am  189  GLN189     -0.0878
    146  N        -35.3850    9.6590  146.2840 N.3   215  ASP215     -0.1239
    147  CA       -36.7670    9.3230  145.9040 C.3   215  ASP215      0.1674
    148  C        -37.5970    9.0040  147.1570 C.2   215  ASP215      0.2266
    149  O        -38.7830    9.3690  147.2600 O.2   215  ASP215     -0.2867
    150  CB       -36.8850    8.1080  144.9300 C.3   215  ASP215      0.1410
    151  CG       -36.7390    8.4750  143.4330 C.2   215  ASP215      0.3668
    152  OD1      -36.7340    9.6640  143.0790 O.co2 215  ASP215     -0.2456
    153  OD2      -36.6220    7.5400  142.6110 O.co2 215  ASP215     -0.2456
    154  N        -38.5870    5.8270  147.8640 N.3   217  THR217     -0.1218
    155  CA       -39.5460    4.8560  147.3910 C.3   217  THR217      0.1862
    156  C        -39.8640    3.9430  148.5610 C.2   217  THR217      0.2287
    157  O        -39.1540    3.9570  149.5750 O.2   217  THR217     -0.2866
    158  CB       -38.9550    4.0550  146.2170 C.3   217  THR217      0.1770
    159  OG1      -37.5980    3.6970  146.5190 O.3   217  THR217     -0.2211
    160  CG2      -38.9940    4.8750  144.9420 C.3   217  THR217      0.0375
    161  N        -39.1000   12.5090  147.5630 N.3   232  GLN232     -0.1245
    162  CA       -40.0050   13.1470  146.6240 C.3   232  GLN232      0.1566
    163  C        -41.3760   12.4970  146.8560 C.2   232  GLN232      0.2260
    164  O        -41.5080   11.2560  146.8180 O.2   232  GLN232     -0.2867
    165  CB       -39.5060   12.9570  145.1810 C.3   232  GLN232      0.0367
    166  CG       -38.0150   13.2530  145.0240 C.3   232  GLN232      0.0905
    167  CD       -37.6250   13.7050  143.6300 C.2   232  GLN232      0.2608
    168  OE1      -37.2110   14.8550  143.4360 O.2   232  GLN232     -0.2717
    169  NE2      -37.7430   12.8030  142.6520 N.am  232  GLN232     -0.0878
    170  N        -44.4870   11.3000  145.7520 N.3   234  PHE234     -0.1241
    171  CA       -45.1760   10.9620  144.5090 C.3   234  PHE234      0.1605
    172  C        -46.6820   10.9920  144.7190 C.2   234  PHE234      0.2264
    173  O        -47.4130   11.4210  143.8330 O.2   234  PHE234     -0.2867
    174  CB       -44.6670    9.6140  143.9760 C.3   234  PHE234      0.0534
    175  CG       -43.1540    9.5670  143.8050 C.ar  234  PHE234     -0.0203
    176  CD1      -42.5220   10.3860  142.8900 C.ar  234  PHE234     -0.0042
    177  CD2      -42.3720    8.7380  144.5800 C.ar  234  PHE234     -0.0042
    178  CE1      -41.1440   10.3620  142.7360 C.ar  234  PHE234     -0.0003
    179  CE2      -40.9930    8.7050  144.4250 C.ar  234  PHE234     -0.0003
    180  CZ       -40.3770    9.5200  143.5040 C.ar  234  PHE234     -0.0000
    181  N        -47.3890   14.5020  143.8520 N.3   237  LEU237     -0.1245
    182  CA       -47.2550   14.7330  142.4060 C.3   237  LEU237      0.1561
    183  C        -48.4490   14.1790  141.6120 C.2   237  LEU237      0.2260
    184  O        -48.9790   14.8520  140.7350 O.2   237  LEU237     -0.2867
    185  CB       -45.9320   14.1350  141.9220 C.3   237  LEU237      0.0270
    186  CG       -45.6790   13.9510  140.4250 C.3   237  LEU237      0.0019
    187  CD1      -45.9440   15.2020  139.6020 C.3   237  LEU237      0.0001
    188  CD2      -44.2340   13.5010  140.2230 C.3   237  LEU237      0.0001
@<TRIPOS>BOND
     1    54    53    1
     2    52    53   ar
     3    52    50   ar
     4    53    51   ar
     5    50    48   ar
     6    51    49   ar
     7    48    49   ar
     8    48    47    1
     9    58    57    2
    10    47    44    1
    11    57    56    1
    12    46    45    2
    13    45    44    1
    14    45    55   am
    15    61    55    1
    16    61    60    1
    17    44    43    1
    18    55    56    1
    19     2     3    1
    20     2     1    1
    21     2     5    1
    22    56    59    1
    23     3     4    2
    24    60    59    1
    25    75    74    1
    26    43    37   am
    27     5     6    1
    28    35    36    1
    29    74    76    1
    30    74    71    1
    31    37    38    2
    32    37    36    1
    33    73    72    2
    34    72    71    1
    35    36    39    1
    36    71    70    1
    37    70    64   am
    38    62    63    1
    39    39    40    1
    40    96    97    1
    41    64    63    1
    42    64    65    2
    43    63    66    1
    44   102   101   ar
    45   123   121   ar
    46   123   124   ar
    47    40    41    2
    48    40    42   am
    49   121   120   ar
    50   103   101   ar
    51   101   100    1
    52    66    67    1
    53    97   100    1
    54    97    98    1
    55    67    69    1
    56    67    68    1
    57    13    12    1
    58    98    99    2
    59   124   126   ar
    60   124   122   ar
    61   126   128   ar
    62    83    81    1
    63   120   122   ar
    64   120   119    1
    65    12    14    1
    66    12    11    1
    67    24    25    1
    68    24    21    1
    69     7     8    1
    70    25    26    1
    71    84    82    1
    72   115   116    1
    73   122   125   ar
    74   119   116    1
    75    82    81    1
    76   128   127   ar
    77    11     8    1
    78    81    78    1
    79   116   117    1
    80    21    22    1
    81    21    20    1
    82     8     9    1
    83    77    78    1
    84    23    22    2
    85   125   127   ar
    86   104   105    1
    87    26    20    1
    88   117   118    2
    89    78    79    1
    90    33    31    1
    91    10     9    2
    92    20    17   am
    93    34    32    1
    94    31    32    1
    95    31    28    1
    96   105   106    1
    97   105   108    1
    98   187   186    1
    99   106   107    2
   100    29    30    2
   101    29    28    1
   102   108   109    1
   103    79    80    2
   104    79    85   am
   105   109   110    1
   106    17    18    2
   107    17    16    1
   108   188   186    1
   109   111   110    1
   110   111   112    2
   111   114   112    1
   112    28    27    1
   113   186   185    1
   114   112   113    1
   115    85    86    1
   116    88    87    2
   117   184   183    2
   118   136   134   am
   119   145   143   am
   120    19    16    1
   121   144   143    2
   122    15    16    1
   123   134   135    2
   124   134   133    1
   125   143   142    1
   126   183   182    1
   127    87    86    1
   128   133   130    1
   129    86    89    1
   130   185   182    1
   131    92    94   ar
   132    92    90   ar
   133   182   181    1
   134    94    95   ar
   135   141   142    1
   136   141   138    1
   137    89    90    1
   138   153   151   ar
   139   169   167   am
   140   178   176   ar
   141   178   180   ar
   142   129   130    1
   143   176   175   ar
   144    90    91   ar
   145   130   131    1
   146   152   151   ar
   147   151   150    1
   148   168   167    2
   149   180   179   ar
   150   167   166    1
   151   139   138    1
   152   139   140    2
   153    95    93   ar
   154   175   174    1
   155   175   177   ar
   156   173   172    2
   157   138   137    1
   158   174   171    1
   159   131   132    2
   160    91    93   ar
   161   179   177   ar
   162   171   172    1
   163   171   170    1
   164   150   147    1
   165   160   158    1
   166   166   165    1
   167   165   162    1
   168   147   146    1
   169   147   148    1
   170   158   159    1
   171   158   155    1
   172   162   163    1
   173   162   161    1
   174   164   163    2
   175   148   149    2
   176   155   154    1
   177   155   156    1
   178   156   157    2
