@<TRIPOS>MOLECULE
tmp/4rzuA00.pdb
 130 125 0 0 0
SMALL
GASTEIGER

@<TRIPOS>ATOM
      1  N          5.5100    0.3100    3.7110 N.3    11  ASP11      -0.1225
      2  CA         4.6700    1.4270    3.2810 C.3    11  ASP11       0.1805
      3  C          3.4580    1.6290    4.1850 C.2    11  ASP11       0.2598
      4  O          2.7270    0.6860    4.4990 O.2    11  ASP11      -0.2718
      5  CB         4.2190    1.2650    1.8250 C.3    11  ASP11       0.1424
      6  CG         5.1790    1.9290    0.8480 C.2    11  ASP11       0.3668
      7  OD1        6.3870    2.1480    1.1870 O.co2  11  ASP11      -0.2456
      8  OD2        4.7130    2.2550   -0.2630 O.co2  11  ASP11      -0.2456
      9  N          3.2720    2.8780    4.6010 N.am   12  GLY12      -0.1942
     10  CA         2.2730    3.2290    5.6000 C.3    12  GLY12       0.2014
     11  C          2.7770    3.2410    7.0350 C.2    12  GLY12       0.2640
     12  O          1.9900    3.5110    7.9610 O.2    12  GLY12      -0.2714
     13  N          4.0670    2.9690    7.2490 N.am   13  SER13      -0.1935
     14  CA         4.5630    2.8300    8.6360 C.3    13  SER13       0.2055
     15  C          4.7890    4.1780    9.2510 C.2    13  SER13       0.2644
     16  O          4.6690    4.3220   10.4590 O.2    13  SER13      -0.2714
     17  CB         5.8540    2.0020    8.7170 C.3    13  SER13       0.2130
     18  OG         6.7710    2.3920    7.7220 O.3    13  SER13      -0.2179
     19  N          5.1080    5.1550    8.4100 N.am   14  GLY14      -0.1939
     20  CA         5.2420    6.5290    8.8430 C.3    14  GLY14       0.2014
     21  C          6.5220    7.2010    8.4210 C.2    14  GLY14       0.2639
     22  O          6.8240    8.3020    8.8800 O.2    14  GLY14      -0.2714
     23  N          7.2890    6.5500    7.5540 N.am   15  LYS15      -0.1963
     24  CA         8.6610    6.9530    7.3060 C.3    15  LYS15       0.1728
     25  C          8.7100    8.4150    6.9630 C.2    15  LYS15       0.2617
     26  O          9.3410    9.2220    7.6520 O.2    15  LYS15      -0.2715
     27  CB         9.2390    6.1190    6.1610 C.3    15  LYS15       0.0311
     28  CG         9.4440    4.6550    6.5220 C.3    15  LYS15       0.0038
     29  CD        10.0690    3.8540    5.3900 C.3    15  LYS15       0.0206
     30  CE         9.1540    3.7850    4.1730 C.3    15  LYS15       0.1093
     31  NZ         7.7390    3.4150    4.4740 N.3    15  LYS15      -0.1314
     32  N          7.9920    8.7470    5.9000 N.am   16  SER16      -0.1936
     33  CA         8.0640   10.0600    5.3090 C.3    16  SER16       0.2055
     34  C          7.5940   11.1100    6.3370 C.2    16  SER16       0.2644
     35  O          8.1120   12.2190    6.3720 O.2    16  SER16      -0.2714
     36  CB         7.2380   10.1130    4.0130 C.3    16  SER16       0.2130
     37  OG         7.5920    9.0880    3.0970 O.3    16  SER16      -0.2179
     38  N          6.6360   10.7510    7.1800 N.am   17  SER17      -0.1935
     39  CA         6.1650   11.6490    8.2050 C.3    17  SER17       0.2055
     40  C          7.2610   12.0030    9.1930 C.2    17  SER17       0.2642
     41  O          7.4810   13.1840    9.4730 O.2    17  SER17      -0.2714
     42  CB         5.0060   11.0230    8.9640 C.3    17  SER17       0.2130
     43  OG         3.9060   10.8140    8.1090 O.3    17  SER17      -0.2179
     44  N          7.9380   10.9860    9.7170 N.am   18  GLN18      -0.1976
     45  CA         8.9880   11.1870   10.6950 C.3    18  GLN18       0.1601
     46  C         10.2190   11.8380   10.1040 C.2    18  GLN18       0.2287
     47  O         10.9010   12.5960   10.7870 O.2    18  GLN18      -0.2864
     48  CB         9.3930    9.8640   11.3330 C.3    18  GLN18       0.0394
     49  CG         8.3300    9.2760   12.2310 C.3    18  GLN18       0.0908
     50  CD         7.8810   10.2360   13.3280 C.2    18  GLN18       0.2608
     51  OE1        8.6760   11.0210   13.8460 O.2    18  GLN18      -0.2717
     52  NE2        6.5880   10.1760   13.6870 N.am   18  GLN18      -0.0878
     53  N         -4.2870    2.7720    7.9020 N.3   136  ARG136     -0.1231
     54  CA        -3.9620    4.1920    7.7210 C.3   136  ARG136      0.1694
     55  C         -4.1050    4.6410    6.2860 C.2   136  ARG136      0.2591
     56  O         -4.5600    5.7500    6.0300 O.2   136  ARG136     -0.2718
     57  CB        -2.5380    4.4890    8.1360 C.3   136  ARG136      0.0321
     58  CG        -2.2520    4.2480    9.6010 C.3   136  ARG136      0.0489
     59  CD        -0.7470    4.1920    9.7860 C.3   136  ARG136      0.2205
     60  NE        -0.3270    3.9140   11.1620 N.pl3 136  ARG136     -0.0865
     61  CZ         0.8950    4.1490   11.6180 C.cat 136  ARG136      0.5346
     62  NH1        1.8170    4.6770   10.8210 N.pl3 136  ARG136      0.1354
     63  NH2        1.1990    3.8660   12.8640 N.pl3 136  ARG136      0.1354
     64  N         -3.6990    3.7970    5.3480 N.am  137  ILE137     -0.1980
     65  CA        -3.8850    4.1190    3.9410 C.3   137  ILE137      0.1595
     66  C         -5.3770    4.2300    3.6340 C.2   137  ILE137      0.2287
     67  O         -5.7930    5.1300    2.9150 O.2   137  ILE137     -0.2864
     68  CB        -3.2190    3.0890    3.0110 C.3   137  ILE137      0.0276
     69  CG1       -1.7160    3.3650    2.8710 C.3   137  ILE137      0.0022
     70  CG2       -3.8240    3.1670    1.6210 C.3   137  ILE137      0.0022
     71  CD1       -0.9170    3.4260    4.1570 C.3   137  ILE137      0.0001
     72  N         -6.4860    7.2930    5.0080 N.3   140  SER140     -0.1217
     73  CA        -5.8670    8.2740    4.1160 C.3   140  SER140      0.1889
     74  C         -6.6430    8.4470    2.8120 C.2   140  SER140      0.2288
     75  O         -6.3070    9.3110    2.0070 O.2   140  SER140     -0.2866
     76  CB        -4.4060    7.8720    3.8100 C.3   140  SER140      0.2089
     77  OG        -3.9360    8.3970    2.5760 O.3   140  SER140     -0.2183
     78  N         -6.3950    6.8740    0.2940 N.3   142  ARG142     -0.1245
     79  CA        -5.4080    6.7820   -0.7770 C.3   142  ARG142      0.1563
     80  C         -5.4620    5.4340   -1.5030 C.2   142  ARG142      0.2260
     81  O         -5.8800    4.4230   -0.9290 O.2   142  ARG142     -0.2867
     82  CB        -4.0080    7.0270   -0.2110 C.3   142  ARG142      0.0307
     83  CG        -2.9170    7.1000   -1.2650 C.3   142  ARG142      0.0489
     84  CD        -1.6140    7.6710   -0.7240 C.3   142  ARG142      0.2205
     85  NE        -0.9390    6.7720    0.2100 N.pl3 142  ARG142     -0.0865
     86  CZ        -0.3440    5.6240   -0.1240 C.cat 142  ARG142      0.5346
     87  NH1       -0.3340    5.1890   -1.3810 N.pl3 142  ARG142      0.1354
     88  NH2        0.2470    4.8900    0.8060 N.pl3 142  ARG142      0.1354
     89  N          6.2580    2.1860   15.7260 N.3   188  GLY188     -0.1210
     90  CA         5.4550    3.1680   15.0070 C.3   188  GLY188      0.1956
     91  C          3.9570    3.0830   15.2530 C.2   188  GLY188      0.2613
     92  O          3.1930    3.7470   14.5710 O.2   188  GLY188     -0.2717
     93  N          3.5330    2.2460   16.1960 N.am  189  THR189     -0.1938
     94  CA         2.1540    2.2680   16.7010 C.3   189  THR189      0.2028
     95  C          1.8460    3.5540   17.4630 C.2   189  THR189      0.2642
     96  O          0.7140    4.0240   17.4380 O.2   189  THR189     -0.2714
     97  CB         1.8990    1.0850   17.6440 C.3   189  THR189      0.1808
     98  OG1        1.9020   -0.1180   16.8790 O.3   189  THR189     -0.2208
     99  CG2        0.5660    1.2000   18.3390 C.3   189  THR189      0.0379
    100  N          2.8520    4.1130   18.1330 N.am  190  LYS190     -0.1963
    101  CA         2.6810    5.2990   18.9570 C.3   190  LYS190      0.1728
    102  C          2.3430    6.5520   18.1310 C.2   190  LYS190      0.2617
    103  O          2.0180    6.4720   16.9620 O.2   190  LYS190     -0.2715
    104  CB         3.9250    5.5140   19.8240 C.3   190  LYS190      0.0311
    105  CG         4.3040    4.3080   20.6740 C.3   190  LYS190      0.0038
    106  CD         5.4360    4.6290   21.6340 C.3   190  LYS190      0.0206
    107  CE         6.7520    4.8200   20.8820 C.3   190  LYS190      0.1093
    108  NZ         7.8080    5.5750   21.6330 N.3   190  LYS190     -0.1314
    109  N          2.3860    7.7080   18.7740 N.am  191  THR191     -0.1937
    110  CA         1.9830    8.9780   18.1760 C.3   191  THR191      0.2013
    111  C          3.1070    9.5150   17.3330 C.2   191  THR191      0.2484
    112  O          4.2720    9.3360   17.6930 O.2   191  THR191     -0.2729
    113  CB         1.7380   10.0070   19.2980 C.3   191  THR191      0.1807
    114  OG1        1.0060    9.3710   20.3410 O.3   191  THR191     -0.2208
    115  CG2        0.9750   11.2280   18.8110 C.3   191  THR191      0.0379
    116  N          2.7770   10.2060   16.2330 N.am  192  PRO192     -0.2726
    117  CA         3.8210   10.8780   15.4580 C.3   192  PRO192      0.1402
    118  C          4.7570   11.7290   16.3180 C.2   192  PRO192      0.2269
    119  O          5.9640   11.7540   16.0760 O.2   192  PRO192     -0.2865
    120  CB         3.0290   11.7800   14.5090 C.3   192  PRO192      0.0296
    121  CG         1.7050   11.1310   14.3740 C.3   192  PRO192      0.0237
    122  CD         1.4370   10.3950   15.6470 C.3   192  PRO192      0.0939
    123  N          6.7390    9.5630   18.9000 N.3   195  ILE195     -0.1245
    124  CA         7.7760    8.9520   18.0690 C.3   195  ILE195      0.1561
    125  C          8.8870    9.9600   17.7130 C.2   195  ILE195      0.2260
    126  O         10.0640    9.7100   17.9220 O.2   195  ILE195     -0.2867
    127  CB         7.1770    8.3240   16.7740 C.3   195  ILE195      0.0252
    128  CG1        6.2450    7.1410   17.1140 C.3   195  ILE195      0.0019
    129  CG2        8.2850    7.8380   15.8590 C.3   195  ILE195      0.0019
    130  CD1        5.2180    6.8050   16.0530 C.3   195  ILE195      0.0001
@<TRIPOS>BOND
     1    80    81    2
     2    80    79    1
     3    87    86    1
     4    83    84    1
     5    83    82    1
     6    79    82    1
     7    79    78    1
     8    84    85    1
     9     8     6   ar
    10    86    85    2
    11    86    88    1
    12     6     7   ar
    13     6     5    1
    14    70    68    1
    15     5     2    1
    16    75    74    2
    17    77    76    1
    18    74    73    1
    19    69    68    1
    20    69    71    1
    21    67    66    2
    22    68    65    1
    23    37    36    1
    24     2     1    1
    25     2     3    1
    26    66    65    1
    27    76    73    1
    28    65    64    1
    29    36    33    1
    30    73    72    1
    31    30    31    1
    32    30    29    1
    33     3     4    2
    34     3     9   am
    35     9    10    1
    36    33    32    1
    37    33    34    1
    38    64    55   am
    39    29    28    1
    40    10    11    1
    41    32    25   am
    42    56    55    2
    43    27    28    1
    44    27    24    1
    45    55    54    1
    46    34    35    2
    47    34    38   am
    48    25    24    1
    49    25    26    2
    50    11    13   am
    51    11    12    2
    52    38    39    1
    53    13    14    1
    54    24    23    1
    55    23    21   am
    56    54    53    1
    57    54    57    1
    58    18    17    1
    59    43    42    1
    60    57    58    1
    61    39    42    1
    62    39    40    1
    63    19    20    1
    64    19    15   am
    65    21    20    1
    66    21    22    2
    67    14    17    1
    68    14    15    1
    69    40    41    2
    70    40    44   am
    71    15    16    2
    72    58    59    1
    73    44    45    1
    74    59    60    1
    75    46    45    1
    76    46    47    2
    77    45    48    1
    78    62    61    1
    79    60    61    2
    80    48    49    1
    81    61    63    1
    82    49    50    1
    83    50    52   am
    84    50    51    2
    85   121   120    1
    86   121   122    1
    87   120   117    1
    88    92    91    2
    89    90    91    1
    90    90    89    1
    91    91    93   am
    92   117   116    1
    93   117   118    1
    94   122   116    1
    95   129   127    1
    96   130   128    1
    97   119   118    2
    98    93    94    1
    99   116   111   am
   100    94    95    1
   101    94    97    1
   102   127   128    1
   103   127   124    1
   104    98    97    1
   105   103   102    2
   106   111   112    2
   107   111   110    1
   108    96    95    2
   109    95   100   am
   110    97    99    1
   111   125   126    2
   112   125   124    1
   113   124   123    1
   114   102   109   am
   115   102   101    1
   116   100   101    1
   117   110   109    1
   118   110   113    1
   119   115   113    1
   120   101   104    1
   121   113   114    1
   122   104   105    1
   123   105   106    1
   124   107   108    1
   125   107   106    1
