@<TRIPOS>MOLECULE
tmp/4rzvA00.pdb
 202 193 0 0 0
SMALL
GASTEIGER

@<TRIPOS>ATOM
      1  N         82.0650    9.2140    3.5100 N.3    15  ILE15      -0.1245
      2  CA        82.3080   10.4890    4.1710 C.3    15  ILE15       0.1561
      3  C         83.7730   10.6290    4.5730 C.2    15  ILE15       0.2260
      4  O         84.3890   11.6730    4.3550 O.2    15  ILE15      -0.2867
      5  CB        81.4140   10.6510    5.4110 C.3    15  ILE15       0.0252
      6  CG1       79.9400   10.6400    5.0010 C.3    15  ILE15       0.0019
      7  CG2       81.7480   11.9330    6.1490 C.3    15  ILE15       0.0019
      8  CD1       79.5820   11.6980    3.9790 C.3    15  ILE15       0.0001
      9  N         86.2850    9.5300   11.1890 N.3    18  GLY18      -0.1225
     10  CA        85.9540    8.1260   11.3210 C.3    18  GLY18       0.1811
     11  C         86.9420    7.3730   12.1830 C.2    18  GLY18       0.2280
     12  O         87.6360    6.4820   11.6950 O.2    18  GLY18      -0.2866
     13  N         83.4070    5.9420    7.8680 N.3    23  VAL23      -0.1245
     14  CA        81.9790    6.2340    7.8710 C.3    23  VAL23       0.1561
     15  C         81.4090    6.4130    6.4660 C.2    23  VAL23       0.2260
     16  O         82.0570    6.9700    5.5780 O.2    23  VAL23      -0.2867
     17  CB        81.6680    7.4950    8.7040 C.3    23  VAL23       0.0252
     18  CG1       81.8330    7.2020   10.1880 C.3    23  VAL23       0.0019
     19  CG2       82.5590    8.6490    8.2810 C.3    23  VAL23       0.0019
     20  N         73.7270    6.2660    8.9620 N.3    33  ALA33      -0.1231
     21  CA        75.1680    6.4010    8.8350 C.3    33  ALA33       0.1694
     22  C         75.8540    5.1360    9.3270 C.2    33  ALA33       0.2592
     23  O         75.6110    4.6820   10.4450 O.2    33  ALA33      -0.2718
     24  CB        75.6600    7.6080    9.6050 C.3    33  ALA33       0.0304
     25  N         76.7110    4.5710    8.4860 N.am   34  VAL34      -0.1966
     26  CA        77.3930    3.3300    8.8180 C.3    34  VAL34       0.1727
     27  C         78.8890    3.5450    9.0130 C.2    34  VAL34       0.2616
     28  O         79.5720    4.0470    8.1210 O.2    34  VAL34      -0.2715
     29  CB        77.1790    2.2660    7.7240 C.3    34  VAL34       0.0290
     30  CG1       77.8460    0.9580    8.1180 C.3    34  VAL34       0.0023
     31  CG2       75.6940    2.0570    7.4730 C.3    34  VAL34       0.0023
     32  N         79.3920    3.1680   10.1840 N.am   35  LYS35      -0.1977
     33  CA        80.8260    3.1990   10.4390 C.3    35  LYS35       0.1596
     34  C         81.4220    1.8080   10.2630 C.2    35  LYS35       0.2287
     35  O         81.2490    0.9370   11.1150 O.2    35  LYS35      -0.2864
     36  CB        81.1250    3.7250   11.8440 C.3    35  LYS35       0.0298
     37  CG        82.5990    3.6410   12.2240 C.3    35  LYS35       0.0038
     38  CD        82.8520    4.1350   13.6400 C.3    35  LYS35       0.0206
     39  CE        82.6540    5.6370   13.7500 C.3    35  LYS35       0.1093
     40  NZ        82.9930    6.1420   15.1090 N.3    35  LYS35      -0.1314
     41  N         76.2020    1.4580   24.2040 N.3    57  LEU57      -0.1245
     42  CA        75.5250    2.3610   23.2780 C.3    57  LEU57       0.1561
     43  C         74.0110    2.1630   23.2950 C.2    57  LEU57       0.2260
     44  O         73.2610    3.0150   22.8190 O.2    57  LEU57      -0.2867
     45  CB        76.0590    2.1650   21.8580 C.3    57  LEU57       0.0270
     46  CG        77.5480    2.4480   21.6500 C.3    57  LEU57       0.0019
     47  CD1       77.9560    2.1440   20.2170 C.3    57  LEU57       0.0001
     48  CD2       77.8740    3.8890   22.0110 C.3    57  LEU57       0.0001
     49  N         72.7970    4.5510   26.3250 N.3    60  THR60      -0.1218
     50  CA        73.2750    5.9300   26.2980 C.3    60  THR60       0.1862
     51  C         72.4820    6.7180   25.2620 C.2    60  THR60       0.2287
     52  O         72.8670    6.7930   24.0950 O.2    60  THR60      -0.2866
     53  CB        74.7790    6.0170   25.9830 C.3    60  THR60       0.1770
     54  OG1       75.0550    5.3360   24.7540 O.3    60  THR60      -0.2211
     55  CG2       75.5950    5.3870   27.1040 C.3    60  THR60       0.0375
     56  N         74.1360   11.2230   19.1770 N.3    66  LEU66      -0.1245
     57  CA        73.8720   10.3800   18.0170 C.3    66  LEU66       0.1561
     58  C         73.1280    9.1070   18.4140 C.2    66  LEU66       0.2260
     59  O         73.5970    8.3420   19.2550 O.2    66  LEU66      -0.2867
     60  CB        75.1850   10.0260   17.3190 C.3    66  LEU66       0.0270
     61  CG        75.1970    9.9800   15.7930 C.3    66  LEU66       0.0019
     62  CD1       74.9000   11.3520   15.2170 C.3    66  LEU66       0.0001
     63  CD2       76.5390    9.4730   15.3000 C.3    66  LEU66       0.0001
     64  N         72.0090    5.4810   18.4650 N.3    68  PHE68      -0.1241
     65  CA        72.5200    4.1740   18.0660 C.3    68  PHE68       0.1605
     66  C         71.3740    3.2530   17.6550 C.2    68  PHE68       0.2264
     67  O         70.4910    2.9520   18.4590 O.2    68  PHE68      -0.2867
     68  CB        73.3300    3.5440   19.2020 C.3    68  PHE68       0.0534
     69  CG        73.7630    2.1330   18.9280 C.ar   68  PHE68      -0.0203
     70  CD1       74.8330    1.8740   18.0870 C.ar   68  PHE68      -0.0042
     71  CD2       73.1050    1.0660   19.5150 C.ar   68  PHE68      -0.0042
     72  CE1       75.2340    0.5760   17.8340 C.ar   68  PHE68      -0.0003
     73  CE2       73.5010   -0.2340   19.2660 C.ar   68  PHE68      -0.0003
     74  CZ        74.5670   -0.4800   18.4250 C.ar   68  PHE68      -0.0000
     75  N         78.9510    0.0120   12.7680 N.3    79  ILE79      -0.1245
     76  CA        78.1000    0.7310   13.7090 C.3    79  ILE79       0.1561
     77  C         77.1130    1.6170   12.9580 C.2    79  ILE79       0.2260
     78  O         77.5110    2.5350   12.2400 O.2    79  ILE79      -0.2867
     79  CB        78.9250    1.5960   14.6800 C.3    79  ILE79       0.0252
     80  CG1       79.7710    0.7100   15.5970 C.3    79  ILE79       0.0019
     81  CG2       78.0130    2.4950   15.5030 C.3    79  ILE79       0.0019
     82  CD1       80.5640    1.4830   16.6300 C.3    79  ILE79       0.0001
     83  N         74.1950    4.3690   12.8750 N.3    81  THR81      -0.1203
     84  CA        73.5430    5.4650   13.5820 C.3    81  THR81       0.1994
     85  C         72.6440    6.2480   12.6310 C.2    81  THR81       0.2618
     86  O         72.5440    5.9170   11.4500 O.2    81  THR81      -0.2717
     87  CB        74.5670    6.4210   14.2210 C.3    81  THR81       0.1784
     88  OG1       75.4310    6.9490   13.2060 O.3    81  THR81      -0.2211
     89  CG2       75.4040    5.6900   15.2600 C.3    81  THR81       0.0376
     90  N         71.9880    7.2840   13.1470 N.am   82  GLN82      -0.1965
     91  CA        71.1170    8.1170   12.3240 C.3    82  GLN82       0.1733
     92  C         71.9340    9.0490   11.4350 C.2    82  GLN82       0.2616
     93  O         73.0800    9.3700   11.7470 O.2    82  GLN82      -0.2715
     94  CB        70.1570    8.9260   13.1990 C.3    82  GLN82       0.0408
     95  CG        70.8330    9.7230   14.3020 C.3    82  GLN82       0.0908
     96  CD        69.8560   10.5880   15.0760 C.2    82  GLN82       0.2608
     97  OE1       70.0350   10.8330   16.2690 O.2    82  GLN82      -0.2717
     98  NE2       68.8160   11.0610   14.3960 N.am   82  GLN82      -0.0878
     99  N         71.3410    9.4770   10.3250 N.am   83  TRP83      -0.1960
    100  CA        72.0320   10.3440    9.3770 C.3    83  TRP83       0.1771
    101  C         71.6240   11.8020    9.5480 C.2    83  TRP83       0.2619
    102  O         70.4380   12.1270    9.5970 O.2    83  TRP83      -0.2715
    103  CB        71.7620    9.8880    7.9410 C.3    83  TRP83       0.0590
    104  CG        72.3130   10.8130    6.8930 C.ar   83  TRP83       0.0006
    105  CD1       71.6150   11.7260    6.1560 C.ar   83  TRP83       0.0946
    106  CD2       73.6790   10.9150    6.4670 C.ar   83  TRP83       0.0152
    107  NE1       72.4610   12.3890    5.2970 N.ar   83  TRP83      -0.2442
    108  CE2       73.7330   11.9090    5.4690 C.ar   83  TRP83       0.0810
    109  CE3       74.8600   10.2620    6.8330 C.ar   83  TRP83       0.0012
    110  CZ2       74.9210   12.2660    4.8340 C.ar   83  TRP83       0.0191
    111  CZ3       76.0380   10.6170    6.2010 C.ar   83  TRP83       0.0001
    112  CH2       76.0600   11.6090    5.2130 C.ar   83  TRP83       0.0015
    113  N         72.6190   12.6760    9.6380 N.am   84  CYS84      -0.1968
    114  CA        72.3730   14.1030    9.7780 C.3    84  CYS84       0.1712
    115  C         72.5610   14.8080    8.4400 C.2    84  CYS84       0.2296
    116  O         73.6770   14.9000    7.9260 O.2    84  CYS84      -0.2864
    117  CB        73.2960   14.6980   10.8400 C.3    84  CYS84       0.0983
    118  SG        73.1730   13.8730   12.4440 S.3    84  CYS84      -0.0798
    119  N         75.0640   17.7840    7.4800 N.3    87  SER87      -0.1202
    120  CA        76.4920   17.4760    7.5410 C.3    87  SER87       0.2020
    121  C         77.0810   17.7170    8.9290 C.2    87  SER87       0.2619
    122  O         76.3720   17.6550    9.9340 O.2    87  SER87      -0.2717
    123  CB        77.2590   18.2950    6.5000 C.3    87  SER87       0.2103
    124  OG        76.7460   18.0720    5.1980 O.3    87  SER87      -0.2182
    125  N         78.3820   17.9870    8.9760 N.am   88  SER88      -0.1951
    126  CA        79.0680   18.2420   10.2380 C.3    88  SER88       0.1924
    127  C         79.3690   19.7250   10.4080 C.2    88  SER88       0.2314
    128  O         79.2830   20.5000    9.4560 O.2    88  SER88      -0.2863
    129  CB        80.3640   17.4320   10.3240 C.3    88  SER88       0.2116
    130  OG        81.3030   17.8630    9.3540 O.3    88  SER88      -0.2180
    131  N         82.3500   21.0960    8.3670 N.3    91  HIS91      -0.1241
    132  CA        82.0680   21.3170    6.9550 C.3    91  HIS91       0.1621
    133  C         81.4600   22.6920    6.7030 C.2    91  HIS91       0.2264
    134  O         81.8240   23.3760    5.7470 O.2    91  HIS91      -0.2867
    135  CB        81.1320   20.2280    6.4260 C.3    91  HIS91       0.0745
    136  CG        80.7930   20.3750    4.9760 C.ar   91  HIS91       0.0817
    137  ND1       79.6460   21.0070    4.5400 N.ar   91  HIS91      -0.2268
    138  CD2       81.4460   19.9750    3.8600 C.ar   91  HIS91       0.1154
    139  CE1       79.6100   20.9880    3.2210 C.ar   91  HIS91       0.1986
    140  NE2       80.6920   20.3670    2.7820 N.ar   91  HIS91      -0.2212
    141  N         84.5030   18.0650   13.8270 N.3   132  ASN132     -0.1225
    142  CA        84.3250   16.9620   12.8880 C.3   132  ASN132      0.1785
    143  C         83.2930   15.9560   13.3810 C.2   132  ASN132      0.2597
    144  O         82.6530   15.2700   12.5860 O.2   132  ASN132     -0.2718
    145  CB        85.6560   16.2520   12.6290 C.3   132  ASN132      0.1169
    146  CG        86.6360   17.1150   11.8660 C.2   132  ASN132      0.2627
    147  OD1       87.6630   17.5300   12.4020 O.2   132  ASN132     -0.2716
    148  ND2       86.3230   17.3920   10.6050 N.am  132  ASN132     -0.0877
    149  N         83.1330   15.8800   14.6970 N.am  133  ASN133     -0.1974
    150  CA        82.2260   14.9150   15.3030 C.3   133  ASN133      0.1688
    151  C         80.9400   15.5690   15.7920 C.2   133  ASN133      0.2292
    152  O         80.1270   14.9410   16.4690 O.2   133  ASN133     -0.2864
    153  CB        82.9270   14.1890   16.4500 C.3   133  ASN133      0.1181
    154  CG        84.2230   13.5350   16.0110 C.2   133  ASN133      0.2629
    155  OD1       85.2280   13.5880   16.7160 O.2   133  ASN133     -0.2716
    156  ND2       84.2070   12.9230   14.8320 N.am  133  ASN133     -0.0877
    157  N         77.6010   16.9030   14.4420 N.3   135  PHE135     -0.1241
    158  CA        76.7790   16.8130   13.2430 C.3   135  PHE135      0.1605
    159  C         75.4470   17.5360   13.4050 C.2   135  PHE135      0.2264
    160  O         74.7800   17.4160   14.4330 O.2   135  PHE135     -0.2867
    161  CB        76.5440   15.3480   12.8820 C.3   135  PHE135      0.0534
    162  CG        77.7850   14.5090   12.9470 C.ar  135  PHE135     -0.0203
    163  CD1       78.7670   14.6270   11.9780 C.ar  135  PHE135     -0.0042
    164  CD2       77.9740   13.6050   13.9780 C.ar  135  PHE135     -0.0042
    165  CE1       79.9140   13.8590   12.0380 C.ar  135  PHE135     -0.0003
    166  CE2       79.1170   12.8330   14.0420 C.ar  135  PHE135     -0.0003
    167  CZ        80.0880   12.9590   13.0700 C.ar  135  PHE135     -0.0000
    168  N         78.9420   12.7130   17.9990 N.3   145  GLY145     -0.1210
    169  CA        79.3370   11.3640   17.6390 C.3   145  GLY145      0.1956
    170  C         80.7750   11.0470   18.0000 C.2   145  GLY145      0.2612
    171  O         81.4450   11.8350   18.6680 O.2   145  GLY145     -0.2717
    172  N         81.2340    9.8770   17.5610 N.am  146  ASP146     -0.1959
    173  CA        82.6130    9.4250   17.7480 C.3   146  ASP146      0.1840
    174  C         83.0080    9.3050   19.2210 C.2   146  ASP146      0.2622
    175  O         84.1900    9.3820   19.5640 O.2   146  ASP146     -0.2715
    176  CB        83.5810   10.3640   17.0240 C.3   146  ASP146      0.1450
    177  CG        84.6170    9.6190   16.2070 C.2   146  ASP146      0.3671
    178  OD1       84.8320    8.4190   16.4740 O.co2 146  ASP146     -0.2456
    179  OD2       85.2150   10.2350   15.2990 O.co2 146  ASP146     -0.2456
    180  N         82.0190    9.1110   20.0860 N.am  147  PHE147     -0.1960
    181  CA        82.2780    8.9520   21.5130 C.3   147  PHE147      0.1771
    182  C         82.2860    7.4770   21.9040 C.2   147  PHE147      0.2620
    183  O         82.6750    7.1220   23.0160 O.2   147  PHE147     -0.2715
    184  CB        81.2390    9.7170   22.3400 C.3   147  PHE147      0.0574
    185  CG        79.8200    9.3020   22.0700 C.ar  147  PHE147     -0.0200
    186  CD1       79.0840    9.9150   21.0710 C.ar  147  PHE147     -0.0042
    187  CD2       79.2200    8.3040   22.8210 C.ar  147  PHE147     -0.0042
    188  CE1       77.7790    9.5370   20.8200 C.ar  147  PHE147     -0.0003
    189  CE2       77.9170    7.9220   22.5750 C.ar  147  PHE147     -0.0003
    190  CZ        77.1960    8.5390   21.5720 C.ar  147  PHE147     -0.0000
    191  N         81.8510    6.6250   20.9810 N.am  148  GLY148     -0.1940
    192  CA        81.8000    5.1940   21.2190 C.3   148  GLY148      0.2014
    193  C         83.1780    4.5680   21.3090 C.2   148  GLY148      0.2638
    194  O         84.1840    5.2280   21.0410 O.2   148  GLY148     -0.2714
    195  N         83.2130    3.2890   21.6760 N.am  149  LEU149     -0.1977
    196  CA        84.4610    2.5610   21.9020 C.3   149  LEU149      0.1596
    197  C         85.3330    3.2930   22.9150 C.2   149  LEU149      0.2287
    198  O         86.5250    3.5040   22.6910 O.2   149  LEU149     -0.2864
    199  CB        85.2240    2.3530   20.5890 C.3   149  LEU149      0.0297
    200  CG        84.9040    1.0860   19.7890 C.3   149  LEU149      0.0022
    201  CD1       83.4440    1.0440   19.3550 C.3   149  LEU149      0.0001
    202  CD2       85.8270    0.9640   18.5860 C.3   149  LEU149      0.0001
@<TRIPOS>BOND
     1   140   139   ar
     2   140   138   ar
     3   139   137   ar
     4     1     2    1
     5   138   136   ar
     6     8     6    1
     7     2     3    1
     8     2     5    1
     9     4     3    2
    10   137   136   ar
    11   110   112   ar
    12   110   108   ar
    13   136   135    1
    14     6     5    1
    15   124   123    1
    16   112   111   ar
    17   107   108   ar
    18   107   105   ar
    19     5     7    1
    20   108   106   ar
    21    16    15    2
    22   134   133    2
    23   105   104   ar
    24   111   109   ar
    25   135   132    1
    26    15    14    1
    27   106   109   ar
    28   106   104   ar
    29   123   120    1
    30   133   132    1
    31   104   103    1
    32   132   131    1
    33    31    29    1
    34   119   120    1
    35   120   121    1
    36    29    30    1
    37    29    26    1
    38    13    14    1
    39    14    17    1
    40   116   115    2
    41   103   100    1
    42    28    27    2
    43    19    17    1
    44   115   114    1
    45    25    26    1
    46    25    22   am
    47    17    18    1
    48    26    27    1
    49    21    20    1
    50    21    22    1
    51    21    24    1
    52   121   125   am
    53   121   122    2
    54   125   126    1
    55    27    32   am
    56    22    23    2
    57   130   129    1
    58   100   101    1
    59   100    99    1
    60   128   127    2
    61   101   102    2
    62   101   113   am
    63   113   114    1
    64   114   117    1
    65    32    33    1
    66   126   129    1
    67   126   127    1
    68    34    33    1
    69    34    35    2
    70    99    92   am
    71    33    36    1
    72   148   146   am
    73   117   118    1
    74     9    10    1
    75    10    11    1
    76    92    93    2
    77    92    91    1
    78    86    85    2
    79    12    11    2
    80    36    37    1
    81   146   147    2
    82   146   145    1
    83   163   165   ar
    84   163   162   ar
    85   165   167   ar
    86    37    38    1
    87    78    77    2
    88    91    90    1
    89    91    94    1
    90   144   143    2
    91   145   142    1
    92    85    90   am
    93    85    84    1
    94    75    76    1
    95    83    84    1
    96   161   162    1
    97   161   158    1
    98   142   143    1
    99   142   141    1
   100   162   164   ar
   101    77    76    1
   102   167   166   ar
   103    94    95    1
   104    88    87    1
   105   158   159    1
   106   158   157    1
   107   143   149   am
   108   159   160    2
   109    84    87    1
   110    38    39    1
   111    76    79    1
   112    39    40    1
   113   164   166   ar
   114    87    89    1
   115    95    96    1
   116    98    96   am
   117    79    81    1
   118    79    80    1
   119   149   150    1
   120   156   154   am
   121    96    97    2
   122    62    61    1
   123   179   177   ar
   124    63    61    1
   125   150   151    1
   126   150   153    1
   127    80    82    1
   128   151   152    2
   129    61    60    1
   130   154   153    1
   131   154   155    2
   132   177   178   ar
   133   177   176    1
   134   176   173    1
   135    60    57    1
   136   172   173    1
   137   172   170   am
   138   169   168    1
   139   169   170    1
   140    66    65    1
   141    66    67    2
   142   173   174    1
   143    72    70   ar
   144    72    74   ar
   145   170   171    2
   146    57    58    1
   147    57    56    1
   148    65    64    1
   149    65    68    1
   150    70    69   ar
   151    58    59    2
   152    74    73   ar
   153   202   200    1
   154    69    68    1
   155    69    71   ar
   156   174   175    2
   157   174   180   am
   158    73    71   ar
   159   201   200    1
   160   200   199    1
   161   180   181    1
   162    47    46    1
   163   199   196    1
   164   188   186   ar
   165   188   190   ar
   166   191   192    1
   167   191   182   am
   168   194   193    2
   169   186   185   ar
   170   192   193    1
   171   193   195   am
   172   181   182    1
   173   181   184    1
   174   190   189   ar
   175    46    45    1
   176    46    48    1
   177   195   196    1
   178    45    42    1
   179   196   197    1
   180   182   183    2
   181   185   184    1
   182   185   187   ar
   183   189   187   ar
   184   198   197    2
   185    44    43    2
   186    42    43    1
   187    42    41    1
   188    52    51    2
   189    54    53    1
   190    51    50    1
   191    53    50    1
   192    53    55    1
   193    50    49    1
