@<TRIPOS>MOLECULE
tmp/4rzwB00.pdb
 207 198 0 0 0
SMALL
GASTEIGER

@<TRIPOS>ATOM
      1  N         40.4170  141.9580   89.1990 N.3    16  ILE16      -0.1245
      2  CA        41.2250  141.4600   88.0970 C.3    16  ILE16       0.1561
      3  C         41.7780  142.6240   87.2870 C.2    16  ILE16       0.2260
      4  O         42.9800  142.6990   87.0350 O.2    16  ILE16      -0.2867
      5  CB        40.4060  140.5360   87.1740 C.3    16  ILE16       0.0252
      6  CG1       39.7660  139.4040   87.9810 C.3    16  ILE16       0.0019
      7  CG2       41.2740  139.9980   86.0470 C.3    16  ILE16       0.0019
      8  CD1       40.7620  138.5410   88.7240 C.3    16  ILE16       0.0001
      9  N         36.5820  145.0530   87.6720 N.3    24  VAL24      -0.1245
     10  CA        36.0610  143.6910   87.6070 C.3    24  VAL24       0.1561
     11  C         36.5490  142.8650   88.7950 C.2    24  VAL24       0.2260
     12  O         37.7480  142.8000   89.0650 O.2    24  VAL24      -0.2867
     13  CB        36.4730  142.9930   86.2960 C.3    24  VAL24       0.0252
     14  CG1       36.0920  141.5210   86.3320 C.3    24  VAL24       0.0019
     15  CG2       35.8310  143.6860   85.1040 C.3    24  VAL24       0.0019
     16  N         31.5660  136.7300   88.0990 N.3    34  ALA34      -0.1231
     17  CA        32.3840  137.9050   87.8310 C.3    34  ALA34       0.1694
     18  C         31.5030  139.1440   87.8630 C.2    34  ALA34       0.2592
     19  O         30.3840  139.1260   87.3540 O.2    34  ALA34      -0.2718
     20  CB        33.0880  137.7770   86.4900 C.3    34  ALA34       0.0304
     21  N         32.0090  140.2210   88.4570 N.am   35  VAL35      -0.1966
     22  CA        31.2200  141.4390   88.6140 C.3    35  VAL35       0.1727
     23  C         31.9400  142.6810   88.1010 C.2    35  VAL35       0.2616
     24  O         32.9620  143.0880   88.6520 O.2    35  VAL35      -0.2715
     25  CB        30.8380  141.6840   90.0920 C.3    35  VAL35       0.0290
     26  CG1       29.6360  142.6110   90.1830 C.3    35  VAL35       0.0023
     27  CG2       30.5650  140.3690   90.8140 C.3    35  VAL35       0.0023
     28  N         31.4010  143.2790   87.0410 N.am   36  LYS36      -0.1977
     29  CA        31.8550  144.5900   86.5970 C.3    36  LYS36       0.1596
     30  C         31.0870  145.6600   87.3530 C.2    36  LYS36       0.2287
     31  O         29.8580  145.6680   87.3530 O.2    36  LYS36      -0.2864
     32  CB        31.6740  144.7730   85.0920 C.3    36  LYS36       0.0298
     33  CG        32.3120  146.0490   84.5560 C.3    36  LYS36       0.0038
     34  CD        32.6170  145.9480   83.0720 C.3    36  LYS36       0.0206
     35  CE        31.3520  146.0690   82.2400 C.3    36  LYS36       0.1093
     36  NZ        31.6450  146.1360   80.7780 N.3    36  LYS36      -0.1314
     37  N         24.2190  147.9710   77.6920 N.3    54  GLU54      -0.1245
     38  CA        25.0220  146.7630   77.8420 C.3    54  GLU54       0.1567
     39  C         24.2110  145.6500   78.4990 C.2    54  GLU54       0.2260
     40  O         24.3760  144.4780   78.1720 O.2    54  GLU54      -0.2867
     41  CB        26.2790  147.0590   78.6640 C.3    54  GLU54       0.0388
     42  CG        27.2400  145.8900   78.8000 C.3    54  GLU54       0.1160
     43  CD        28.6050  146.3190   79.3040 C.2    54  GLU54       0.3649
     44  OE1       29.4240  145.4370   79.6340 O.co2  54  GLU54      -0.2457
     45  OE2       28.8600  147.5400   79.3610 O.co2  54  GLU54      -0.2457
     46  N         21.1780  144.3330   75.9170 N.3    57  VAL57      -0.1231
     47  CA        21.5570  143.3330   74.9260 C.3    57  VAL57       0.1692
     48  C         21.8490  141.9890   75.5900 C.2    57  VAL57       0.2591
     49  O         21.4910  140.9400   75.0560 O.2    57  VAL57      -0.2718
     50  CB        22.7770  143.7820   74.0920 C.3    57  VAL57       0.0266
     51  CG1       22.3680  144.8570   73.0990 C.3    57  VAL57       0.0020
     52  CG2       23.8980  144.2800   74.9880 C.3    57  VAL57       0.0020
     53  N         22.5010  142.0230   76.7500 N.am   58  LEU58      -0.1980
     54  CA        22.8270  140.8030   77.4800 C.3    58  LEU58       0.1596
     55  C         21.5540  140.0980   77.9390 C.2    58  LEU58       0.2287
     56  O         21.5380  138.8800   78.1040 O.2    58  LEU58      -0.2864
     57  CB        23.7330  141.1130   78.6740 C.3    58  LEU58       0.0297
     58  CG        25.1890  141.4400   78.3310 C.3    58  LEU58       0.0022
     59  CD1       26.0000  141.7030   79.5910 C.3    58  LEU58       0.0001
     60  CD2       25.8130  140.3250   77.5040 C.3    58  LEU58       0.0001
     61  N         20.6810  137.7940   74.9810 N.3    61  THR61      -0.1218
     62  CA        21.6030  136.7480   74.5480 C.3    61  THR61       0.1862
     63  C         21.3700  135.4780   75.3550 C.2    61  THR61       0.2287
     64  O         21.2900  135.5170   76.5820 O.2    61  THR61      -0.2866
     65  CB        23.0750  137.1820   74.6870 C.3    61  THR61       0.1770
     66  OG1       23.3840  137.3990   76.0690 O.3    61  THR61      -0.2211
     67  CG2       23.3290  138.4580   73.9040 C.3    61  THR61       0.0375
     68  N         28.2320  132.3770   73.8010 N.3    66  ILE66      -0.1231
     69  CA        28.1520  133.7500   74.2770 C.3    66  ILE66       0.1692
     70  C         28.2710  133.7340   75.7960 C.2    66  ILE66       0.2591
     71  O         27.7640  132.8210   76.4490 O.2    66  ILE66      -0.2718
     72  CB        26.8380  134.4330   73.8440 C.3    66  ILE66       0.0266
     73  CG1       26.6900  134.3740   72.3250 C.3    66  ILE66       0.0019
     74  CG2       26.7980  135.8830   74.3060 C.3    66  ILE66       0.0020
     75  CD1       27.8890  134.9120   71.5800 C.3    66  ILE66       0.0001
     76  N         28.9590  134.7290   76.3500 N.am   67  LEU67      -0.1980
     77  CA        29.1330  134.8410   77.7960 C.3    67  LEU67       0.1596
     78  C         27.7900  134.8140   78.5220 C.2    67  LEU67       0.2287
     79  O         26.7930  135.3370   78.0220 O.2    67  LEU67      -0.2864
     80  CB        29.9010  136.1200   78.1360 C.3    67  LEU67       0.0297
     81  CG        30.4170  136.2570   79.5660 C.3    67  LEU67       0.0022
     82  CD1       31.2700  135.0580   79.9230 C.3    67  LEU67       0.0001
     83  CD2       31.2170  137.5370   79.7110 C.3    67  LEU67       0.0001
     84  N         27.2910  144.6990   86.9740 N.3    80  ILE80      -0.1245
     85  CA        26.8340  143.6510   86.0690 C.3    80  ILE80       0.1561
     86  C         27.5230  142.3450   86.4460 C.2    80  ILE80       0.2260
     87  O         28.7350  142.3200   86.6610 O.2    80  ILE80      -0.2867
     88  CB        27.1380  143.9930   84.5960 C.3    80  ILE80       0.0252
     89  CG1       26.2490  145.1390   84.1160 C.3    80  ILE80       0.0019
     90  CG2       26.9540  142.7740   83.7030 C.3    80  ILE80       0.0019
     91  CD1       26.6190  145.6640   82.7470 C.3    80  ILE80       0.0001
     92  N         28.2900  138.1760   85.6750 N.3    82  THR82      -0.1203
     93  CA        28.3330  137.0900   84.7060 C.3    82  THR82       0.1994
     94  C         28.9560  135.8480   85.3230 C.2    82  THR82       0.2618
     95  O         29.4150  135.8690   86.4640 O.2    82  THR82      -0.2717
     96  CB        29.1420  137.4690   83.4450 C.3    82  THR82       0.1784
     97  OG1       30.5230  137.6320   83.7910 O.3    82  THR82      -0.2211
     98  CG2       28.6200  138.7540   82.8240 C.3    82  THR82       0.0376
     99  N         28.9580  134.7620   84.5600 N.am   83  GLN83      -0.1965
    100  CA        29.6570  133.5520   84.9590 C.3    83  GLN83       0.1733
    101  C         31.1440  133.8410   85.0770 C.2    83  GLN83       0.2616
    102  O         31.6620  134.7400   84.4140 O.2    83  GLN83      -0.2715
    103  CB        29.4230  132.4380   83.9430 C.3    83  GLN83       0.0408
    104  CG        30.0820  132.7120   82.6020 C.3    83  GLN83       0.0908
    105  CD        30.0500  131.5180   81.6790 C.2    83  GLN83       0.2608
    106  OE1       29.5110  131.5930   80.5780 O.2    83  GLN83      -0.2717
    107  NE2       30.6330  130.4090   82.1190 N.am   83  GLN83      -0.0878
    108  N         31.8340  133.0900   85.9240 N.am   84  TRP84      -0.1960
    109  CA        33.2840  133.1610   85.9400 C.3    84  TRP84       0.1771
    110  C         33.8310  132.3290   84.7870 C.2    84  TRP84       0.2619
    111  O         33.2620  131.2960   84.4360 O.2    84  TRP84      -0.2715
    112  CB        33.8510  132.6850   87.2760 C.3    84  TRP84       0.0590
    113  CG        35.3330  132.8490   87.3620 C.ar   84  TRP84       0.0006
    114  CD1       36.2730  131.8610   87.3730 C.ar   84  TRP84       0.0946
    115  CD2       36.0500  134.0860   87.4290 C.ar   84  TRP84       0.0152
    116  NE1       37.5310  132.4070   87.4550 N.ar   84  TRP84      -0.2442
    117  CE2       37.4210  133.7730   87.4910 C.ar   84  TRP84       0.0810
    118  CE3       35.6630  135.4300   87.4520 C.ar   84  TRP84       0.0012
    119  CZ2       38.4080  134.7530   87.5710 C.ar   84  TRP84       0.0191
    120  CZ3       36.6430  136.4010   87.5320 C.ar   84  TRP84       0.0001
    121  CH2       37.9990  136.0580   87.5900 C.ar   84  TRP84       0.0015
    122  N         34.9350  132.7790   84.2030 N.am   85  CYS85      -0.1968
    123  CA        35.5290  132.0870   83.0660 C.3    85  CYS85       0.1712
    124  C         36.8540  131.4280   83.4380 C.2    85  CYS85       0.2296
    125  O         37.8320  132.1060   83.7540 O.2    85  CYS85      -0.2864
    126  CB        35.7280  133.0560   81.9000 C.3    85  CYS85       0.0983
    127  SG        34.2370  133.3580   80.9220 S.3    85  CYS85      -0.0798
    128  N         40.1910  129.7610   82.6610 N.3    87  GLY87      -0.1225
    129  CA        41.1870  129.6580   81.6120 C.3    87  GLY87       0.1811
    130  C         41.7490  131.0090   81.2200 C.2    87  GLY87       0.2280
    131  O         41.7500  131.9500   82.0120 O.2    87  GLY87      -0.2866
    132  N         24.6870  136.0140   67.4040 N.3   120  LEU120     -0.1245
    133  CA        24.6690  137.4420   67.6970 C.3   120  LEU120      0.1561
    134  C         24.0300  138.2380   66.5650 C.2   120  LEU120      0.2260
    135  O         23.1020  139.0180   66.7850 O.2   120  LEU120     -0.2867
    136  CB        26.0890  137.9520   67.9520 C.3   120  LEU120      0.0270
    137  CG        26.7390  137.5430   69.2730 C.3   120  LEU120      0.0019
    138  CD1       28.1690  138.0590   69.3500 C.3   120  LEU120      0.0001
    139  CD2       25.9190  138.0360   70.4540 C.3   120  LEU120      0.0001
    140  N         22.5860  142.0200   66.3690 N.3   125  ILE125     -0.1231
    141  CA        23.5910  142.6270   67.2380 C.3   125  ILE125      0.1692
    142  C         24.9530  142.7550   66.5550 C.2   125  ILE125      0.2592
    143  O         25.4360  141.8100   65.9280 O.2   125  ILE125     -0.2718
    144  CB        23.7530  141.8190   68.5420 C.3   125  ILE125      0.0266
    145  CG1       22.3830  141.5220   69.1580 C.3   125  ILE125      0.0019
    146  CG2       24.6320  142.5660   69.5320 C.3   125  ILE125      0.0020
    147  CD1       22.4490  140.6920   70.4240 C.3   125  ILE125      0.0001
    148  N         25.5710  143.9260   66.6780 N.am  126  ILE126     -0.1966
    149  CA        26.9240  144.1300   66.1640 C.3   126  ILE126      0.1727
    150  C         27.9170  144.1080   67.3210 C.2   126  ILE126      0.2616
    151  O         27.7440  144.8260   68.3030 O.2   126  ILE126     -0.2715
    152  CB        27.0630  145.4640   65.4050 C.3   126  ILE126      0.0290
    153  CG1       25.9990  145.5820   64.3150 C.3   126  ILE126      0.0022
    154  CG2       28.4650  145.6130   64.8250 C.3   126  ILE126      0.0023
    155  CD1       26.1280  146.8290   63.4640 C.3   126  ILE126      0.0001
    156  N         28.9590  143.2910   67.2050 N.am  127  HIS127     -0.1973
    157  CA        29.9530  143.1650   68.2690 C.3   127  HIS127      0.1656
    158  C         30.8440  144.4090   68.3690 C.2   127  HIS127      0.2291
    159  O         31.0890  144.9080   69.4670 O.2   127  HIS127     -0.2864
    160  CB        30.8060  141.9150   68.0590 C.3   127  HIS127      0.0771
    161  CG        31.6380  141.5470   69.2490 C.ar  127  HIS127      0.0820
    162  ND1       32.7580  142.2610   69.6280 N.ar  127  HIS127     -0.2267
    163  CD2       31.5280  140.5300   70.1360 C.ar  127  HIS127      0.1154
    164  CE1       33.2940  141.7020   70.6990 C.ar  127  HIS127      0.1986
    165  NE2       32.5600  140.6570   71.0330 N.ar  127  HIS127     -0.2212
    166  N         37.0370  133.9920   75.1270 N.3   136  PHE136     -0.1241
    167  CA        37.5530  133.3050   76.3010 C.3   136  PHE136      0.1605
    168  C         37.3860  131.7960   76.1910 C.2   136  PHE136      0.2264
    169  O         36.2780  131.3020   75.9820 O.2   136  PHE136     -0.2867
    170  CB        36.8650  133.8160   77.5670 C.3   136  PHE136      0.0534
    171  CG        37.7480  133.7930   78.7800 C.ar  136  PHE136     -0.0203
    172  CD1       38.0740  132.5950   79.3910 C.ar  136  PHE136     -0.0042
    173  CD2       38.2640  134.9680   79.3010 C.ar  136  PHE136     -0.0042
    174  CE1       38.8970  132.5670   80.5020 C.ar  136  PHE136     -0.0003
    175  CE2       39.0890  134.9470   80.4130 C.ar  136  PHE136     -0.0003
    176  CZ        39.4040  133.7450   81.0150 C.ar  136  PHE136     -0.0000
    177  N         32.3070  134.1260   73.9780 N.3   145  ILE145     -0.1231
    178  CA        32.4640  135.4510   73.3900 C.3   145  ILE145      0.1692
    179  C         31.8900  136.5420   74.2940 C.2   145  ILE145      0.2593
    180  O         30.7820  136.4090   74.8140 O.2   145  ILE145     -0.2718
    181  CB        31.7840  135.5370   72.0050 C.3   145  ILE145      0.0266
    182  CG1       32.2610  134.4000   71.1010 C.3   145  ILE145      0.0019
    183  CG2       32.0550  136.8860   71.3530 C.3   145  ILE145      0.0020
    184  CD1       31.6750  134.4460   69.7060 C.3   145  ILE145      0.0001
    185  N         32.6550  137.6130   74.4820 N.am  146  GLY146     -0.1942
    186  CA        32.2190  138.7480   75.2760 C.3   146  GLY146      0.2014
    187  C         32.9640  140.0070   74.8800 C.2   146  GLY146      0.2639
    188  O         33.7070  140.0110   73.9000 O.2   146  GLY146     -0.2714
    189  N         32.7580  141.0840   75.6290 N.am  147  ASP147     -0.1957
    190  CA        33.5540  142.2910   75.4520 C.3   147  ASP147      0.1840
    191  C         34.1760  142.7070   76.7750 C.2   147  ASP147      0.2622
    192  O         33.4660  143.0240   77.7280 O.2   147  ASP147     -0.2715
    193  CB        32.7030  143.4180   74.8640 C.3   147  ASP147      0.1450
    194  CG        33.5160  144.6640   74.5440 C.2   147  ASP147      0.3671
    195  OD1       34.7630  144.5910   74.5360 O.co2 147  ASP147     -0.2456
    196  OD2       32.9050  145.7110   74.2480 O.co2 147  ASP147     -0.2456
    197  N         35.5030  142.6820   76.8380 N.am  148  PHE148     -0.1974
    198  CA        36.2070  143.0010   78.0750 C.3   148  PHE148      0.1639
    199  C         37.0400  144.2710   77.9260 C.2   148  PHE148      0.2290
    200  O         36.6340  145.3460   78.3690 O.2   148  PHE148     -0.2864
    201  CB        37.0990  141.8330   78.5020 C.3   148  PHE148      0.0560
    202  CG        36.4560  140.4840   78.3300 C.ar  148  PHE148     -0.0200
    203  CD1       35.5170  140.0320   79.2400 C.ar  148  PHE148     -0.0042
    204  CD2       36.8070  139.6600   77.2720 C.ar  148  PHE148     -0.0042
    205  CE1       34.9240  138.7930   79.0920 C.ar  148  PHE148     -0.0003
    206  CE2       36.2190  138.4170   77.1200 C.ar  148  PHE148     -0.0003
    207  CZ        35.2770  137.9840   78.0320 C.ar  148  PHE148     -0.0000
@<TRIPOS>BOND
     1   155   153    1
     2   153   152    1
     3   154   152    1
     4   152   149    1
     5   143   142    2
     6   149   148    1
     7   149   150    1
     8   140   141    1
     9   142   148   am
    10   142   141    1
    11   134   135    2
    12   134   133    1
    13   156   150   am
    14   156   157    1
    15   141   144    1
    16   150   151    2
    17   132   133    1
    18   133   136    1
    19   136   137    1
    20   160   157    1
    21   160   161    1
    22   157   158    1
    23   158   159    2
    24   144   145    1
    25   144   146    1
    26   145   147    1
    27   161   162   ar
    28   161   163   ar
    29   137   138    1
    30   137   139    1
    31   162   164   ar
    32   184   182    1
    33   163   165   ar
    34   164   165   ar
    35   182   181    1
    36   183   181    1
    37    75    73    1
    38   181   178    1
    39    73    72    1
    40    51    50    1
    41   178   177    1
    42   178   179    1
    43    68    69    1
    44    72    69    1
    45    72    74    1
    46   188   187    2
    47    67    65    1
    48    50    47    1
    49    50    52    1
    50   196   194   ar
    51    69    70    1
    52   179   185   am
    53   179   180    2
    54   185   186    1
    55   195   194   ar
    56   194   193    1
    57    62    65    1
    58    62    61    1
    59    62    63    1
    60    65    66    1
    61   193   190    1
    62   187   186    1
    63   187   189   am
    64    47    48    1
    65    47    46    1
    66    49    48    2
    67   166   167    1
    68    63    64    2
    69   190   189    1
    70   190   191    1
    71    48    53   am
    72    70    76   am
    73    70    71    2
    74   169   168    2
    75   168   167    1
    76   167   170    1
    77    76    77    1
    78    53    54    1
    79   191   197   am
    80   191   192    2
    81   197   198    1
    82   206   204   ar
    83   206   207   ar
    84   204   202   ar
    85    54    55    1
    86    54    57    1
    87    60    58    1
    88   170   171    1
    89    37    38    1
    90    77    80    1
    91    77    78    1
    92    38    39    1
    93    38    41    1
    94   199   198    1
    95   199   200    2
    96    55    56    2
    97    79    78    2
    98   207   205   ar
    99   198   201    1
   100    80    81    1
   101    40    39    2
   102   202   201    1
   103   202   203   ar
   104    58    57    1
   105    58    59    1
   106    41    42    1
   107   171   173   ar
   108   171   172   ar
   109    42    43    1
   110   205   203   ar
   111   173   175   ar
   112    43    45   ar
   113    43    44   ar
   114   172   174   ar
   115    81    83    1
   116    81    82    1
   117   175   176   ar
   118   174   176   ar
   119   106   105    2
   120    36    35    1
   121   127   126    1
   122   130   129    1
   123   130   131    2
   124   129   128    1
   125   105   107   am
   126   105   104    1
   127   126   123    1
   128    35    34    1
   129   104   103    1
   130    91    89    1
   131    98    96    1
   132   123   124    1
   133   123   122    1
   134    34    33    1
   135   124   125    2
   136    96    97    1
   137    96    93    1
   138    90    88    1
   139   103   100    1
   140    89    88    1
   141   122   110   am
   142   102   101    2
   143   111   110    2
   144    33    32    1
   145    99   100    1
   146    99    94   am
   147    88    85    1
   148    93    94    1
   149    93    92    1
   150   110   109    1
   151   100   101    1
   152   101   108   am
   153    32    29    1
   154    15    13    1
   155    94    95    2
   156   108   109    1
   157   109   112    1
   158     7     5    1
   159    85    86    1
   160    85    84    1
   161    13    14    1
   162    13    10    1
   163    86    87    2
   164    20    17    1
   165    29    28    1
   166    29    30    1
   167     4     3    2
   168    28    23   am
   169     5     6    1
   170     5     2    1
   171   112   113    1
   172     3     2    1
   173    31    30    2
   174    19    18    2
   175   113   114   ar
   176   113   115   ar
   177   114   116   ar
   178   115   118   ar
   179   115   117   ar
   180   118   120   ar
   181   116   117   ar
   182   117   119   ar
   183   120   121   ar
   184   119   121   ar
   185    10     9    1
   186    10    11    1
   187    17    18    1
   188    17    16    1
   189    18    21   am
   190     6     8    1
   191     2     1    1
   192    23    22    1
   193    23    24    2
   194    21    22    1
   195    22    25    1
   196    11    12    2
   197    25    26    1
   198    25    27    1
