@<TRIPOS>MOLECULE
tmp/4rzyA00.pdb
 116 108 0 0 0
SMALL
GASTEIGER

@<TRIPOS>ATOM
      1  N        -33.2430   79.4110    8.5340 N.3   256  GLU256     -0.1231
      2  CA       -32.4770   80.6080    8.9150 C.3   256  GLU256      0.1699
      3  C        -33.2550   81.6850    9.6660 C.2   256  GLU256      0.2592
      4  O        -32.6630   82.4800   10.3930 O.2   256  GLU256     -0.2718
      5  CB       -31.8570   81.2540    7.6640 C.3   256  GLU256      0.0402
      6  CG       -30.8140   80.3830    6.9600 C.3   256  GLU256      0.1161
      7  CD       -29.4010   80.8730    7.2220 C.2   256  GLU256      0.3649
      8  OE1      -28.8750   80.6510    8.3400 O.co2 256  GLU256     -0.2457
      9  OE2      -28.8460   81.5080    6.3060 O.co2 256  GLU256     -0.2457
     10  N        -34.5680   81.7430    9.4660 N.am  257  THR257     -0.1953
     11  CA       -35.3820   82.8120   10.0480 C.3   257  THR257      0.1897
     12  C        -36.6040   82.2340   10.7700 C.2   257  THR257      0.2313
     13  O        -36.7360   81.0200   10.8800 O.2   257  THR257     -0.2863
     14  CB       -35.8570   83.8120    8.9480 C.3   257  THR257      0.1794
     15  OG1      -36.8350   83.1750    8.1180 O.3   257  THR257     -0.2208
     16  CG2      -34.6810   84.2640    8.0780 C.3   257  THR257      0.0378
     17  N        -39.6930   83.4030    9.5910 N.3   259  LEU259     -0.1245
     18  CA       -40.5950   84.2230    8.8010 C.3   259  LEU259      0.1561
     19  C        -41.8110   83.4400    8.2960 C.2   259  LEU259      0.2260
     20  O        -41.9160   83.0960    7.1180 O.2   259  LEU259     -0.2867
     21  CB       -39.8400   84.8680    7.6330 C.3   259  LEU259      0.0270
     22  CG       -38.8160   85.9240    8.0860 C.3   259  LEU259      0.0019
     23  CD1      -38.1330   86.5830    6.8790 C.3   259  LEU259      0.0001
     24  CD2      -39.4940   86.9820    8.9520 C.3   259  LEU259      0.0001
     25  N        -41.7540   90.8330    8.7390 N.3   270  PHE270     -0.1241
     26  CA       -40.6460   90.5020    9.6350 C.3   270  PHE270      0.1605
     27  C        -41.0510   90.3680   11.1260 C.2   270  PHE270      0.2264
     28  O        -40.2490   90.4520   11.9740 O.2   270  PHE270     -0.2867
     29  CB       -39.4890   91.5210    9.5760 C.3   270  PHE270      0.0534
     30  CG       -38.7260   91.4810    8.3130 C.ar  270  PHE270     -0.0203
     31  CD1      -37.7960   90.5070    8.0840 C.ar  270  PHE270     -0.0042
     32  CD2      -38.9740   92.3640    7.3230 C.ar  270  PHE270     -0.0042
     33  CE1      -37.1420   90.4410    6.9200 C.ar  270  PHE270     -0.0003
     34  CE2      -38.2760   92.3000    6.1370 C.ar  270  PHE270     -0.0003
     35  CZ       -37.3710   91.3490    5.9540 C.ar  270  PHE270     -0.0000
     36  N        -41.8360   82.5170    4.4010 N.3   287  ASP287     -0.1239
     37  CA       -40.6200   82.5730    3.6420 C.3   287  ASP287      0.1674
     38  C        -39.7990   81.3790    4.1210 C.2   287  ASP287      0.2266
     39  O        -39.5510   81.2680    5.3100 O.2   287  ASP287     -0.2867
     40  CB       -39.9540   83.9100    3.9210 C.3   287  ASP287      0.1410
     41  CG       -38.6950   84.0900    3.1870 C.2   287  ASP287      0.3668
     42  OD1      -38.1150   83.0760    2.7330 O.co2 287  ASP287     -0.2456
     43  OD2      -38.2980   85.2700    3.0380 O.co2 287  ASP287     -0.2456
     44  N        -36.5570   80.3170    3.6640 N.3   289  ASP289     -0.1239
     45  CA       -35.1980   80.6390    4.1620 C.3   289  ASP289      0.1674
     46  C        -34.5070   79.3940    4.6970 C.2   289  ASP289      0.2266
     47  O        -34.0450   79.3560    5.8440 O.2   289  ASP289     -0.2867
     48  CB       -35.2510   81.7050    5.2680 C.3   289  ASP289      0.1410
     49  CG       -35.7820   83.0430    4.7740 C.2   289  ASP289      0.3668
     50  OD1      -35.4140   83.4850    3.6570 O.co2 289  ASP289     -0.2456
     51  OD2      -36.5730   83.6640    5.5180 O.co2 289  ASP289     -0.2456
     52  N        -34.8280   79.2450   -1.0430 N.3   299  ASP299     -0.1239
     53  CA       -35.3230   80.4580   -0.4610 C.3   299  ASP299      0.1674
     54  C        -36.5210   80.9540   -1.2670 C.2   299  ASP299      0.2266
     55  O        -36.3620   81.6940   -2.2420 O.2   299  ASP299     -0.2867
     56  CB       -34.2110   81.4900   -0.4330 C.3   299  ASP299      0.1410
     57  CG       -34.6180   82.7140    0.2630 C.2   299  ASP299      0.3668
     58  OD1      -35.6010   82.6000    1.0000 O.co2 299  ASP299     -0.2456
     59  OD2      -33.9650   83.7550    0.1000 O.co2 299  ASP299     -0.2456
     60  N        -39.5150   95.4150    0.2640 N.3   358  TYR358     -0.1227
     61  CA       -38.4530   94.5620    0.7870 C.3   358  TYR358      0.1736
     62  C        -37.1060   95.2810    0.7920 C.2   358  TYR358      0.2596
     63  O        -36.9420   96.2850    0.1050 O.2   358  TYR358     -0.2718
     64  CB       -38.3660   93.2860   -0.0440 C.3   358  TYR358      0.0548
     65  CG       -37.8510   92.0970    0.7160 C.ar  358  TYR358     -0.0200
     66  CD1      -38.5440   91.6050    1.8150 C.ar  358  TYR358     -0.0009
     67  CD2      -36.6870   91.4500    0.3230 C.ar  358  TYR358     -0.0009
     68  CE1      -38.0900   90.5190    2.5120 C.ar  358  TYR358      0.0417
     69  CE2      -36.2200   90.3550    1.0150 C.ar  358  TYR358      0.0417
     70  CZ       -36.9260   89.8950    2.1120 C.ar  358  TYR358      0.1957
     71  OH       -36.4740   88.8040    2.8080 O.3   358  TYR358     -0.2866
     72  N        -36.1540   94.7510    1.5590 N.am  359  GLY359     -0.1942
     73  CA       -34.8090   95.2990    1.6460 C.3   359  GLY359      0.2014
     74  C        -33.9840   95.1400    0.3790 C.2   359  GLY359      0.2639
     75  O        -32.8910   95.7000    0.2650 O.2   359  GLY359     -0.2714
     76  N        -34.5020   94.3670   -0.5740 N.am  360  CYS360     -0.1967
     77  CA       -33.8770   94.2240   -1.8820 C.3   360  CYS360      0.1712
     78  C        -34.9160   93.6860   -2.8460 C.2   360  CYS360      0.2296
     79  O        -35.9540   93.1920   -2.4180 O.2   360  CYS360     -0.2864
     80  CB       -32.6710   93.2830   -1.8200 C.3   360  CYS360      0.0983
     81  SG       -33.0940   91.5400   -1.4110 S.3   360  CYS360     -0.0798
     82  N        -31.4580   88.8330   -4.4670 N.3   363  HIS363     -0.1241
     83  CA       -30.1640   88.5520   -3.8570 C.3   363  HIS363      0.1621
     84  C        -29.6740   87.1900   -4.3000 C.2   363  HIS363      0.2264
     85  O        -30.4720   86.3410   -4.6930 O.2   363  HIS363     -0.2867
     86  CB       -30.2570   88.6000   -2.3210 C.3   363  HIS363      0.0745
     87  CG       -31.1460   87.5450   -1.7600 C.ar  363  HIS363      0.0817
     88  ND1      -30.7500   86.2310   -1.6400 N.ar  363  HIS363     -0.2268
     89  CD2      -32.4370   87.5900   -1.3540 C.ar  363  HIS363      0.1154
     90  CE1      -31.7470   85.5180   -1.1530 C.ar  363  HIS363      0.1986
     91  NE2      -32.7840   86.3180   -0.9770 N.ar  363  HIS363     -0.2212
     92  N        -28.1920   82.7340    1.8030 N.3   369  ASP369     -0.1239
     93  CA       -28.1940   84.0060    1.0850 C.3   369  ASP369      0.1674
     94  C        -26.7740   84.4680    0.7990 C.2   369  ASP369      0.2266
     95  O        -25.9150   84.4790    1.6830 O.2   369  ASP369     -0.2867
     96  CB       -28.9170   85.0860    1.8720 C.3   369  ASP369      0.1410
     97  CG       -30.4100   84.8860    1.8930 C.2   369  ASP369      0.3668
     98  OD1      -30.8910   83.8240    1.4200 O.co2 369  ASP369     -0.2456
     99  OD2      -31.1000   85.8000    2.3900 O.co2 369  ASP369     -0.2456
    100  N        -26.4040   91.6460   -3.6180 N.3   373  LEU373     -0.1245
    101  CA       -27.6550   92.1720   -3.1040 C.3   373  LEU373      0.1561
    102  C        -28.0860   93.2390   -4.0810 C.2   373  LEU373      0.2260
    103  O        -27.3250   94.1640   -4.3800 O.2   373  LEU373     -0.2867
    104  CB       -27.5060   92.7330   -1.6750 C.3   373  LEU373      0.0270
    105  CG       -28.7900   93.1630   -0.9570 C.3   373  LEU373      0.0019
    106  CD1      -28.6300   93.0450    0.5490 C.3   373  LEU373      0.0001
    107  CD2      -29.1920   94.5920   -1.3170 C.3   373  LEU373      0.0001
    108  N        -37.6820   88.9060   -5.2600 N.3   398  GLU398     -0.1245
    109  CA       -38.4890   89.1800   -4.0680 C.3   398  GLU398      0.1567
    110  C        -39.6140   90.1690   -4.2840 C.2   398  GLU398      0.2260
    111  O        -39.4760   91.1270   -5.0420 O.2   398  GLU398     -0.2867
    112  CB       -37.6080   89.7560   -2.9500 C.3   398  GLU398      0.0388
    113  CG       -36.3620   88.9700   -2.6770 C.3   398  GLU398      0.1160
    114  CD       -36.5100   88.1550   -1.4280 C.2   398  GLU398      0.3649
    115  OE1      -35.4980   87.9620   -0.7410 O.co2 398  GLU398     -0.2457
    116  OE2      -37.6480   87.7430   -1.1200 O.co2 398  GLU398     -0.2457
@<TRIPOS>BOND
     1   108   109    1
     2   111   110    2
     3    85    84    2
     4    82    83    1
     5   103   102    2
     6    84    83    1
     7   110   109    1
     8   102   101    1
     9   109   112    1
    10    83    86    1
    11   100   101    1
    12   101   104    1
    13   112   113    1
    14    78    79    2
    15    78    77    1
    16   113   114    1
    17    86    87    1
    18    55    54    2
    19    77    80    1
    20    77    76    1
    21    80    81    1
    22    87    88   ar
    23    87    89   ar
    24   104   105    1
    25    88    90   ar
    26   114   116   ar
    27   114   115   ar
    28    89    91   ar
    29   107   105    1
    30    54    53    1
    31    90    91   ar
    32    52    53    1
    33   105   106    1
    34    76    74   am
    35    53    56    1
    36    56    57    1
    37    64    65    1
    38    64    61    1
    39    59    57   ar
    40    63    62    2
    41    57    58   ar
    42    60    61    1
    43    75    74    2
    44    67    65   ar
    45    67    69   ar
    46    74    73    1
    47    65    66   ar
    48    61    62    1
    49    62    72   am
    50    94    93    1
    51    94    95    2
    52    69    70   ar
    53    93    92    1
    54    93    96    1
    55    98    97   ar
    56    72    73    1
    57    66    68   ar
    58    96    97    1
    59    97    99   ar
    60    70    68   ar
    61    70    71    1
    62    42    41   ar
    63    43    41   ar
    64    41    40    1
    65    37    40    1
    66    37    38    1
    67    37    36    1
    68    50    49   ar
    69    44    45    1
    70    38    39    2
    71    45    46    1
    72    45    48    1
    73    46    47    2
    74    49    48    1
    75    49    51   ar
    76    35    34   ar
    77    35    33   ar
    78    34    32   ar
    79     9     7   ar
    80    23    22    1
    81    33    31   ar
    82     6     7    1
    83     6     5    1
    84    20    19    2
    85     7     8   ar
    86    32    30   ar
    87    21    22    1
    88    21    18    1
    89     5     2    1
    90    16    14    1
    91    31    30   ar
    92    22    24    1
    93    15    14    1
    94    19    18    1
    95    30    29    1
    96     1     2    1
    97    25    26    1
    98    18    17    1
    99     2     3    1
   100    14    11    1
   101    10     3   am
   102    10    11    1
   103    29    26    1
   104    26    27    1
   105     3     4    2
   106    11    12    1
   107    12    13    2
   108    27    28    2
