@<TRIPOS>MOLECULE
tmp/4s02A01.pdb
 97 94 0 0 0
SMALL
GASTEIGER

@<TRIPOS>ATOM
      1  N          5.5130  108.1190    7.1740 N.3    12  TYR12      -0.1241
      2  CA         6.6870  108.5060    7.9270 C.3    12  TYR12       0.1605
      3  C          8.0030  108.1280    7.1850 C.2    12  TYR12       0.2264
      4  O          8.0180  107.2320    6.3570 O.2    12  TYR12      -0.2867
      5  CB         6.6960  107.8780    9.3100 C.3    12  TYR12       0.0534
      6  CG         6.8730  106.3980    9.3400 C.ar   12  TYR12      -0.0201
      7  CD1        8.1330  105.8050    9.3840 C.ar   12  TYR12      -0.0009
      8  CD2        5.7640  105.5850    9.2820 C.ar   12  TYR12      -0.0009
      9  CE1        8.2550  104.4350    9.3730 C.ar   12  TYR12       0.0417
     10  CE2        5.8760  104.2480    9.2200 C.ar   12  TYR12       0.0417
     11  CZ         7.0730  103.6890    9.3390 C.ar   12  TYR12       0.1957
     12  OH         7.0750  102.3610    9.2970 O.3    12  TYR12      -0.2866
     13  N         13.6830   98.8980    4.0460 N.3    28  ASP28      -0.1239
     14  CA        12.2290   99.0620    3.8300 C.3    28  ASP28       0.1674
     15  C         11.4470   99.3450    5.1260 C.2    28  ASP28       0.2266
     16  O         10.2100   99.4350    5.1260 O.2    28  ASP28      -0.2867
     17  CB        11.6600   97.8340    3.1130 C.3    28  ASP28       0.1410
     18  CG        12.3090   97.6040    1.7550 C.2    28  ASP28       0.3668
     19  OD1       12.7550   98.5870    1.1310 O.co2  28  ASP28      -0.2456
     20  OD2       12.3980   96.4370    1.3220 O.co2  28  ASP28      -0.2456
     21  N         10.6860  103.8130    5.8460 N.3    31  ARG31      -0.1231
     22  CA         9.5230  104.5950    5.4390 C.3    31  ARG31       0.1694
     23  C          8.3250  103.6670    5.4830 C.2    31  ARG31       0.2593
     24  O          8.4660  102.4690    5.3090 O.2    31  ARG31      -0.2718
     25  CB         9.7030  105.1880    4.0380 C.3    31  ARG31       0.0321
     26  CG        11.1360  105.4080    3.5880 C.3    31  ARG31       0.0489
     27  CD        11.2160  105.7750    2.1090 C.3    31  ARG31       0.2205
     28  NE        11.0290  107.2150    1.8990 N.pl3  31  ARG31      -0.0865
     29  CZ         9.8510  107.8040    1.7210 C.cat  31  ARG31       0.5346
     30  NH1        8.7440  107.0790    1.7010 N.pl3  31  ARG31       0.1354
     31  NH2        9.7800  109.1260    1.5640 N.pl3  31  ARG31       0.1354
     32  N          7.1520  104.2300    5.7310 N.am   32  GLY32      -0.1942
     33  CA         5.9000  103.4850    5.7920 C.3    32  GLY32       0.2014
     34  C          4.7100  104.4190    5.6710 C.2    32  GLY32       0.2639
     35  O          4.8390  105.5960    5.8410 O.2    32  GLY32      -0.2714
     36  N          3.5580  103.8570    5.3670 N.am   33  ARG33      -0.1963
     37  CA         2.3420  104.6230    5.1740 C.3    33  ARG33       0.1729
     38  C          1.1560  103.7310    5.4650 C.2    33  ARG33       0.2616
     39  O          1.1350  102.5450    5.1000 O.2    33  ARG33      -0.2715
     40  CB         2.2590  105.1040    3.7220 C.3    33  ARG33       0.0348
     41  CG         1.3100  106.2680    3.4890 C.3    33  ARG33       0.0492
     42  CD         1.3160  106.6260    1.9870 C.3    33  ARG33       0.2205
     43  NE         0.6420  107.8960    1.7900 N.pl3  33  ARG33      -0.0865
     44  CZ        -0.6370  108.0500    1.5380 C.cat  33  ARG33       0.5346
     45  NH1       -1.1280  109.2920    1.4210 N.pl3  33  ARG33       0.1354
     46  NH2       -1.4290  106.9970    1.3980 N.pl3  33  ARG33       0.1354
     47  N          0.1730  104.2980    6.1400 N.am   34  MET34      -0.1977
     48  CA        -1.1170  103.6720    6.3410 C.3    34  MET34       0.1605
     49  C         -2.2330  104.6610    6.0270 C.2    34  MET34       0.2287
     50  O         -2.0630  105.8610    6.1400 O.2    34  MET34      -0.2864
     51  CB        -1.2500  103.1580    7.7630 C.3    34  MET34       0.0413
     52  CG        -0.2390  102.0610    8.1030 C.3    34  MET34       0.0598
     53  SD        -0.5870  101.4570    9.7870 S.3    34  MET34      -0.1393
     54  CE        -1.8840  100.2850    9.6100 C.3    34  MET34       0.0692
     55  N         -1.7770  102.5430   14.1340 N.3    76  PHE76      -0.1241
     56  CA        -0.3590  102.7050   14.1350 C.3    76  PHE76       0.1605
     57  C          0.1470  103.1400   15.5130 C.2    76  PHE76       0.2264
     58  O         -0.3460  104.1230   16.0380 O.2    76  PHE76      -0.2867
     59  CB         0.0360  103.7780   13.1280 C.3    76  PHE76       0.0534
     60  CG         1.5130  103.8080   12.8860 C.ar   76  PHE76      -0.0203
     61  CD1        2.3430  104.5480   13.6850 C.ar   76  PHE76      -0.0042
     62  CD2        2.0570  103.0960   11.8260 C.ar   76  PHE76      -0.0042
     63  CE1        3.7280  104.5220   13.4460 C.ar   76  PHE76      -0.0003
     64  CE2        3.4400  103.0320   11.6000 C.ar   76  PHE76      -0.0003
     65  CZ         4.2560  103.7990   12.3910 C.ar   76  PHE76      -0.0000
     66  N          1.4970   97.0200   20.8610 N.3    97  TYR97      -0.1241
     67  CA         1.4670   96.5390   19.4750 C.3    97  TYR97       0.1605
     68  C          0.9670   95.1150   19.3690 C.2    97  TYR97       0.2264
     69  O          0.0760   94.8380   18.5840 O.2    97  TYR97      -0.2867
     70  CB         2.8870   96.6760   18.8840 C.3    97  TYR97       0.0534
     71  CG         3.0670   96.0900   17.5300 C.ar   97  TYR97      -0.0201
     72  CD1        2.6050   96.7640   16.3710 C.ar   97  TYR97      -0.0009
     73  CD2        3.8000   94.9270   17.3700 C.ar   97  TYR97      -0.0009
     74  CE1        2.8350   96.1940   15.0940 C.ar   97  TYR97       0.0417
     75  CE2        4.0430   94.3770   16.1130 C.ar   97  TYR97       0.0417
     76  CZ         3.5600   95.0140   14.9900 C.ar   97  TYR97       0.1957
     77  OH         3.8190   94.4210   13.7800 O.3    97  TYR97      -0.2866
     78  N         -1.9790   96.3900   12.3020 N.3   107  VAL107     -0.1231
     79  CA        -1.2240   97.2810   13.1490 C.3   107  VAL107      0.1692
     80  C          0.1330   97.6180   12.5430 C.2   107  VAL107      0.2593
     81  O          0.8960   96.7150   12.1780 O.2   107  VAL107     -0.2718
     82  CB        -1.0240   96.7180   14.5560 C.3   107  VAL107      0.0266
     83  CG1       -0.4860   97.7870   15.5320 C.3   107  VAL107      0.0020
     84  CG2       -2.3470   96.2490   15.1720 C.3   107  VAL107      0.0020
     85  N          0.4960   98.8620   12.5670 N.am  108  GLY108     -0.1942
     86  CA         1.8450   99.2580   12.1770 C.3   108  GLY108      0.2014
     87  C          2.5980   99.8430   13.3760 C.2   108  GLY108      0.2638
     88  O          1.9970  100.2730   14.4080 O.2   108  GLY108     -0.2714
     89  N          3.9140   99.8490   13.3120 N.am  109  LYS109     -0.1977
     90  CA         4.7100  100.4830   14.3830 C.3   109  LYS109      0.1596
     91  C          5.9540  101.1470   13.7970 C.2   109  LYS109      0.2287
     92  O          6.3530  100.8430   12.6910 O.2   109  LYS109     -0.2864
     93  CB         5.1210   99.5570   15.5170 C.3   109  LYS109      0.0298
     94  CG         6.2040   98.4970   15.2680 C.3   109  LYS109      0.0038
     95  CD         6.5270   97.6960   16.5440 C.3   109  LYS109      0.0206
     96  CE         7.7650   96.8130   16.3070 C.3   109  LYS109      0.1093
     97  NZ         8.0120   95.8440   17.3680 N.3   109  LYS109     -0.1314
@<TRIPOS>BOND
     1    19    18   ar
     2    20    18   ar
     3    46    44    1
     4    45    44    1
     5    44    43    2
     6    31    29    1
     7    30    29    1
     8    29    28    2
     9    18    17    1
    10    43    42    1
    11    28    27    1
    12    42    41    1
    13    27    26    1
    14    17    14    1
    15    41    40    1
    16    26    25    1
    17    40    37    1
    18    14    13    1
    19    14    15    1
    20    25    22    1
    21    39    38    2
    22    16    15    2
    23    37    36    1
    24    37    38    1
    25    24    23    2
    26    36    34   am
    27    22    23    1
    28    22    21    1
    29    38    47   am
    30    23    32   am
    31    34    33    1
    32    34    35    2
    33    32    33    1
    34    49    50    2
    35    49    48    1
    36    47    48    1
    37    48    51    1
    38     4     3    2
    39     1     2    1
    40     3     2    1
    41    51    52    1
    42     2     5    1
    43    52    53    1
    44    10     8   ar
    45    10    11   ar
    46     8     6   ar
    47    12    11    1
    48     5     6    1
    49    11     9   ar
    50     6     7   ar
    51     9     7   ar
    52    54    53    1
    53    64    62   ar
    54    64    65   ar
    55    62    60   ar
    56    86    85    1
    57    86    87    1
    58    81    80    2
    59    78    79    1
    60    65    63   ar
    61    80    85   am
    62    80    79    1
    63    92    91    2
    64    60    59    1
    65    60    61   ar
    66    59    56    1
    67    79    82    1
    68    89    87   am
    69    89    90    1
    70    87    88    2
    71    63    61   ar
    72    77    76    1
    73    91    90    1
    74    55    56    1
    75    56    57    1
    76    90    93    1
    77    82    84    1
    78    82    83    1
    79    76    74   ar
    80    76    75   ar
    81    74    72   ar
    82    94    93    1
    83    94    95    1
    84    57    58    2
    85    75    73   ar
    86    96    95    1
    87    96    97    1
    88    72    71   ar
    89    73    71   ar
    90    71    70    1
    91    69    68    2
    92    70    67    1
    93    68    67    1
    94    67    66    1
