@<TRIPOS>MOLECULE
tmp/4s0fA01.pdb
 85 82 0 0 0
SMALL
GASTEIGER

@<TRIPOS>ATOM
      1  N         80.1290   21.8380   39.8000 N.3   447  PHE447     -0.1241
      2  CA        79.1580   21.3290   38.8380 C.3   447  PHE447      0.1605
      3  C         78.3710   20.1590   39.4200 C.2   447  PHE447      0.2264
      4  O         77.3690   19.7280   38.8490 O.2   447  PHE447     -0.2867
      5  CB        79.8560   20.9010   37.5460 C.3   447  PHE447      0.0534
      6  CG        80.5040   22.0330   36.7280 C.ar  447  PHE447     -0.0203
      7  CD1       80.0600   23.3300   36.8770 C.ar  447  PHE447     -0.0042
      8  CD2       81.4970   21.7030   35.8100 C.ar  447  PHE447     -0.0042
      9  CE1       80.6390   24.2980   36.0840 C.ar  447  PHE447     -0.0003
     10  CE2       82.0620   22.6790   35.0240 C.ar  447  PHE447     -0.0003
     11  CZ        81.6160   23.9810   35.1750 C.ar  447  PHE447     -0.0000
     12  N         75.7800   22.1210   41.6220 N.3   450  LYS450     -0.1245
     13  CA        74.8900   22.8430   40.7170 C.3   450  LYS450      0.1561
     14  C         73.7040   21.9850   40.2870 C.2   450  LYS450      0.2260
     15  O         72.6730   22.5070   39.8590 O.2   450  LYS450     -0.2867
     16  CB        75.6590   23.3270   39.4860 C.3   450  LYS450      0.0271
     17  CG        74.7790   24.2510   38.6090 C.3   450  LYS450      0.0035
     18  CD        75.5770   24.7280   37.4030 C.3   450  LYS450      0.0206
     19  CE        75.5930   23.5730   36.3930 C.3   450  LYS450      0.1093
     20  NZ        76.3530   24.0370   35.1860 N.3   450  LYS450     -0.1314
     21  N         70.2450   13.4230   32.0800 N.3   464  ALA464     -0.1231
     22  CA        69.5870   14.3510   31.1670 C.3   464  ALA464      0.1694
     23  C         70.4970   15.5290   30.8500 C.2   464  ALA464      0.2592
     24  O         70.5780   15.9780   29.7060 O.2   464  ALA464     -0.2718
     25  CB        68.2720   14.8350   31.7600 C.3   464  ALA464      0.0304
     26  N         71.1800   16.0240   31.8780 N.am  465  ASN465     -0.1960
     27  CA        72.1240   17.1220   31.7270 C.3   465  ASN465      0.1819
     28  C         73.5140   16.6520   32.1280 C.2   465  ASN465      0.2621
     29  O         73.6970   16.1070   33.2160 O.2   465  ASN465     -0.2715
     30  CB        71.7030   18.3230   32.5740 C.3   465  ASN465      0.1195
     31  CG        71.8720   18.6840   34.0020 C.2   465  ASN465      0.2630
     32  OD1       71.4600   17.5740   34.3690 O.2   465  ASN465     -0.2716
     33  ND2       72.4720   19.4230   34.4790 N.am  465  ASN465     -0.0877
     34  N         74.4940   16.8790   31.2580 N.am  466  LEU466     -0.1963
     35  CA        75.8560   16.4180   31.5080 C.3   466  LEU466      0.1728
     36  C         76.8810   17.1100   30.6110 C.2   466  LEU466      0.2617
     37  O         76.6410   17.3160   29.4200 O.2   466  LEU466     -0.2715
     38  CB        75.9430   14.9010   31.3200 C.3   466  LEU466      0.0311
     39  CG        77.2670   14.2170   31.6280 C.3   466  LEU466      0.0022
     40  CD1       77.5330   14.1900   33.1280 C.3   466  LEU466      0.0001
     41  CD2       77.2810   12.7980   31.0640 C.3   466  LEU466      0.0001
     42  N         78.0220   17.4700   31.1970 N.am  467  SER467     -0.1936
     43  CA        79.1080   18.1140   30.4620 C.3   467  SER467      0.2055
     44  C         80.2420   17.1360   30.2140 C.2   467  SER467      0.2643
     45  O         80.5620   16.3140   31.0730 O.2   467  SER467     -0.2714
     46  CB        79.6390   19.3320   31.2230 C.3   467  SER467      0.2130
     47  OG        80.6460   20.0130   30.5060 O.3   467  SER467     -0.2179
     48  N         80.8480   17.2330   29.0360 N.am  468  GLU468     -0.1963
     49  CA        81.9810   16.3880   28.6800 C.3   468  GLU468      0.1733
     50  C         83.1480   16.6000   29.6410 C.2   468  GLU468      0.2617
     51  O         83.7780   15.6440   30.0850 O.2   468  GLU468     -0.2715
     52  CB        82.4230   16.6670   27.2420 C.3   468  GLU468      0.0429
     53  CG        83.5100   15.7520   26.7150 C.3   468  GLU468      0.1163
     54  CD        83.0290   14.3970   26.3500 C.2   468  GLU468      0.3649
     55  OE1       81.9310   14.2830   25.7470 O.co2 468  GLU468     -0.2457
     56  OE2       83.8690   13.4550   26.5710 O.co2 468  GLU468     -0.2457
     57  N         83.4390   17.8610   29.9410 N.am  469  GLY469     -0.1940
     58  CA        84.4720   18.2010   30.9020 C.3   469  GLY469      0.2014
     59  C         84.1350   17.6890   32.2850 C.2   469  GLY469      0.2638
     60  O         84.9880   17.1340   32.9720 O.2   469  GLY469     -0.2714
     61  N         82.8930   17.9040   32.7040 N.am  470  GLN470     -0.1977
     62  CA        82.4110   17.3820   33.9770 C.3   470  GLN470      0.1601
     63  C         82.4570   15.8550   33.9920 C.2   470  GLN470      0.2287
     64  O         82.6680   15.2420   35.0370 O.2   470  GLN470     -0.2864
     65  CB        80.9880   17.8710   34.2570 C.3   470  GLN470      0.0394
     66  CG        80.4340   17.4010   35.6370 C.3   470  GLN470      0.0908
     67  CD        78.9170   17.5330   35.8020 C.2   470  GLN470      0.2608
     68  OE1       78.2050   17.9150   34.8710 O.2   470  GLN470     -0.2717
     69  NE2       78.4180   17.2230   36.9990 N.am  470  GLN470     -0.0878
     70  N         89.8410   17.0510   26.2380 N.3   495  ASN495     -0.1225
     71  CA        88.3940   16.9920   26.0290 C.3   495  ASN495      0.1785
     72  C         87.7080   18.3550   26.1170 C.2   495  ASN495      0.2597
     73  O         86.8880   18.7010   25.2650 O.2   495  ASN495     -0.2718
     74  CB        87.7550   16.0380   27.0380 C.3   495  ASN495      0.1169
     75  CG        88.3350   14.6300   26.9580 C.2   495  ASN495      0.2627
     76  OD1       87.6040   13.6630   26.7530 O.2   495  ASN495     -0.2716
     77  ND2       89.6480   14.5120   27.1250 N.am  495  ASN495     -0.0877
     78  N         88.0390   19.1240   27.1500 N.am  496  LEU496     -0.1980
     79  CA        87.4330   20.4390   27.3460 C.3   496  LEU496      0.1596
     80  C         88.4630   21.4200   27.8990 C.2   496  LEU496      0.2287
     81  O         88.5390   21.6250   29.1060 O.2   496  LEU496     -0.2864
     82  CB        86.2330   20.3420   28.2860 C.3   496  LEU496      0.0297
     83  CG        85.4170   21.6010   28.5350 C.3   496  LEU496      0.0022
     84  CD1       84.6020   21.9780   27.3040 C.3   496  LEU496      0.0001
     85  CD2       84.4960   21.4140   29.7380 C.3   496  LEU496      0.0001
@<TRIPOS>BOND
     1    73    72    2
     2    55    54   ar
     3    71    72    1
     4    71    70    1
     5    71    74    1
     6    72    78   am
     7    54    56   ar
     8    54    53    1
     9    53    52    1
    10    76    75    2
    11    75    74    1
    12    75    77   am
    13    78    79    1
    14    52    49    1
    15    84    83    1
    16    79    80    1
    17    79    82    1
    18    80    81    2
    19    82    83    1
    20    83    85    1
    21    49    48    1
    22    49    50    1
    23    48    44   am
    24    37    36    2
    25    50    57   am
    26    50    51    2
    27    24    23    2
    28    57    58    1
    29    44    43    1
    30    44    45    2
    31    43    42    1
    32    43    46    1
    33    47    46    1
    34    36    42   am
    35    36    35    1
    36    23    22    1
    37    23    26   am
    38    58    59    1
    39    41    39    1
    40    22    25    1
    41    22    21    1
    42    34    35    1
    43    34    28   am
    44    38    35    1
    45    38    39    1
    46    39    40    1
    47    27    26    1
    48    27    28    1
    49    27    30    1
    50    28    29    2
    51    59    61   am
    52    59    60    2
    53    30    31    1
    54    61    62    1
    55    62    63    1
    56    62    65    1
    57    63    64    2
    58    31    32    2
    59    31    33   am
    60    65    66    1
    61    68    67    2
    62    10    11   ar
    63    10     8   ar
    64    11     9   ar
    65    20    19    1
    66    66    67    1
    67    67    69   am
    68     8     6   ar
    69     9     7   ar
    70    19    18    1
    71     6     7   ar
    72     6     5    1
    73    18    17    1
    74     5     2    1
    75    17    16    1
    76     2     3    1
    77     2     1    1
    78     4     3    2
    79    16    13    1
    80    15    14    2
    81    14    13    1
    82    13    12    1
