@<TRIPOS>MOLECULE
tmp/4s0fA00.pdb
 131 122 0 0 0
SMALL
GASTEIGER

@<TRIPOS>ATOM
      1  N         88.0960   -8.7290   23.9060 N.3    99  ASN99      -0.1240
      2  CA        88.1570   -9.1630   22.5130 C.3    99  ASN99       0.1653
      3  C         86.8450   -9.7620   22.0080 C.2    99  ASN99       0.2266
      4  O         86.4160   -9.4840   20.8840 O.2    99  ASN99      -0.2867
      5  CB        89.2890  -10.1760   22.3290 C.3    99  ASN99       0.1155
      6  CG        90.6420   -9.5820   22.3820 C.2    99  ASN99       0.2627
      7  OD1       90.9460   -8.7680   21.5010 O.2    99  ASN99      -0.2716
      8  ND2       91.4350   -9.9070   23.3320 N.am   99  ASN99      -0.0877
      9  N         84.3410   -6.9420   21.7160 N.3   102  ASN102     -0.1240
     10  CA        84.6900   -6.1020   20.5740 C.3   102  ASN102      0.1653
     11  C         84.3910   -6.7780   19.2420 C.2   102  ASN102      0.2266
     12  O         84.1370   -6.1100   18.2390 O.2   102  ASN102     -0.2867
     13  CB        86.1670   -5.7080   20.6320 C.3   102  ASN102      0.1155
     14  CG        86.4270   -4.3710   19.9640 C.2   102  ASN102      0.2627
     15  OD1       85.5220   -3.6820   19.5100 O.2   102  ASN102     -0.2716
     16  ND2       87.7020   -3.9860   19.9200 N.am  102  ASN102     -0.0877
     17  N         96.3790   -7.0150   16.8820 N.3   338  TYR338     -0.1227
     18  CA        94.9710   -7.1640   17.2260 C.3   338  TYR338      0.1736
     19  C         94.1500   -7.5460   15.9960 C.2   338  TYR338      0.2596
     20  O         92.9210   -7.5870   16.0420 O.2   338  TYR338     -0.2718
     21  CB        94.4320   -5.8760   17.8490 C.3   338  TYR338      0.0548
     22  CG        94.2770   -4.7130   16.9040 C.ar  338  TYR338     -0.0200
     23  CD1       93.1550   -4.5770   16.0960 C.ar  338  TYR338     -0.0009
     24  CD2       95.2320   -3.7020   16.8520 C.ar  338  TYR338     -0.0009
     25  CE1       93.0060   -3.4910   15.2480 C.ar  338  TYR338      0.0417
     26  CE2       95.0810   -2.6040   16.0360 C.ar  338  TYR338      0.0417
     27  CZ        93.9660   -2.5080   15.2270 C.ar  338  TYR338      0.1957
     28  OH        93.8250   -1.4130   14.3990 O.3   338  TYR338     -0.2866
     29  N         94.8470   -7.8240   14.8980 N.am  339  GLY339     -0.1957
     30  CA        94.2170   -8.2020   13.6470 C.3   339  GLY339      0.1869
     31  C         95.0760   -9.2070   12.9060 C.2   339  GLY339      0.2309
     32  O         96.1680   -9.5480   13.3610 O.2   339  GLY339     -0.2863
     33  N         99.9620   -3.9420   15.3800 N.3   344  VAL344     -0.1245
     34  CA        99.9400   -2.7020   16.1430 C.3   344  VAL344      0.1561
     35  C        101.3190   -2.4690   16.7400 C.2   344  VAL344      0.2260
     36  O        101.8000   -1.3370   16.8100 O.2   344  VAL344     -0.2867
     37  CB        98.8860   -2.7330   17.2640 C.3   344  VAL344      0.0252
     38  CG1       99.1420   -3.7510   18.3450 C.3   344  VAL344      0.0019
     39  CG2       98.6350   -1.3450   17.8320 C.3   344  VAL344      0.0019
     40  N         96.5640   10.1700   17.4820 N.3   364  SER364     -0.1202
     41  CA        95.5470    9.1580   17.6930 C.3   364  SER364      0.2020
     42  C         95.6330    8.0410   16.6720 C.2   364  SER364      0.2619
     43  O         95.3300    8.2310   15.4940 O.2   364  SER364     -0.2717
     44  CB        94.1580    9.7750   17.6610 C.3   364  SER364      0.2103
     45  OG        93.1620    8.8910   17.8040 O.3   364  SER364     -0.2182
     46  N         96.0310    6.8670   17.1430 N.am  365  GLY365     -0.1956
     47  CA        96.1310    5.7010   16.2920 C.3   365  GLY365      0.1869
     48  C         97.5270    5.1320   16.3230 C.2   365  GLY365      0.2309
     49  O         97.7550    3.9960   15.9100 O.2   365  GLY365     -0.2863
     50  N         99.6470    4.5050   19.0360 N.3   367  GLY367     -0.1210
     51  CA        99.8190    3.4190   19.9840 C.3   367  GLY367      0.1956
     52  C         99.5720    3.7860   21.4350 C.2   367  GLY367      0.2612
     53  O        100.2160    3.2440   22.3340 O.2   367  GLY367     -0.2717
     54  N         98.6420    4.7080   21.6640 N.am  368  LYS368     -0.1965
     55  CA        98.3690    5.1950   23.0090 C.3   368  LYS368      0.1728
     56  C         97.4540    4.2450   23.7870 C.2   368  LYS368      0.2617
     57  O         97.6790    3.9960   24.9700 O.2   368  LYS368     -0.2715
     58  CB        97.7540    6.5950   22.9520 C.3   368  LYS368      0.0311
     59  CG        98.4900    7.6170   22.1120 C.3   368  LYS368      0.0038
     60  CD        97.5920    8.8250   21.8760 C.3   368  LYS368      0.0206
     61  CE        96.2910    8.3960   21.1980 C.3   368  LYS368      0.1093
     62  NZ        95.2610    9.4700   21.1130 N.3   368  LYS368     -0.1314
     63  N         96.4270    3.7170   23.1270 N.am  369  THR369     -0.1937
     64  CA        95.4940    2.7880   23.7710 C.3   369  THR369      0.2028
     65  C         96.1180    1.4210   24.0420 C.2   369  THR369      0.2642
     66  O         95.8050    0.7600   25.0370 O.2   369  THR369     -0.2714
     67  CB        94.2240    2.5830   22.9230 C.3   369  THR369      0.1808
     68  OG1       94.6080    2.0520   21.6640 O.3   369  THR369     -0.2208
     69  CG2       93.4450    3.8720   22.7450 C.3   369  THR369      0.0379
     70  N         97.0010    1.0110   23.1400 N.am  370  THR370     -0.1950
     71  CA        97.6670   -0.2830   23.2160 C.3   370  THR370      0.1897
     72  C         98.5090   -0.4950   24.4760 C.2   370  THR370      0.2313
     73  O         98.5290   -1.5940   25.0200 O.2   370  THR370     -0.2863
     74  CB        98.5700   -0.4980   21.9870 C.3   370  THR370      0.1794
     75  OG1       99.5440    0.5350   21.9620 O.3   370  THR370     -0.2208
     76  CG2       97.7770   -0.5170   20.6950 C.3   370  THR370      0.0378
     77  N         96.1270   -0.9360   27.3960 N.3   373  LYS373     -0.1245
     78  CA        95.4490   -2.2150   27.2010 C.3   373  LYS373      0.1561
     79  C         96.3480   -3.4040   27.5340 C.2   373  LYS373      0.2260
     80  O         95.9050   -4.3810   28.1400 O.2   373  LYS373     -0.2867
     81  CB        94.9460   -2.3370   25.7620 C.3   373  LYS373      0.0271
     82  CG        93.7230   -1.5380   25.4840 C.3   373  LYS373      0.0035
     83  CD        93.4550   -1.5620   24.0000 C.3   373  LYS373      0.0206
     84  CE        92.0480   -1.9230   23.7360 C.3   373  LYS373      0.1093
     85  NZ        91.8580   -1.9930   22.2820 N.3   373  LYS373     -0.1314
     86  N         93.9740   -6.8850   26.1780 N.3   379  TYR379     -0.1241
     87  CA        94.3670   -7.6710   25.0170 C.3   379  TYR379      0.1605
     88  C         95.7230   -8.3130   25.2800 C.2   379  TYR379      0.2264
     89  O         96.7100   -7.6170   25.5190 O.2   379  TYR379     -0.2867
     90  CB        94.4190   -6.8000   23.7610 C.3   379  TYR379      0.0534
     91  CG        94.7150   -7.5820   22.5040 C.ar  379  TYR379     -0.0201
     92  CD1       93.8320   -8.5680   22.0590 C.ar  379  TYR379     -0.0009
     93  CD2       95.8850   -7.3590   21.7670 C.ar  379  TYR379     -0.0009
     94  CE1       94.1000   -9.3220   20.9070 C.ar  379  TYR379      0.0417
     95  CE2       96.1670   -8.1130   20.6080 C.ar  379  TYR379      0.0417
     96  CZ        95.2630   -9.0960   20.1900 C.ar  379  TYR379      0.1957
     97  OH        95.5230   -9.8780   19.0830 O.3   379  TYR379     -0.2866
     98  N         88.6910    7.8940   26.8780 N.3   410  GLN410     -0.1245
     99  CA        88.2490    9.0730   26.1510 C.3   410  GLN410      0.1566
    100  C         86.7330    9.0660   26.0540 C.2   410  GLN410      0.2260
    101  O         86.0840   10.1070   26.1570 O.2   410  GLN410     -0.2867
    102  CB        88.8680    9.1190   24.7590 C.3   410  GLN410      0.0367
    103  CG        88.6300   10.4360   24.0730 C.3   410  GLN410      0.0905
    104  CD        89.4120   11.5590   24.7210 C.2   410  GLN410      0.2608
    105  OE1       90.6320   11.4820   24.9860 O.2   410  GLN410     -0.2717
    106  NE2       88.7190   12.6550   25.0280 N.am  410  GLN410     -0.0878
    107  N         94.1470    9.1560   29.6610 N.3   490  ASP490     -0.1225
    108  CA        94.1330    9.5430   28.2570 C.3   490  ASP490      0.1805
    109  C         94.1420   11.0600   28.1400 C.2   490  ASP490      0.2597
    110  O         94.2990   11.7670   29.1360 O.2   490  ASP490     -0.2718
    111  CB        92.9130    8.9630   27.5410 C.3   490  ASP490      0.1424
    112  CG        93.0850    7.5080   27.1910 C.2   490  ASP490      0.3668
    113  OD1       93.8280    6.7790   27.8770 O.co2 490  ASP490     -0.2456
    114  OD2       92.4440    7.0750   26.1940 O.co2 490  ASP490     -0.2456
    115  N         93.9720   11.5630   26.9230 N.am  491  GLN491     -0.1979
    116  CA        93.9150   13.0020   26.7040 C.3   491  GLN491      0.1601
    117  C         92.6240   13.5900   27.2690 C.2   491  GLN491      0.2287
    118  O         91.8110   14.1520   26.5340 O.2   491  GLN491     -0.2864
    119  CB        94.0340   13.3190   25.2130 C.3   491  GLN491      0.0394
    120  CG        93.2170   12.4550   24.3010 C.3   491  GLN491      0.0908
    121  CD        93.3380   12.8830   22.8480 C.2   491  GLN491      0.2608
    122  OE1       94.0700   12.2720   22.0680 O.2   491  GLN491     -0.2717
    123  NE2       92.6130   13.9340   22.4820 N.am  491  GLN491     -0.0878
    124  N         97.8470    8.7890   27.4460 N.3   520  ILE520     -0.1245
    125  CA        97.4010    8.4440   26.1020 C.3   520  ILE520      0.1561
    126  C         97.0350    9.7130   25.3410 C.2   520  ILE520      0.2260
    127  O         96.1420    9.7120   24.4940 O.2   520  ILE520     -0.2867
    128  CB        96.1980    7.4830   26.1280 C.3   520  ILE520      0.0252
    129  CG1       96.6180    6.0850   26.6240 C.3   520  ILE520      0.0019
    130  CG2       95.5690    7.3200   24.7430 C.3   520  ILE520      0.0019
    131  CD1       96.7830    5.9830   28.1190 C.3   520  ILE520      0.0001
@<TRIPOS>BOND
     1    31    32    2
     2    31    30    1
     3    30    29    1
     4    28    27    1
     5    29    19   am
     6    27    25   ar
     7    27    26   ar
     8    25    23   ar
     9    33    34    1
    10    43    42    2
    11    49    48    2
    12    19    20    2
    13    19    18    1
    14    26    24   ar
    15    23    22   ar
    16    34    35    1
    17    34    37    1
    18    47    48    1
    19    47    46    1
    20    42    46   am
    21    42    41    1
    22    35    36    2
    23    24    22   ar
    24    17    18    1
    25    22    21    1
    26    18    21    1
    27    37    39    1
    28    37    38    1
    29    40    41    1
    30    44    41    1
    31    44    45    1
    32    12    11    2
    33    50    51    1
    34    97    96    1
    35    11    10    1
    36    15    14    2
    37    16    14   am
    38    14    13    1
    39    51    52    1
    40    96    95   ar
    41    96    94   ar
    42    10    13    1
    43    10     9    1
    44    95    93   ar
    45    76    74    1
    46     4     3    2
    47    94    92   ar
    48    62    61    1
    49    61    60    1
    50    52    54   am
    51    52    53    2
    52     7     6    2
    53    68    67    1
    54    54    55    1
    55    93    91   ar
    56    60    59    1
    57    75    74    1
    58    74    71    1
    59     3     2    1
    60    92    91   ar
    61   122   121    2
    62    59    58    1
    63    85    84    1
    64     5     6    1
    65     5     2    1
    66     6     8   am
    67   123   121   am
    68    91    90    1
    69     2     1    1
    70    69    67    1
    71   121   120    1
    72    67    64    1
    73    58    55    1
    74    55    56    1
    75    63    64    1
    76    63    56   am
    77    70    71    1
    78    70    65   am
    79    71    72    1
    80    84    83    1
    81    90    87    1
    82    64    65    1
    83    56    57    2
    84    83    82    1
    85    65    66    2
    86   103   104    1
    87   103   102    1
    88   120   119    1
    89    72    73    2
    90   127   126    2
    91   104   105    2
    92   104   106   am
    93   130   128    1
    94   102    99    1
    95    87    88    1
    96    87    86    1
    97   119   116    1
    98    88    89    2
    99   126   125    1
   100    82    81    1
   101    81    78    1
   102   100    99    1
   103   100   101    2
   104   125   128    1
   105   125   124    1
   106   128   129    1
   107    99    98    1
   108   114   112   ar
   109   118   117    2
   110   129   131    1
   111   116   115    1
   112   116   117    1
   113   115   109   am
   114   112   111    1
   115   112   113   ar
   116    78    77    1
   117    78    79    1
   118    79    80    2
   119   111   108    1
   120   109   108    1
   121   109   110    2
   122   108   107    1
