@<TRIPOS>MOLECULE
tmp/4s0gA00.pdb
 176 169 0 0 0
SMALL
GASTEIGER

@<TRIPOS>ATOM
      1  N         20.9010   11.9280    5.5180 N.3    28  ARG28      -0.1245
      2  CA        19.6470   11.8620    6.2540 C.3    28  ARG28       0.1563
      3  C         18.5130   11.8600    5.2390 C.2    28  ARG28       0.2260
      4  O         17.5270   11.1510    5.4050 O.2    28  ARG28      -0.2867
      5  CB        19.5200   13.0250    7.2370 C.3    28  ARG28       0.0307
      6  CG        20.2960   12.8490    8.5590 C.3    28  ARG28       0.0489
      7  CD        20.6150   14.2200    9.1950 C.3    28  ARG28       0.2205
      8  NE        22.0320   14.5660    9.0810 N.pl3  28  ARG28      -0.0865
      9  CZ        22.5100   15.8090    9.0530 C.cat  28  ARG28       0.5346
     10  NH1       21.6940   16.8540    9.1160 N.pl3  28  ARG28       0.1354
     11  NH2       23.8170   16.0100    8.9510 N.pl3  28  ARG28       0.1354
     12  N          1.4880   23.0540    4.4840 N.3    44  LEU44      -0.1231
     13  CA         2.4900   23.2810    5.5270 C.3    44  LEU44       0.1693
     14  C          1.9820   22.9250    6.9300 C.2    44  LEU44       0.2592
     15  O          2.7030   22.3010    7.7190 O.2    44  LEU44      -0.2718
     16  CB         2.9650   24.7230    5.4910 C.3    44  LEU44       0.0284
     17  CG         3.8610   25.0090    4.2980 C.3    44  LEU44       0.0019
     18  CD1        3.9880   26.5260    4.1150 C.3    44  LEU44       0.0001
     19  CD2        5.2310   24.3850    4.5110 C.3    44  LEU44       0.0001
     20  N          0.7520   23.2820    7.2780 N.am   45  ASP45      -0.1974
     21  CA         0.3360   22.9660    8.6420 C.3    45  ASP45       0.1709
     22  C         -0.2030   21.5530    8.7730 C.2    45  ASP45       0.2293
     23  O         -0.6910   21.1690    9.8360 O.2    45  ASP45      -0.2864
     24  CB        -0.6790   23.9720    9.1820 C.3    45  ASP45       0.1436
     25  CG        -2.0400   23.9080    8.5180 C.2    45  ASP45       0.3671
     26  OD1       -2.3920   22.9900    7.7440 O.co2  45  ASP45      -0.2456
     27  OD2       -2.8090   24.8340    8.8210 O.co2  45  ASP45      -0.2456
     28  N          1.9510   19.2160    8.3530 N.3    47  ASN47      -0.1225
     29  CA         3.1740   18.5820    8.8190 C.3    47  ASN47       0.1785
     30  C          3.3780   18.9060   10.2900 C.2    47  ASN47       0.2597
     31  O          3.4060   20.0710   10.6630 O.2    47  ASN47      -0.2718
     32  CB         4.3660   19.0390    8.0000 C.3    47  ASN47       0.1169
     33  CG         4.1620   18.8070    6.5340 C.2    47  ASN47       0.2627
     34  OD1        3.8490   17.6940    6.1200 O.2    47  ASN47      -0.2716
     35  ND2        4.2750   19.8620    5.7420 N.am   47  ASN47      -0.0877
     36  N          3.5300   17.8850   11.1260 N.am   48  ARG48      -0.1966
     37  CA         3.7550   18.1370   12.5470 C.3    48  ARG48       0.1729
     38  C          5.0970   18.8350   12.7860 C.2    48  ARG48       0.2616
     39  O          5.2280   19.6760   13.6890 O.2    48  ARG48      -0.2715
     40  CB         3.6880   16.8140   13.3360 C.3    48  ARG48       0.0348
     41  CG         3.8910   16.9800   14.8490 C.3    48  ARG48       0.0492
     42  CD         3.5370   15.7120   15.6310 C.3    48  ARG48       0.2205
     43  NE         2.1010   15.4510   15.6370 N.pl3  48  ARG48      -0.0865
     44  CZ         1.2600   15.9600   16.5230 C.cat  48  ARG48       0.5346
     45  NH1        1.7090   16.7750   17.4830 N.pl3  48  ARG48       0.1354
     46  NH2       -0.0440   15.6670   16.4550 N.pl3  48  ARG48       0.1354
     47  N          6.0840   18.5030   11.9650 N.am   49  TYR49      -0.1960
     48  CA         7.4410   19.0560   12.0930 C.3    49  TYR49       0.1771
     49  C          7.8870   19.5430   10.7340 C.2    49  TYR49       0.2619
     50  O          7.7300   18.8270    9.7510 O.2    49  TYR49      -0.2715
     51  CB         8.4330   18.0070   12.6170 C.3    49  TYR49       0.0574
     52  CG         8.0770   17.5460   13.9970 C.ar   49  TYR49      -0.0198
     53  CD1        8.3360   18.3420   15.0900 C.ar   49  TYR49      -0.0009
     54  CD2        7.4370   16.3310   14.2060 C.ar   49  TYR49      -0.0009
     55  CE1        8.0280   17.9420   16.3510 C.ar   49  TYR49       0.0417
     56  CE2        7.1100   15.9230   15.4770 C.ar   49  TYR49       0.0417
     57  CZ         7.3880   16.7460   16.5430 C.ar   49  TYR49       0.1957
     58  OH         7.0710   16.3810   17.8350 O.3    49  TYR49      -0.2866
     59  N          8.4450   20.7540   10.7160 N.am   50  LYS50      -0.1963
     60  CA         8.8770   21.4720    9.5270 C.3    50  LYS50       0.1728
     61  C          9.9570   20.7300    8.7280 C.2    50  LYS50       0.2616
     62  O         10.0270   20.8320    7.4960 O.2    50  LYS50      -0.2715
     63  CB         9.3940   22.8580    9.9960 C.3    50  LYS50       0.0311
     64  CG         9.8950   23.7780    8.9770 C.3    50  LYS50       0.0038
     65  CD        10.4940   24.9990    9.6850 C.3    50  LYS50       0.0206
     66  CE        11.1060   25.9710    8.6760 C.3    50  LYS50       0.1093
     67  NZ        10.2230   26.1440    7.4850 N.3    50  LYS50      -0.1314
     68  N         10.7390   19.9210    9.4260 N.am   51  ASP51      -0.1957
     69  CA        11.8670   19.2600    8.8000 C.3    51  ASP51       0.1840
     70  C         11.6180   17.7840    8.5130 C.2    51  ASP51       0.2621
     71  O         12.5370   17.1000    8.0690 O.2    51  ASP51      -0.2715
     72  CB        13.1180   19.4010    9.6840 C.3    51  ASP51       0.1450
     73  CG        12.9470   18.8060   11.0830 C.2    51  ASP51       0.3671
     74  OD1       11.7840   18.6570   11.5560 O.co2  51  ASP51      -0.2456
     75  OD2       13.9880   18.5090   11.7380 O.co2  51  ASP51      -0.2456
     76  N         10.4030   17.2970    8.7580 N.am   52  VAL52      -0.1977
     77  CA        10.0770   15.8710    8.4890 C.3    52  VAL52       0.1596
     78  C          8.9580   15.8150    7.4680 C.2    52  VAL52       0.2287
     79  O          7.7830   15.9540    7.8190 O.2    52  VAL52      -0.2864
     80  CB         9.6690   15.1050    9.7650 C.3    52  VAL52       0.0276
     81  CG1        9.3490   13.6340    9.4510 C.3    52  VAL52       0.0022
     82  CG2       10.7490   15.1980   10.8000 C.3    52  VAL52       0.0022
     83  N          2.2480   15.3450   21.6240 N.3   126  LYS126     -0.1245
     84  CA         3.0820   14.6930   20.6100 C.3   126  LYS126      0.1561
     85  C          2.2580   13.9990   19.5180 C.2   126  LYS126      0.2260
     86  O          2.7560   13.6960   18.4240 O.2   126  LYS126     -0.2867
     87  CB         4.0130   13.6760   21.2860 C.3   126  LYS126      0.0271
     88  CG         5.0240   14.3390   22.2550 C.3   126  LYS126      0.0035
     89  CD         5.8680   15.4270   21.5710 C.3   126  LYS126      0.0206
     90  CE         7.3590   15.3260   21.9190 C.3   126  LYS126      0.1093
     91  NZ         8.0620   14.2250   21.1320 N.3   126  LYS126     -0.1314
     92  N         10.4640    9.9130   22.7670 N.3   184  ALA184     -0.1231
     93  CA        10.9900   10.5360   21.5410 C.3   184  ALA184      0.1694
     94  C         12.4750   10.7880   21.7000 C.2   184  ALA184      0.2592
     95  O         12.9290   11.1010   22.7800 O.2   184  ALA184     -0.2718
     96  CB        10.2770   11.8280   21.2330 C.3   184  ALA184      0.0304
     97  N         13.2030   10.6070   20.6130 N.am  185  HIS185     -0.1976
     98  CA        14.6590   10.8100   20.5510 C.3   185  HIS185      0.1656
     99  C         15.4550    9.8560   21.3990 C.2   185  HIS185      0.2291
    100  O         16.6650   10.0240   21.5130 O.2   185  HIS185     -0.2864
    101  CB        15.0020   12.2420   20.9650 C.3   185  HIS185      0.0771
    102  CG        14.0620   13.2480   20.4040 C.ar  185  HIS185      0.0820
    103  ND1       13.9220   13.4420   19.0480 N.ar  185  HIS185     -0.2267
    104  CD2       13.1960   14.0970   21.0040 C.ar  185  HIS185      0.1154
    105  CE1       13.0110   14.3760   18.8410 C.ar  185  HIS185      0.1986
    106  NE2       12.5470   14.7780   20.0090 N.ar  185  HIS185     -0.2212
    107  N          4.9430    7.4170   14.8510 N.3   215  SER215     -0.1202
    108  CA         5.3410    7.8810   16.1750 C.3   215  SER215      0.2020
    109  C          4.8750    9.3450   16.2590 C.2   215  SER215      0.2619
    110  O          3.7350    9.6380   15.8920 O.2   215  SER215     -0.2717
    111  CB         6.8500    7.6910   16.3670 C.3   215  SER215      0.2103
    112  OG         7.5710    8.1670   15.2530 O.3   215  SER215     -0.2182
    113  N          5.7080   10.2690   16.7260 N.am  216  SER216     -0.1937
    114  CA         5.3250   11.6790   16.6590 C.3   216  SER216      0.2055
    115  C          5.6640   12.2470   15.2650 C.2   216  SER216      0.2643
    116  O          4.7990   12.7600   14.5490 O.2   216  SER216     -0.2714
    117  CB         5.9920   12.4990   17.7750 C.3   216  SER216      0.2130
    118  OG         5.4660   13.8260   17.7920 O.3   216  SER216     -0.2179
    119  N          6.9240   12.1860   14.9000 N.am  217  ALA217     -0.1963
    120  CA         7.3690   12.5550   13.5630 C.3   217  ALA217      0.1728
    121  C          7.2980   11.4140   12.5380 C.2   217  ALA217      0.2617
    122  O          7.2510   11.6620   11.3270 O.2   217  ALA217     -0.2715
    123  CB         8.7910   13.0940   13.6480 C.3   217  ALA217      0.0334
    124  N          7.2810   10.1770   13.0020 N.am  218  GLY218     -0.1940
    125  CA         7.2260    9.0400   12.1120 C.3   218  GLY218      0.2014
    126  C          8.5390    8.6760   11.4510 C.2   218  GLY218      0.2639
    127  O          8.5140    8.0450   10.3760 O.2   218  GLY218     -0.2714
    128  N          9.6680    9.0140   12.0870 N.am  219  ILE219     -0.1963
    129  CA        10.9760    8.6430   11.5300 C.3   219  ILE219      0.1727
    130  C         11.9400    7.9540   12.5200 C.2   219  ILE219      0.2617
    131  O         12.6550    7.0270   12.1360 O.2   219  ILE219     -0.2715
    132  CB        11.6780    9.8820   10.9060 C.3   219  ILE219      0.0290
    133  CG1       11.7510   11.0520   11.8900 C.3   219  ILE219      0.0022
    134  CG2       10.9420   10.3240    9.6590 C.3   219  ILE219      0.0023
    135  CD1       12.6510   12.1460   11.4790 C.3   219  ILE219      0.0001
    136  N         11.9600    8.3590   13.7830 N.am  220  GLY220     -0.1940
    137  CA        13.0030    7.8900   14.6980 C.3   220  GLY220      0.2014
    138  C         12.6510    6.5390   15.2630 C.2   220  GLY220      0.2638
    139  O         13.2840    5.5250   14.9460 O.2   220  GLY220     -0.2714
    140  N         11.5900    6.5020   16.0720 N.am  221  ARG221     -0.1977
    141  CA        11.1490    5.2070   16.6240 C.3   221  ARG221      0.1597
    142  C         10.6380    4.2390   15.5320 C.2   221  ARG221      0.2287
    143  O         10.9170    3.0220   15.5820 O.2   221  ARG221     -0.2864
    144  CB        10.1350    5.4700   17.7120 C.3   221  ARG221      0.0334
    145  CG        10.8030    6.2040   18.9020 C.3   221  ARG221      0.0492
    146  CD         9.7930    6.7150   19.8580 C.3   221  ARG221      0.2205
    147  NE         9.1850    7.9480   19.3460 N.pl3 221  ARG221     -0.0865
    148  CZ         8.3470    8.7190   20.0250 C.cat 221  ARG221      0.5346
    149  NH1        7.9980    8.3970   21.2580 N.pl3 221  ARG221      0.1354
    150  NH2        7.8600    9.8280   19.4790 N.pl3 221  ARG221      0.1354
    151  N         15.3490   10.4990    6.9930 N.3   256  MET256     -0.1245
    152  CA        15.7760   10.6120    8.3970 C.3   256  MET256      0.1570
    153  C         15.4150    9.3980    9.2860 C.2   256  MET256      0.2261
    154  O         15.6640    9.4400   10.4790 O.2   256  MET256     -0.2867
    155  CB        15.2070   11.9000    9.0240 C.3   256  MET256      0.0387
    156  CG        15.5860   13.1750    8.2840 C.3   256  MET256      0.0595
    157  SD        14.4500   14.5620    8.6200 S.3   256  MET256     -0.1393
    158  CE        14.7290   14.8020   10.3680 C.3   256  MET256      0.0692
    159  N         16.6980    8.2170   14.0260 N.3   259  GLN259     -0.1245
    160  CA        17.0540    9.6210   14.1830 C.3   259  GLN259      0.1566
    161  C         18.4100    9.8800   14.8110 C.2   259  GLN259      0.2260
    162  O         19.1080   10.8070   14.3770 O.2   259  GLN259     -0.2867
    163  CB        15.9890   10.3470   15.0200 C.3   259  GLN259      0.0367
    164  CG        16.1390   11.8530   15.0370 C.3   259  GLN259      0.0905
    165  CD        15.8520   12.4400   16.3840 C.2   259  GLN259      0.2608
    166  OE1       14.9760   11.9740   17.1060 O.2   259  GLN259     -0.2717
    167  NE2       16.6110   13.4660   16.7510 N.am  259  GLN259     -0.0878
    168  N         19.9540    5.5720   19.0110 N.3   263  GLN263     -0.1245
    169  CA        18.9900    4.6360   18.4440 C.3   263  GLN263      0.1566
    170  C         19.6630    3.6070   17.5430 C.2   263  GLN263      0.2260
    171  O         19.3410    2.4320   17.5620 O.2   263  GLN263     -0.2867
    172  CB        17.9150    5.3980   17.6670 C.3   263  GLN263      0.0367
    173  CG        16.9400    6.0950   18.5940 C.3   263  GLN263      0.0905
    174  CD        16.0000    7.0500   17.8880 C.2   263  GLN263      0.2608
    175  OE1       16.2300    7.4650   16.7450 O.2   263  GLN263     -0.2717
    176  NE2       14.9430    7.4270   18.5890 N.am  263  GLN263     -0.0878
@<TRIPOS>BOND
     1    18    17    1
     2    17    19    1
     3    17    16    1
     4    12    13    1
     5     3     4    2
     6     3     2    1
     7    16    13    1
     8     1     2    1
     9    13    14    1
    10    35    33   am
    11    34    33    2
    12     2     5    1
    13    33    32    1
    14    14    20   am
    15    14    15    2
    16   151   152    1
    17     5     6    1
    18    20    21    1
    19    78    79    2
    20    78    77    1
    21    67    66    1
    22    62    61    2
    23    26    25   ar
    24    32    29    1
    25    71    70    2
    26   156   157    1
    27   156   155    1
    28    28    29    1
    29   152   155    1
    30   152   153    1
    31    77    76    1
    32    77    80    1
    33    70    76   am
    34    70    69    1
    35    25    27   ar
    36    25    24    1
    37     6     7    1
    38   157   158    1
    39    21    22    1
    40    21    24    1
    41    66    65    1
    42    61    68   am
    43    61    60    1
    44    22    23    2
    45    69    68    1
    46    69    72    1
    47    29    30    1
    48    11     9    1
    49    64    65    1
    50    64    63    1
    51     9     8    2
    52     9    10    1
    53     8     7    1
    54   153   154    2
    55    81    80    1
    56    60    63    1
    57    60    59    1
    58   134   132    1
    59    72    73    1
    60    50    49    2
    61    80    82    1
    62    30    31    2
    63    30    36   am
    64   127   126    2
    65    59    49   am
    66    49    48    1
    67   132   129    1
    68   132   133    1
    69    73    74   ar
    70    73    75   ar
    71    36    37    1
    72   122   121    2
    73   126   128   am
    74   126   125    1
    75   135   133    1
    76   129   128    1
    77   129   130    1
    78    47    48    1
    79    47    38   am
    80    48    51    1
    81   125   124    1
    82   131   130    2
    83   130   136   am
    84   121   124   am
    85   121   120    1
    86    37    38    1
    87    37    40    1
    88    51    52    1
    89    38    39    2
    90    40    41    1
    91   120   123    1
    92   120   119    1
    93   136   137    1
    94    52    54   ar
    95    52    53   ar
    96   159   160    1
    97   160   161    1
    98   160   163    1
    99    54    56   ar
   100   162   161    2
   101   116   115    2
   102   137   138    1
   103    41    42    1
   104   107   108    1
   105   119   115   am
   106   139   138    2
   107   163   164    1
   108   164   165    1
   109    53    55   ar
   110   112   111    1
   111   138   140   am
   112   115   114    1
   113    56    57   ar
   114   142   143    2
   115   142   141    1
   116    42    43    1
   117    43    44    2
   118   110   109    2
   119   140   141    1
   120   108   109    1
   121   108   111    1
   122   109   113   am
   123    55    57   ar
   124   165   167   am
   125   165   166    2
   126    46    44    1
   127    44    45    1
   128    57    58    1
   129   141   144    1
   130   114   113    1
   131   114   117    1
   132   175   174    2
   133   170   171    2
   134   170   169    1
   135   172   169    1
   136   172   173    1
   137   144   145    1
   138   117   118    1
   139   174   176   am
   140   174   173    1
   141    86    85    2
   142   169   168    1
   143   105   103   ar
   144   105   106   ar
   145   145   146    1
   146   103   102   ar
   147   147   146    1
   148   147   148    2
   149   150   148    1
   150    85    84    1
   151   106   104   ar
   152   148   149    1
   153   102   101    1
   154   102   104   ar
   155    98    97    1
   156    98   101    1
   157    98    99    1
   158    84    87    1
   159    84    83    1
   160    97    94   am
   161    91    90    1
   162    96    93    1
   163    87    88    1
   164    99   100    2
   165    93    94    1
   166    93    92    1
   167    89    90    1
   168    89    88    1
   169    94    95    2
