@<TRIPOS>MOLECULE
tmp/4s0kA00.pdb
 120 119 0 0 0
SMALL
GASTEIGER

@<TRIPOS>ATOM
      1  N          8.1770   86.0650  198.7160 N.3    18  ALA18      -0.1231
      2  CA         8.2390   85.2610  199.9250 C.3    18  ALA18       0.1694
      3  C          7.5280   85.9820  201.0870 C.2    18  ALA18       0.2591
      4  O          6.9990   85.3390  201.9670 O.2    18  ALA18      -0.2718
      5  CB         9.7050   84.9980  200.2420 C.3    18  ALA18       0.0304
      6  N          7.5360   87.3230  201.0990 N.am   19  LEU19      -0.1980
      7  CA         6.8070   88.1260  202.0940 C.3    19  LEU19       0.1596
      8  C          5.5320   88.5170  201.4280 C.2    19  LEU19       0.2287
      9  O          5.4870   88.5920  200.2190 O.2    19  LEU19      -0.2864
     10  CB         7.5710   89.4250  202.4770 C.3    19  LEU19       0.0297
     11  CG         8.8650   89.3470  203.3140 C.3    19  LEU19       0.0022
     12  CD1        9.5340   90.7120  203.4210 C.3    19  LEU19       0.0001
     13  CD2        8.6210   88.7760  204.7070 C.3    19  LEU19       0.0001
     14  N         24.2570   87.9550  202.9660 N.3    42  ILE42      -0.1231
     15  CA        24.2260   88.5050  204.3130 C.3    42  ILE42       0.1692
     16  C         22.9850   88.0040  205.0390 C.2    42  ILE42       0.2593
     17  O         21.8380   88.2010  204.5490 O.2    42  ILE42      -0.2718
     18  CB        24.2390   90.0700  204.2840 C.3    42  ILE42       0.0266
     19  CG1       25.4970   90.5770  203.6030 C.3    42  ILE42       0.0019
     20  CG2       24.0970   90.6440  205.6950 C.3    42  ILE42       0.0020
     21  CD1       25.5650   92.0830  203.4260 C.3    42  ILE42       0.0001
     22  N         23.1870   87.3280  206.1690 N.am   43  SER43      -0.1938
     23  CA        22.0760   86.9660  207.0810 C.3    43  SER43       0.2055
     24  C         22.0830   87.8910  208.3000 C.2    43  SER43       0.2642
     25  O         22.9900   87.7580  209.1800 O.2    43  SER43      -0.2714
     26  CB        22.2420   85.5300  207.5890 C.3    43  SER43       0.2130
     27  OG        22.0520   84.5550  206.5900 O.3    43  SER43      -0.2179
     28  N         21.0800   88.7800  208.3690 N.am   44  VAL44      -0.1977
     29  CA        20.9540   89.7370  209.4360 C.3    44  VAL44       0.1596
     30  C         20.2480   89.0300  210.5710 C.2    44  VAL44       0.2287
     31  O         19.1830   88.4380  210.3640 O.2    44  VAL44      -0.2864
     32  CB        20.1570   90.9910  209.0150 C.3    44  VAL44       0.0276
     33  CG1       20.0600   91.9440  210.1810 C.3    44  VAL44       0.0022
     34  CG2       20.8370   91.7100  207.8640 C.3    44  VAL44       0.0022
     35  N         20.5240   89.6930  200.2450 N.3    79  PRO79      -0.2102
     36  CA        19.7650   89.3560  201.4470 C.3    79  PRO79       0.1504
     37  C         19.6720   87.8230  201.5030 C.2    79  PRO79       0.2576
     38  O         19.3520   87.2370  200.4970 O.2    79  PRO79      -0.2718
     39  CB        18.4130   89.9920  201.1850 C.3    79  PRO79       0.0282
     40  CG        18.7190   91.1160  200.2160 C.3    79  PRO79       0.0208
     41  CD        19.7740   90.5600  199.3220 C.3    79  PRO79       0.0893
     42  N         19.9330   87.1790  202.6320 N.am   80  TRP80      -0.1963
     43  CA        20.1020   85.7170  202.6630 C.3    80  TRP80       0.1771
     44  C         19.7510   85.0750  204.0140 C.2    80  TRP80       0.2619
     45  O         20.4740   85.2400  204.9560 O.2    80  TRP80      -0.2715
     46  CB        21.5640   85.4640  202.3660 C.3    80  TRP80       0.0590
     47  CG        21.9700   84.0710  202.2330 C.ar   80  TRP80       0.0006
     48  CD1       22.6810   83.3400  203.1300 C.ar   80  TRP80       0.0946
     49  CD2       21.7280   83.2220  201.1150 C.ar   80  TRP80       0.0152
     50  NE1       22.8990   82.0860  202.6410 N.ar   80  TRP80      -0.2442
     51  CE2       22.3190   81.9840  201.4040 C.ar   80  TRP80       0.0810
     52  CE3       21.0650   83.3900  199.8960 C.ar   80  TRP80       0.0012
     53  CZ2       22.2730   80.9110  200.5210 C.ar   80  TRP80       0.0191
     54  CZ3       21.0090   82.3300  199.0240 C.ar   80  TRP80       0.0001
     55  CH2       21.6160   81.0990  199.3370 C.ar   80  TRP80       0.0015
     56  N         18.6670   84.3190  204.1040 N.am   81  ALA81      -0.1977
     57  CA        18.2690   83.6180  205.3580 C.3    81  ALA81       0.1597
     58  C         19.2150   82.5550  205.9150 C.2    81  ALA81       0.2287
     59  O         19.1320   82.2370  207.0780 O.2    81  ALA81      -0.2864
     60  CB        16.8780   82.9630  205.1930 C.3    81  ALA81       0.0319
     61  N         16.9340   85.0260  212.8870 N.3    87  LEU87      -0.1231
     62  CA        16.8630   86.1110  211.8870 C.3    87  LEU87       0.1693
     63  C         16.1770   87.3660  212.4350 C.2    87  LEU87       0.2591
     64  O         15.2680   87.2740  213.2360 O.2    87  LEU87      -0.2718
     65  CB        16.1690   85.6270  210.6010 C.3    87  LEU87       0.0284
     66  CG        16.9470   84.5340  209.8590 C.3    87  LEU87       0.0019
     67  CD1       16.1400   83.9780  208.7060 C.3    87  LEU87       0.0001
     68  CD2       18.2950   85.0460  209.3450 C.3    87  LEU87       0.0001
     69  N         16.6640   88.5360  212.0310 N.am   88  ALA88      -0.1980
     70  CA        16.0440   89.8020  212.3920 C.3    88  ALA88       0.1597
     71  C         14.6810   89.9740  211.7060 C.2    88  ALA88       0.2287
     72  O         14.4460   89.3780  210.6680 O.2    88  ALA88      -0.2864
     73  CB        16.9590   90.9160  211.9510 C.3    88  ALA88       0.0319
     74  N         16.5070   94.0630  209.0790 N.3    93  ALA93      -0.1245
     75  CA        17.2510   93.4590  207.9950 C.3    93  ALA93       0.1562
     76  C         17.3580   94.4110  206.8380 C.2    93  ALA93       0.2260
     77  O         18.4440   94.5970  206.2960 O.2    93  ALA93      -0.2867
     78  CB        16.5320   92.1880  207.5470 C.3    93  ALA93       0.0290
     79  N         20.9120   96.0020  205.5630 N.3    97  LEU97      -0.1245
     80  CA        21.2750   95.7780  204.1630 C.3    97  LEU97       0.1561
     81  C         21.4320   97.0770  203.3590 C.2    97  LEU97       0.2260
     82  O         22.3760   97.2060  202.5850 O.2    97  LEU97      -0.2867
     83  CB        20.2650   94.8910  203.4610 C.3    97  LEU97       0.0270
     84  CG        20.3160   93.4430  203.9840 C.3    97  LEU97       0.0019
     85  CD1       19.0460   92.6540  203.6890 C.3    97  LEU97       0.0001
     86  CD2       21.5080   92.6990  203.4160 C.3    97  LEU97       0.0001
     87  N         16.7000   92.5880  195.5760 N.3   115  PRO115     -0.2102
     88  CA        15.5660   93.0110  196.4060 C.3   115  PRO115      0.1504
     89  C         15.3020   92.0500  197.5560 C.2   115  PRO115      0.2576
     90  O         15.6160   90.8620  197.4740 O.2   115  PRO115     -0.2718
     91  CB        14.3820   93.0210  195.4350 C.3   115  PRO115      0.0282
     92  CG        14.8120   92.2450  194.2410 C.3   115  PRO115      0.0208
     93  CD        16.2980   92.2480  194.1950 C.3   115  PRO115      0.0893
     94  N         14.7250   92.5810  198.6200 N.am  116  PHE116     -0.1963
     95  CA        14.4520   91.8230  199.8320 C.3   116  PHE116      0.1771
     96  C         13.0300   91.2540  199.7030 C.2   116  PHE116      0.2620
     97  O         12.1890   91.9200  199.1680 O.2   116  PHE116     -0.2715
     98  CB        14.5540   92.7990  201.0560 C.3   116  PHE116      0.0574
     99  CG        14.3610   92.1260  202.3960 C.ar  116  PHE116     -0.0200
    100  CD1       13.0830   91.9900  202.9760 C.ar  116  PHE116     -0.0042
    101  CD2       15.4530   91.5870  203.0840 C.ar  116  PHE116     -0.0042
    102  CE1       12.9150   91.3280  204.2090 C.ar  116  PHE116     -0.0003
    103  CE2       15.2810   90.9340  204.3090 C.ar  116  PHE116     -0.0003
    104  CZ        14.0110   90.8140  204.8870 C.ar  116  PHE116     -0.0000
    105  N         12.8020   90.0150  200.1440 N.am  117  GLY117     -0.1940
    106  CA        11.4650   89.4840  200.3880 C.3   117  GLY117      0.2014
    107  C         10.9030   88.5820  199.2880 C.2   117  GLY117      0.2638
    108  O          9.6930   88.3840  199.2230 O.2   117  GLY117     -0.2714
    109  N         11.7800   88.0560  198.4410 N.am  118  TYR118     -0.1973
    110  CA        11.3970   87.3160  197.2230 C.3   118  TYR118      0.1639
    111  C         12.0500   85.9820  197.1830 C.2   118  TYR118      0.2290
    112  O         13.1390   85.8450  197.6800 O.2   118  TYR118     -0.2864
    113  CB        11.8780   88.0230  195.9860 C.3   118  TYR118      0.0560
    114  CG        11.1100   89.2620  195.7300 C.ar  118  TYR118     -0.0198
    115  CD1        9.8940   89.2210  195.0200 C.ar  118  TYR118     -0.0009
    116  CD2       11.5670   90.4620  196.1890 C.ar  118  TYR118     -0.0009
    117  CE1        9.1670   90.3870  194.8110 C.ar  118  TYR118      0.0417
    118  CE2       10.8580   91.6410  195.9910 C.ar  118  TYR118      0.0417
    119  CZ         9.6650   91.5790  195.3180 C.ar  118  TYR118      0.1957
    120  OH         8.9900   92.7160  195.1180 O.3   118  TYR118     -0.2866
@<TRIPOS>BOND
     1    93    92    1
     2    93    87    1
     3    92    91    1
     4   117   115   ar
     5   117   119   ar
     6   115   114   ar
     7   120   119    1
     8   119   118   ar
     9    91    88    1
    10    87    88    1
    11   114   113    1
    12   114   116   ar
    13   113   110    1
    14   118   116   ar
    15    88    89    1
    16   111   110    1
    17   111   112    2
    18   110   109    1
    19    90    89    2
    20    89    94   am
    21   109   107   am
    22    94    95    1
    23     1     2    1
    24    54    55   ar
    25    54    52   ar
    26    97    96    2
    27   108   107    2
    28   107   106    1
    29    41    40    1
    30    41    35    1
    31    55    53   ar
    32    96    95    1
    33    96   105   am
    34    95    98    1
    35    52    49   ar
    36     2     5    1
    37     2     3    1
    38   105   106    1
    39    40    39    1
    40     9     8    2
    41    35    36    1
    42    38    37    2
    43    53    51   ar
    44    98    99    1
    45     3     6   am
    46     3     4    2
    47     6     7    1
    48    49    51   ar
    49    49    47   ar
    50    39    36    1
    51    51    50   ar
    52     8     7    1
    53    36    37    1
    54    37    42   am
    55     7    10    1
    56    47    46    1
    57    47    48   ar
    58    46    43    1
    59    99   100   ar
    60    99   101   ar
    61    10    11    1
    62    82    81    2
    63    42    43    1
    64    50    48   ar
    65    43    44    1
    66    14    15    1
    67   100   102   ar
    68   101   103   ar
    69    11    12    1
    70    11    13    1
    71    81    80    1
    72    86    84    1
    73    21    19    1
    74    83    84    1
    75    83    80    1
    76    19    18    1
    77    85    84    1
    78    44    56   am
    79    44    45    2
    80    56    57    1
    81    80    79    1
    82   102   104   ar
    83    18    15    1
    84    18    20    1
    85   103   104   ar
    86    15    16    1
    87    17    16    2
    88    16    22   am
    89    60    57    1
    90    57    58    1
    91    58    59    2
    92    22    23    1
    93    77    76    2
    94    27    26    1
    95    76    75    1
    96    23    26    1
    97    23    24    1
    98    78    75    1
    99    34    32    1
   100    75    74    1
   101    24    28   am
   102    24    25    2
   103    28    29    1
   104    67    66    1
   105    32    29    1
   106    32    33    1
   107    68    66    1
   108    29    30    1
   109    66    65    1
   110    31    30    2
   111    65    62    1
   112    72    71    2
   113    71    70    1
   114    62    63    1
   115    62    61    1
   116    73    70    1
   117    69    70    1
   118    69    63   am
   119    63    64    2
