@<TRIPOS>MOLECULE
tmp/4s0rD00.pdb
 155 147 0 0 0
SMALL
GASTEIGER

@<TRIPOS>ATOM
      1  N         37.2370   42.6400  -27.1770 N.3   135  GLU135     -0.1245
      2  CA        38.2530   43.5480  -26.6120 C.3   135  GLU135      0.1567
      3  C         39.0760   42.8870  -25.4820 C.2   135  GLU135      0.2260
      4  O         39.2550   43.4710  -24.4100 O.2   135  GLU135     -0.2867
      5  CB        37.5920   44.8200  -26.0450 C.3   135  GLU135      0.0388
      6  CG        37.0500   45.8050  -27.0720 C.3   135  GLU135      0.1160
      7  CD        36.6470   47.1640  -26.4630 C.2   135  GLU135      0.3649
      8  OE1       36.2910   48.0710  -27.2530 O.co2 135  GLU135     -0.2457
      9  OE2       36.6830   47.3420  -25.2130 O.co2 135  GLU135     -0.2457
     10  N         41.8150   41.3540  -22.9290 N.3   137  GLU137     -0.1245
     11  CA        43.0240   41.6980  -22.1980 C.3   137  GLU137      0.1567
     12  C         43.7060   40.4910  -21.5610 C.2   137  GLU137      0.2260
     13  O         43.1010   39.4470  -21.3620 O.2   137  GLU137     -0.2867
     14  CB        42.7000   42.7430  -21.1530 C.3   137  GLU137      0.0388
     15  CG        42.4150   44.0690  -21.8270 C.3   137  GLU137      0.1160
     16  CD        41.3450   44.9150  -21.1250 C.2   137  GLU137      0.3649
     17  OE1       40.8320   44.4860  -20.0650 O.co2 137  GLU137     -0.2457
     18  OE2       41.0040   46.0150  -21.6320 O.co2 137  GLU137     -0.2457
     19  N         48.8320   52.3480  -19.6670 N.3   159  TYR159     -0.1241
     20  CA        47.7660   52.5200  -20.6320 C.3   159  TYR159      0.1605
     21  C         48.2530   53.0940  -21.9270 C.2   159  TYR159      0.2264
     22  O         48.6630   54.2360  -21.9240 O.2   159  TYR159     -0.2867
     23  CB        46.7320   53.4620  -20.0520 C.3   159  TYR159      0.0534
     24  CG        45.4080   53.3940  -20.7520 C.ar  159  TYR159     -0.0201
     25  CD1       45.1030   52.3380  -21.5880 C.ar  159  TYR159     -0.0009
     26  CD2       44.4380   54.3550  -20.5350 C.ar  159  TYR159     -0.0009
     27  CE1       43.8750   52.2390  -22.1850 C.ar  159  TYR159      0.0417
     28  CE2       43.1950   54.2600  -21.1400 C.ar  159  TYR159      0.0417
     29  CZ        42.9310   53.1970  -21.9640 C.ar  159  TYR159      0.1957
     30  OH        41.7370   53.0950  -22.6110 O.3   159  TYR159     -0.2866
     31  N         47.4660   47.2470  -28.0380 N.3   190  HIS190     -0.1241
     32  CA        48.0970   48.2960  -27.2250 C.3   190  HIS190      0.1621
     33  C         48.3870   47.7420  -25.8340 C.2   190  HIS190      0.2264
     34  O         47.8330   46.7090  -25.4530 O.2   190  HIS190     -0.2867
     35  CB        47.1760   49.4930  -27.0830 C.3   190  HIS190      0.0745
     36  CG        45.8400   49.1370  -26.5310 C.ar  190  HIS190      0.0817
     37  ND1       45.0920   50.0080  -25.7720 N.ar  190  HIS190     -0.2268
     38  CD2       45.1200   47.9950  -26.6160 C.ar  190  HIS190      0.1154
     39  CE1       43.9680   49.4160  -25.4070 C.ar  190  HIS190      0.1986
     40  NE2       43.9610   48.1940  -25.9070 N.ar  190  HIS190     -0.2212
     41  N         48.1810   47.5520  -21.7900 N.3   192  GLU192     -0.1231
     42  CA        47.0630   47.9180  -20.9290 C.3   192  GLU192      0.1699
     43  C         47.4440   48.6060  -19.6140 C.2   192  GLU192      0.2592
     44  O         48.6000   48.6140  -19.1980 O.2   192  GLU192     -0.2718
     45  CB        46.1510   46.7090  -20.6610 C.3   192  GLU192      0.0402
     46  CG        44.8910   46.7080  -21.5420 C.3   192  GLU192      0.1161
     47  CD        43.5910   47.1000  -20.8190 C.2   192  GLU192      0.3649
     48  OE1       42.6340   47.4270  -21.5390 O.co2 192  GLU192     -0.2457
     49  OE2       43.4970   47.0680  -19.5640 O.co2 192  GLU192     -0.2457
     50  N         46.4530   49.1920  -18.9650 N.am  193  VAL193     -0.1980
     51  CA        46.6700   49.8980  -17.7260 C.3   193  VAL193      0.1595
     52  C         47.6620   49.3680  -16.6830 C.2   193  VAL193      0.2287
     53  O         48.3970   50.1770  -16.1290 O.2   193  VAL193     -0.2864
     54  CB        45.3520   50.1380  -17.0370 C.3   193  VAL193      0.0276
     55  CG1       45.4040   51.4820  -16.3910 C.3   193  VAL193      0.0022
     56  CG2       44.2240   50.0770  -18.0420 C.3   193  VAL193      0.0022
     57  N         50.1350   44.0370  -18.5910 N.3   197  GLN197     -0.1245
     58  CA        48.7760   43.6700  -19.0310 C.3   197  GLN197      0.1566
     59  C         48.8630   43.9090  -20.5350 C.2   197  GLN197      0.2260
     60  O         49.7860   44.6010  -20.9480 O.2   197  GLN197     -0.2867
     61  CB        47.7010   44.5520  -18.3770 C.3   197  GLN197      0.0367
     62  CG        46.3020   43.8970  -18.3810 C.3   197  GLN197      0.0905
     63  CD        45.3340   44.5130  -17.3700 C.2   197  GLN197      0.2608
     64  OE1       45.4260   45.7020  -17.0390 O.2   197  GLN197     -0.2717
     65  NE2       44.3830   43.7060  -16.8930 N.am  197  GLN197     -0.0878
     66  N         46.2680   44.2970  -24.3410 N.3   199  GLU199     -0.1245
     67  CA        45.0450   44.1020  -25.1450 C.3   199  GLU199      0.1567
     68  C         45.2300   44.0540  -26.6740 C.2   199  GLU199      0.2260
     69  O         46.1200   44.7190  -27.2160 O.2   199  GLU199     -0.2867
     70  CB        44.0350   45.1970  -24.7820 C.3   199  GLU199      0.0388
     71  CG        42.5890   44.8740  -25.1200 C.3   199  GLU199      0.1160
     72  CD        41.6040   45.9780  -24.6850 C.2   199  GLU199      0.3649
     73  OE1       41.9560   46.8140  -23.8160 O.co2 199  GLU199     -0.2457
     74  OE2       40.4600   46.0050  -25.2020 O.co2 199  GLU199     -0.2457
     75  N         44.8100   45.8290  -11.6620 N.3   243  ASN243     -0.1225
     76  CA        43.6820   45.7150  -12.5910 C.3   243  ASN243      0.1785
     77  C         43.5590   44.2750  -13.0170 C.2   243  ASN243      0.2597
     78  O         44.5350   43.5340  -13.0140 O.2   243  ASN243     -0.2718
     79  CB        43.9200   46.5270  -13.8780 C.3   243  ASN243      0.1169
     80  CG        43.5940   48.0020  -13.7350 C.2   243  ASN243      0.2627
     81  OD1       44.2310   48.7190  -12.9650 O.2   243  ASN243     -0.2716
     82  ND2       42.6050   48.4650  -14.4980 N.am  243  ASN243     -0.0877
     83  N         42.3590   43.8750  -13.3960 N.am  244  GLY244     -0.1957
     84  CA        42.1820   42.5200  -13.8660 C.3   244  GLY244      0.1869
     85  C         42.0460   42.6100  -15.3720 C.2   244  GLY244      0.2309
     86  O         42.1750   43.6930  -15.9470 O.2   244  GLY244     -0.2863
     87  N         39.7540   42.4510  -18.6520 N.3   246  GLY246     -0.1225
     88  CA        38.3730   42.5360  -19.0560 C.3   246  GLY246      0.1811
     89  C         38.2120   42.2690  -20.5280 C.2   246  GLY246      0.2280
     90  O         38.6590   43.0510  -21.3560 O.2   246  GLY246     -0.2866
     91  N         36.0210   42.7010  -23.0190 N.3   248  HIS248     -0.1241
     92  CA        34.8010   43.4160  -23.3640 C.3   248  HIS248      0.1621
     93  C         34.1630   42.8690  -24.6630 C.2   248  HIS248      0.2264
     94  O         34.8620   42.4270  -25.5860 O.2   248  HIS248     -0.2867
     95  CB        35.1010   44.9150  -23.5190 C.3   248  HIS248      0.0745
     96  CG        35.3570   45.6300  -22.2260 C.ar  248  HIS248      0.0817
     97  ND1       35.7340   46.9590  -22.1730 N.ar  248  HIS248     -0.2268
     98  CD2       35.2890   45.2090  -20.9390 C.ar  248  HIS248      0.1154
     99  CE1       35.8880   47.3200  -20.9110 C.ar  248  HIS248      0.1986
    100  NE2       35.6210   46.2790  -20.1410 N.ar  248  HIS248     -0.2212
    101  N         37.8620   40.7460   -9.5410 N.3   301  ARG301     -0.1245
    102  CA        38.2970   41.6550  -10.5970 C.3   301  ARG301      0.1563
    103  C         37.2440   42.7330  -10.5420 C.2   301  ARG301      0.2260
    104  O         37.5370   43.9160  -10.7250 O.2   301  ARG301     -0.2867
    105  CB        38.2460   40.9820  -11.9650 C.3   301  ARG301      0.0307
    106  CG        37.8230   41.9130  -13.0970 C.3   301  ARG301      0.0489
    107  CD        37.3790   41.1250  -14.3240 C.3   301  ARG301      0.2205
    108  NE        36.3970   41.8350  -15.1490 N.pl3 301  ARG301     -0.0865
    109  CZ        36.6990   42.6320  -16.1710 C.cat 301  ARG301      0.5346
    110  NH1       37.9690   42.8340  -16.5050 N.pl3 301  ARG301      0.1354
    111  NH2       35.7260   43.2100  -16.8690 N.pl3 301  ARG301      0.1354
    112  N         38.3900   49.9640  -10.6690 N.3   306  TYR306     -0.1227
    113  CA        39.5140   49.3760  -11.4100 C.3   306  TYR306      0.1736
    114  C         38.9130   49.3630  -12.8020 C.2   306  TYR306      0.2595
    115  O         39.4540   48.7700  -13.7360 O.2   306  TYR306     -0.2718
    116  CB        39.8240   47.9380  -10.9780 C.3   306  TYR306      0.0548
    117  CG        40.6640   47.8110   -9.7270 C.ar  306  TYR306     -0.0200
    118  CD1       42.0560   47.7250   -9.7940 C.ar  306  TYR306     -0.0009
    119  CD2       40.0640   47.7930   -8.4710 C.ar  306  TYR306     -0.0009
    120  CE1       42.8260   47.6260   -8.6340 C.ar  306  TYR306      0.0417
    121  CE2       40.8220   47.7000   -7.3100 C.ar  306  TYR306      0.0417
    122  CZ        42.2020   47.6180   -7.3990 C.ar  306  TYR306      0.1957
    123  OH        42.9540   47.5430   -6.2540 O.3   306  TYR306     -0.2866
    124  N         37.7630   50.0350  -12.8840 N.am  307  GLU307     -0.1965
    125  CA        36.9440   50.2070  -14.0780 C.3   307  GLU307      0.1733
    126  C         35.9470   49.0730  -14.1960 C.2   307  GLU307      0.2616
    127  O         35.0590   49.1140  -15.0410 O.2   307  GLU307     -0.2715
    128  CB        37.7990   50.2810  -15.3430 C.3   307  GLU307      0.0429
    129  CG        37.1500   51.0930  -16.4520 C.3   307  GLU307      0.1163
    130  CD        38.0560   51.2810  -17.6570 C.2   307  GLU307      0.3649
    131  OE1       37.7790   52.1890  -18.4740 O.co2 307  GLU307     -0.2457
    132  OE2       39.0370   50.5170  -17.7900 O.co2 307  GLU307     -0.2457
    133  N         36.0970   48.0570  -13.3500 N.am  308  ALA308     -0.1964
    134  CA        35.1810   46.9210  -13.3620 C.3   308  ALA308      0.1713
    135  C         33.7770   47.4640  -13.0920 C.2   308  ALA308      0.2458
    136  O         33.5600   48.1480  -12.0960 O.2   308  ALA308     -0.2730
    137  CB        35.5770   45.9310  -12.2900 C.3   308  ALA308      0.0333
    138  N         32.8050   47.1520  -13.9710 N.am  309  PRO309     -0.2727
    139  CA        31.4060   47.5920  -13.8750 C.3   309  PRO309      0.1402
    140  C         30.6680   46.8720  -12.7510 C.2   309  PRO309      0.2269
    141  O         30.0650   45.8260  -12.9810 O.2   309  PRO309     -0.2865
    142  CB        30.8520   47.2160  -15.2390 C.3   309  PRO309      0.0296
    143  CG        31.4870   45.8940  -15.4520 C.3   309  PRO309      0.0237
    144  CD        32.9390   46.1260  -15.0210 C.3   309  PRO309      0.0939
    145  N         30.6440   45.1340  -20.7920 N.3   338  ARG338     -0.1245
    146  CA        31.9770   44.9420  -20.2220 C.3   338  ARG338      0.1563
    147  C         32.0350   43.9730  -19.0330 C.2   338  ARG338      0.2260
    148  O         33.1130   43.7090  -18.4730 O.2   338  ARG338     -0.2867
    149  CB        32.5780   46.3070  -19.8780 C.3   338  ARG338      0.0307
    150  CG        32.6240   47.1830  -21.1120 C.3   338  ARG338      0.0489
    151  CD        33.2640   48.5010  -20.8450 C.3   338  ARG338      0.2205
    152  NE        33.0630   48.8700  -19.4700 N.pl3 338  ARG338     -0.0865
    153  CZ        33.8000   49.7400  -18.7970 C.cat 338  ARG338      0.5346
    154  NH1       34.8350   50.3720  -19.3470 N.pl3 338  ARG338      0.1354
    155  NH2       33.4690   49.9860  -17.5470 N.pl3 338  ARG338      0.1354
@<TRIPOS>BOND
     1    31    32    1
     2     8     7   ar
     3    32    35    1
     4    32    33    1
     5    69    68    2
     6     1     2    1
     7    35    36    1
     8     6     7    1
     9     6     5    1
    10    68    67    1
    11    38    36   ar
    12    38    40   ar
    13     2     5    1
    14     2     3    1
    15    36    37   ar
    16     7     9   ar
    17    40    39   ar
    18    33    34    2
    19    37    39   ar
    20    94    93    2
    21     3     4    2
    22    74    72   ar
    23    67    70    1
    24    67    66    1
    25    71    70    1
    26    71    72    1
    27    72    73   ar
    28    93    92    1
    29    95    92    1
    30    95    96    1
    31    92    91    1
    32    10    11    1
    33    30    29    1
    34    96    97   ar
    35    96    98   ar
    36    11    12    1
    37    11    14    1
    38    27    29   ar
    39    27    25   ar
    40    97    99   ar
    41    29    28   ar
    42    21    22    2
    43    21    20    1
    44    15    14    1
    45    15    16    1
    46    41    42    1
    47    18    16   ar
    48    25    24   ar
    49    12    13    2
    50    46    47    1
    51    46    45    1
    52    48    47   ar
    53    90    89    2
    54    28    26   ar
    55    16    17   ar
    56   150   151    1
    57   150   149    1
    58    60    59    2
    59    98   100   ar
    60    42    45    1
    61    42    43    1
    62    99   100   ar
    63   151   152    1
    64    47    49   ar
    65   145   146    1
    66    24    26   ar
    67    24    23    1
    68    20    23    1
    69    20    19    1
    70    59    58    1
    71    89    88    1
    72   146   149    1
    73   146   147    1
    74    43    44    2
    75    43    50   am
    76   152   153    2
    77   154   153    1
    78    88    87    1
    79   147   148    2
    80    58    57    1
    81    58    61    1
    82    50    51    1
    83   153   155    1
    84   131   130   ar
    85    62    61    1
    86    62    63    1
    87    56    54    1
    88   132   130   ar
    89    51    54    1
    90    51    52    1
    91   130   129    1
    92    63    64    2
    93    63    65   am
    94    54    55    1
    95   111   109    1
    96    52    53    2
    97   110   109    1
    98   129   128    1
    99   109   108    2
   100    86    85    2
   101   143   142    1
   102   143   144    1
   103    85    84    1
   104   128   125    1
   105   142   139    1
   106   108   107    1
   107   127   126    2
   108   144   138    1
   109    82    80   am
   110   107   106    1
   111   126   125    1
   112   126   133   am
   113   125   124    1
   114   138   139    1
   115   138   135   am
   116    79    80    1
   117    79    76    1
   118   139   140    1
   119    84    83    1
   120   115   114    2
   121    80    81    2
   122    83    77   am
   123   134   133    1
   124   134   135    1
   125   134   137    1
   126   106   105    1
   127   135   136    2
   128    77    78    2
   129    77    76    1
   130   141   140    2
   131   124   114   am
   132   114   113    1
   133    76    75    1
   134   105   102    1
   135   113   116    1
   136   113   112    1
   137   116   117    1
   138   104   103    2
   139   102   103    1
   140   102   101    1
   141   118   117   ar
   142   118   120   ar
   143   117   119   ar
   144   120   122   ar
   145   119   121   ar
   146   122   121   ar
   147   122   123    1
