@<TRIPOS>MOLECULE
tmp/4s0tA00.pdb
 214 202 0 0 0
SMALL
GASTEIGER

@<TRIPOS>ATOM
      1  N        -47.8220  -42.9910   -4.1580 N.3    56  LEU56      -0.1245
      2  CA       -46.6710  -42.1540   -4.4930 C.3    56  LEU56       0.1561
      3  C        -46.9730  -40.7610   -5.0620 C.2    56  LEU56       0.2260
      4  O        -46.2150  -39.8340   -4.7620 O.2    56  LEU56      -0.2867
      5  CB       -45.7170  -42.8760   -5.4490 C.3    56  LEU56       0.0270
      6  CG       -44.7600  -43.8900   -4.8470 C.3    56  LEU56       0.0019
      7  CD1      -44.0140  -44.6270   -5.9290 C.3    56  LEU56       0.0001
      8  CD2      -43.7540  -43.2340   -3.9250 C.3    56  LEU56       0.0001
      9  N        -47.3540  -37.7460   -2.7660 N.3    59  LEU59      -0.1245
     10  CA       -46.1160  -37.3680   -2.0840 C.3    59  LEU59       0.1561
     11  C        -45.0100  -36.9560   -3.0600 C.2    59  LEU59       0.2260
     12  O        -43.8260  -37.1600   -2.7650 O.2    59  LEU59      -0.2867
     13  CB       -45.6360  -38.5130   -1.1690 C.3    59  LEU59       0.0270
     14  CG       -46.6020  -39.0320   -0.1010 C.3    59  LEU59       0.0019
     15  CD1      -46.2170  -40.4120    0.3260 C.3    59  LEU59       0.0001
     16  CD2      -46.6610  -38.1130    1.1150 C.3    59  LEU59       0.0001
     17  N        -42.4410  -34.6140   -4.7920 N.3    61  VAL61      -0.1245
     18  CA       -41.5770  -33.4860   -4.4020 C.3    61  VAL61       0.1561
     19  C        -40.5230  -33.1990   -5.4770 C.2    61  VAL61       0.2260
     20  O        -40.1940  -34.0820   -6.2760 O.2    61  VAL61      -0.2867
     21  CB       -40.9170  -33.6240   -2.9790 C.3    61  VAL61       0.0252
     22  CG1      -41.8660  -34.2480   -1.9670 C.3    61  VAL61       0.0019
     23  CG2      -39.5920  -34.3890   -3.0120 C.3    61  VAL61       0.0019
     24  N        -36.9190  -42.3080   -5.6240 N.3    90  LEU90      -0.1245
     25  CA       -36.8820  -43.2930   -4.5260 C.3    90  LEU90       0.1561
     26  C        -35.4750  -43.8070   -4.1440 C.2    90  LEU90       0.2260
     27  O        -35.2760  -44.0600   -2.9420 O.2    90  LEU90      -0.2867
     28  CB       -37.8260  -44.4730   -4.7490 C.3    90  LEU90       0.0270
     29  CG       -39.3290  -44.1800   -4.6180 C.3    90  LEU90       0.0019
     30  CD1      -40.1110  -45.4670   -4.5550 C.3    90  LEU90       0.0001
     31  CD2      -39.6640  -43.3220   -3.3850 C.3    90  LEU90       0.0001
     32  N        -34.1560  -41.0520   -1.8890 N.3    93  MET93      -0.1230
     33  CA       -34.9330  -41.1290   -0.6580 C.3    93  MET93       0.1702
     34  C        -34.5050  -42.3040    0.2100 C.2    93  MET93       0.2592
     35  O        -34.5350  -42.1690    1.4350 O.2    93  MET93      -0.2718
     36  CB       -36.4360  -41.1680   -0.9630 C.3    93  MET93       0.0401
     37  CG       -36.9300  -39.9070   -1.6320 C.3    93  MET93       0.0596
     38  SD       -36.6740  -38.4280   -0.6230 S.3    93  MET93      -0.1393
     39  CE       -37.4340  -37.2740   -1.6270 C.3    93  MET93       0.0692
     40  N        -34.0610  -43.4330   -0.4100 N.am   94  ALA94      -0.1980
     41  CA       -33.5410  -44.5830    0.3350 C.3    94  ALA94       0.1597
     42  C        -32.2960  -44.1060    1.1290 C.2    94  ALA94       0.2287
     43  O        -32.2650  -44.2250    2.3530 O.2    94  ALA94      -0.2864
     44  CB       -33.1770  -45.7160   -0.6150 C.3    94  ALA94       0.0319
     45  N        -31.6060  -41.1180    1.9380 N.3    96  MET96      -0.1230
     46  CA       -32.0700  -40.0820    2.8660 C.3    96  MET96       0.1702
     47  C        -32.6050  -40.7210    4.1250 C.2    96  MET96       0.2593
     48  O        -32.3200  -40.2320    5.2050 O.2    96  MET96      -0.2718
     49  CB       -33.1070  -39.1400    2.2000 C.3    96  MET96       0.0401
     50  CG       -33.6090  -37.9830    3.0750 C.3    96  MET96       0.0596
     51  SD       -32.3780  -37.2000    4.1420 S.3    96  MET96      -0.1393
     52  CE       -32.4620  -35.5610    3.5970 C.3    96  MET96       0.0692
     53  N        -33.3340  -41.8280    3.9980 N.am   97  SER97      -0.1952
     54  CA       -33.9040  -42.5230    5.1460 C.3    97  SER97       0.1924
     55  C        -32.7990  -43.1860    5.9310 C.2    97  SER97       0.2314
     56  O        -32.8450  -43.1980    7.1520 O.2    97  SER97      -0.2863
     57  CB       -34.9250  -43.5630    4.6900 C.3    97  SER97       0.2116
     58  OG       -36.0780  -42.9510    4.1350 O.3    97  SER97      -0.2180
     59  N        -39.2260  -44.9380   11.7900 N.3   131  PHE131     -0.1241
     60  CA       -39.9870  -44.1050   10.8480 C.3   131  PHE131      0.1605
     61  C        -40.6220  -42.8820   11.5210 C.2   131  PHE131      0.2264
     62  O        -40.5200  -41.7800   10.9860 O.2   131  PHE131     -0.2867
     63  CB       -41.0550  -44.9230   10.0840 C.3   131  PHE131      0.0534
     64  CG       -42.0470  -44.1060    9.2760 C.ar  131  PHE131     -0.0203
     65  CD1      -41.7090  -43.6090    8.0220 C.ar  131  PHE131     -0.0042
     66  CD2      -43.3160  -43.8140    9.7810 C.ar  131  PHE131     -0.0042
     67  CE1      -42.6310  -42.8560    7.2730 C.ar  131  PHE131     -0.0003
     68  CE2      -44.2360  -43.0540    9.0330 C.ar  131  PHE131     -0.0003
     69  CZ       -43.8870  -42.5910    7.7830 C.ar  131  PHE131     -0.0000
     70  N        -39.7840  -38.8350   11.0200 N.3   135  GLN135     -0.1245
     71  CA       -40.8700  -37.9570   10.5550 C.3   135  GLN135      0.1566
     72  C        -41.0570  -36.7400   11.4650 C.2   135  GLN135      0.2260
     73  O        -41.5030  -35.6710   11.0220 O.2   135  GLN135     -0.2867
     74  CB       -42.1950  -38.7240   10.4570 C.3   135  GLN135      0.0367
     75  CG       -42.3270  -39.5730    9.2040 C.3   135  GLN135      0.0905
     76  CD       -42.2220  -38.7560    7.9540 C.2   135  GLN135      0.2608
     77  OE1      -42.9340  -37.7720    7.7720 O.2   135  GLN135     -0.2717
     78  NE2      -41.3240  -39.1460    7.0660 N.am  135  GLN135     -0.0878
     79  N        -38.0990  -34.5220   10.5860 N.3   138  PHE138     -0.1241
     80  CA       -38.3780  -33.9020    9.2880 C.3   138  PHE138      0.1605
     81  C        -39.3060  -32.7190    9.4460 C.2   138  PHE138      0.2264
     82  O        -39.0790  -31.6830    8.8350 O.2   138  PHE138     -0.2867
     83  CB       -38.9270  -34.9220    8.2870 C.3   138  PHE138      0.0534
     84  CG       -37.8530  -35.7000    7.5650 C.ar  138  PHE138     -0.0203
     85  CD1      -36.6530  -35.0880    7.1940 C.ar  138  PHE138     -0.0042
     86  CD2      -38.0610  -37.0200    7.1920 C.ar  138  PHE138     -0.0042
     87  CE1      -35.6760  -35.7910    6.4820 C.ar  138  PHE138     -0.0003
     88  CE2      -37.1010  -37.7150    6.4550 C.ar  138  PHE138     -0.0003
     89  CZ       -35.9160  -37.0950    6.1040 C.ar  138  PHE138     -0.0000
     90  N        -39.1810  -28.9440    2.7960 N.3   149  TRP149     -0.1241
     91  CA       -38.3640  -29.4970    3.8510 C.3   149  TRP149      0.1605
     92  C        -36.9600  -28.9470    3.5390 C.2   149  TRP149      0.2264
     93  O        -36.3290  -29.3610    2.5560 O.2   149  TRP149     -0.2867
     94  CB       -38.3840  -31.0360    3.8460 C.3   149  TRP149      0.0550
     95  CG       -39.6420  -31.6120    4.4010 C.ar  149  TRP149      0.0003
     96  CD1      -39.9020  -31.9090    5.7060 C.ar  149  TRP149      0.0946
     97  CD2      -40.8340  -31.9250    3.6700 C.ar  149  TRP149      0.0152
     98  NE1      -41.1850  -32.3830    5.8370 N.ar  149  TRP149     -0.2442
     99  CE2      -41.7750  -32.4270    4.5990 C.ar  149  TRP149      0.0810
    100  CE3      -41.1970  -31.8440    2.3120 C.ar  149  TRP149      0.0012
    101  CZ2      -43.0710  -32.8050    4.2210 C.ar  149  TRP149      0.0191
    102  CZ3      -42.4750  -32.2320    1.9400 C.ar  149  TRP149      0.0001
    103  CH2      -43.4000  -32.6930    2.8890 C.ar  149  TRP149      0.0015
    104  N        -33.3940  -28.9480    4.1940 N.3   151  CYS151     -0.1235
    105  CA       -32.3570  -29.8110    4.7690 C.3   151  CYS151      0.1677
    106  C        -30.9390  -29.3240    4.4490 C.2   151  CYS151      0.2270
    107  O        -30.1460  -30.1020    3.9220 O.2   151  CYS151     -0.2867
    108  CB       -32.5530  -31.2600    4.3290 C.3   151  CYS151      0.0956
    109  SG       -34.2450  -31.8740    4.5010 S.3   151  CYS151     -0.0801
    110  N        -36.5700  -30.2000   -0.3980 N.3   156  TYR156     -0.1241
    111  CA       -37.5830  -31.0400   -1.0370 C.3   156  TYR156      0.1605
    112  C        -38.9000  -30.3150   -0.8750 C.2   156  TYR156      0.2264
    113  O        -39.3880  -30.1380    0.2480 O.2   156  TYR156     -0.2867
    114  CB       -37.6360  -32.4330   -0.3970 C.3   156  TYR156      0.0534
    115  CG       -36.2880  -33.0890   -0.1930 C.ar  156  TYR156     -0.0201
    116  CD1      -35.5020  -32.7840    0.9190 C.ar  156  TYR156     -0.0009
    117  CD2      -35.8190  -34.0530   -1.0830 C.ar  156  TYR156     -0.0009
    118  CE1      -34.2670  -33.4000    1.1220 C.ar  156  TYR156      0.0417
    119  CE2      -34.6080  -34.7060   -0.8690 C.ar  156  TYR156      0.0417
    120  CZ       -33.8250  -34.3650    0.2270 C.ar  156  TYR156      0.1957
    121  OH       -32.6100  -34.9730    0.4250 O.3   156  TYR156     -0.2866
    122  N        -42.9180  -29.9380   -2.1590 N.3   158  LEU158     -0.1245
    123  CA       -44.0650  -30.6470   -2.7400 C.3   158  LEU158      0.1561
    124  C        -44.5620  -29.9960   -4.0400 C.2   158  LEU158      0.2260
    125  O        -44.6600  -28.7730   -4.1250 O.2   158  LEU158     -0.2867
    126  CB       -45.2370  -30.7360   -1.7400 C.3   158  LEU158      0.0270
    127  CG       -45.0580  -31.6090   -0.5080 C.3   158  LEU158      0.0019
    128  CD1      -45.9650  -31.1580    0.5770 C.3   158  LEU158      0.0001
    129  CD2      -45.2970  -33.0650   -0.8150 C.3   158  LEU158      0.0001
    130  N        -50.1060  -38.2120    5.6270 N.3   173  MET173     -0.1230
    131  CA       -48.7320  -37.8150    5.8520 C.3   173  MET173      0.1702
    132  C        -48.5120  -36.3170    5.7910 C.2   173  MET173      0.2592
    133  O        -47.7760  -35.7850    6.6270 O.2   173  MET173     -0.2718
    134  CB       -47.8180  -38.5360    4.8810 C.3   173  MET173      0.0401
    135  CG       -46.4820  -38.7850    5.4650 C.3   173  MET173      0.0596
    136  SD       -45.6420  -40.0780    4.5650 S.3   173  MET173     -0.1393
    137  CE       -44.0590  -39.8520    5.1860 C.3   173  MET173      0.0692
    138  N        -49.1480  -35.6410    4.8120 N.am  174  LEU174     -0.1980
    139  CA       -49.0260  -34.1920    4.6150 C.3   174  LEU174      0.1596
    140  C        -49.8940  -33.3930    5.6030 C.2   174  LEU174      0.2287
    141  O        -49.4270  -32.3690    6.1330 O.2   174  LEU174     -0.2864
    142  CB       -49.2870  -33.7980    3.1500 C.3   174  LEU174      0.0297
    143  CG       -48.4960  -34.5780    2.0910 C.3   174  LEU174      0.0022
    144  CD1      -48.9570  -34.2490    0.7050 C.3   174  LEU174      0.0001
    145  CD2      -47.0110  -34.3660    2.2270 C.3   174  LEU174      0.0001
    146  N        -47.7700  -33.1390    8.8200 N.3   177  HIS177     -0.1241
    147  CA       -46.7500  -32.0850    8.8350 C.3   177  HIS177      0.1621
    148  C        -47.3270  -30.6790    8.9540 C.2   177  HIS177      0.2264
    149  O        -46.8310  -29.8700    9.7430 O.2   177  HIS177     -0.2867
    150  CB       -45.8410  -32.1900    7.6240 C.3   177  HIS177      0.0745
    151  CG       -44.8900  -33.3230    7.7180 C.ar  177  HIS177      0.0817
    152  ND1      -43.8330  -33.2980    8.6050 N.ar  177  HIS177     -0.2268
    153  CD2      -44.8630  -34.4830    7.0280 C.ar  177  HIS177      0.1154
    154  CE1      -43.1930  -34.4420    8.4290 C.ar  177  HIS177      0.1986
    155  NE2      -43.7760  -35.1860    7.4830 N.ar  177  HIS177     -0.2212
    156  N        -47.6480  -46.6270    6.1010 N.3   257  HIS257     -0.1241
    157  CA       -46.3300  -46.5580    5.4790 C.3   257  HIS257      0.1621
    158  C        -45.7040  -47.9360    5.3060 C.2   257  HIS257      0.2264
    159  O        -45.2170  -48.2280    4.2110 O.2   257  HIS257     -0.2867
    160  CB       -45.3850  -45.5670    6.2100 C.3   257  HIS257      0.0745
    161  CG       -43.9540  -45.6160    5.7370 C.ar  257  HIS257      0.0817
    162  ND1      -43.5530  -45.0300    4.5410 N.ar  257  HIS257     -0.2268
    163  CD2      -42.8810  -46.2210    6.3010 C.ar  257  HIS257      0.1154
    164  CE1      -42.2620  -45.2930    4.4230 C.ar  257  HIS257      0.1986
    165  NE2      -41.8050  -45.9940    5.4530 N.ar  257  HIS257     -0.2212
    166  N        -44.7550  -49.4730    1.7050 N.3   261  LEU261     -0.1245
    167  CA       -43.3760  -49.8890    1.4490 C.3   261  LEU261      0.1561
    168  C        -43.2770  -51.3310    0.9370 C.2   261  LEU261      0.2260
    169  O        -42.4640  -51.6000    0.0480 O.2   261  LEU261     -0.2867
    170  CB       -42.5020  -49.6750    2.6920 C.3   261  LEU261      0.0270
    171  CG       -41.0380  -49.3950    2.4070 C.3   261  LEU261      0.0019
    172  CD1      -40.5740  -48.1970    3.1600 C.3   261  LEU261      0.0001
    173  CD2      -40.1800  -50.5630    2.7830 C.3   261  LEU261      0.0001
    174  N        -44.3120  -51.3740   -2.6500 N.3   264  ILE264     -0.1231
    175  CA       -43.2180  -50.7610   -3.4230 C.3   264  ILE264      0.1692
    176  C        -42.0980  -51.8030   -3.6170 C.2   264  ILE264      0.2591
    177  O        -41.6330  -52.0300   -4.7400 O.2   264  ILE264     -0.2718
    178  CB       -42.7360  -49.4190   -2.7610 C.3   264  ILE264      0.0266
    179  CG1      -43.7390  -48.2720   -3.0720 C.3   264  ILE264      0.0019
    180  CG2      -41.3180  -49.0360   -3.2120 C.3   264  ILE264      0.0020
    181  CD1      -43.6610  -47.0130   -2.2250 C.3   264  ILE264      0.0001
    182  N        -41.7290  -52.4720   -2.5170 N.am  265  GLN265     -0.1979
    183  CA       -40.7000  -53.4960   -2.4870 C.3   265  GLN265      0.1601
    184  C        -41.0990  -54.7190   -3.3240 C.2   265  GLN265      0.2287
    185  O        -40.2230  -55.4380   -3.8200 O.2   265  GLN265     -0.2864
    186  CB       -40.3870  -53.8730   -1.0340 C.3   265  GLN265      0.0394
    187  CG       -38.9340  -54.2670   -0.7910 C.3   265  GLN265      0.0908
    188  CD       -37.9750  -53.1030   -0.7800 C.2   265  GLN265      0.2608
    189  OE1      -38.3640  -51.9300   -0.6820 O.2   265  GLN265     -0.2717
    190  NE2      -36.6870  -53.4170   -0.8570 N.am  265  GLN265     -0.0878
    191  N        -36.0070  -51.3690   -3.4040 N.3   270  PHE270     -0.1227
    192  CA       -35.4040  -50.0460   -3.2760 C.3   270  PHE270      0.1736
    193  C        -34.7050  -49.8410   -1.9500 C.2   270  PHE270      0.2595
    194  O        -33.6790  -49.1570   -1.9020 O.2   270  PHE270     -0.2718
    195  CB       -36.4520  -48.9510   -3.5180 C.3   270  PHE270      0.0547
    196  CG       -36.8110  -48.7000   -4.9650 C.ar  270  PHE270     -0.0202
    197  CD1      -35.8300  -48.3790   -5.8980 C.ar  270  PHE270     -0.0042
    198  CD2      -38.1360  -48.7100   -5.3810 C.ar  270  PHE270     -0.0042
    199  CE1      -36.1640  -48.1270   -7.2290 C.ar  270  PHE270     -0.0003
    200  CE2      -38.4700  -48.4560   -6.7170 C.ar  270  PHE270     -0.0003
    201  CZ       -37.4810  -48.1770   -7.6320 C.ar  270  PHE270     -0.0000
    202  N        -35.2800  -50.4250   -0.8790 N.am  271  ALA271     -0.1980
    203  CA       -34.8010  -50.3610    0.5000 C.3   271  ALA271      0.1597
    204  C        -33.4010  -50.8920    0.6580 C.2   271  ALA271      0.2287
    205  O        -33.0340  -51.9230    0.0900 O.2   271  ALA271     -0.2864
    206  CB       -35.7450  -51.0960    1.4360 C.3   271  ALA271      0.0319
    207  N        -32.5430  -50.2140    6.0530 N.3   275  MET275     -0.1245
    208  CA       -33.9860  -50.0190    5.9870 C.3   275  MET275      0.1570
    209  C        -34.6360  -51.3540    6.1380 C.2   275  MET275      0.2261
    210  O        -35.5570  -51.4730    6.9290 O.2   275  MET275     -0.2867
    211  CB       -34.3940  -49.3570    4.6790 C.3   275  MET275      0.0387
    212  CG       -34.2670  -47.8680    4.7190 C.3   275  MET275      0.0595
    213  SD       -34.2780  -47.1610    3.0730 S.3   275  MET275     -0.1393
    214  CE       -35.9740  -47.4790    2.6070 C.3   275  MET275      0.0692
@<TRIPOS>BOND
     1   201   199   ar
     2   201   200   ar
     3   199   197   ar
     4   200   198   ar
     5    20    19    2
     6     7     6    1
     7   197   196   ar
     8    24    25    1
     9    19    18    1
    10     5     6    1
    11     5     2    1
    12   198   196   ar
    13     3     4    2
    14     3     2    1
    15   196   195    1
    16     6     8    1
    17    17    18    1
    18    28    29    1
    19    28    25    1
    20   177   176    2
    21    29    30    1
    22    29    31    1
    23    25    26    1
    24     2     1    1
    25    18    21    1
    26    26    27    2
    27   125   124    2
    28   124   123    1
    29   185   184    2
    30   176   175    1
    31   176   182   am
    32   195   192    1
    33   175   178    1
    34   175   174    1
    35   191   192    1
    36   184   183    1
    37   192   193    1
    38   180   178    1
    39   179   178    1
    40   179   181    1
    41    11    12    2
    42    11    10    1
    43    23    21    1
    44    21    22    1
    45     9    10    1
    46   123   122    1
    47   123   126    1
    48   182   183    1
    49   183   186    1
    50    10    13    1
    51   193   194    2
    52   193   202   am
    53    32    33    1
    54   126   127    1
    55    37    36    1
    56    37    38    1
    57    39    38    1
    58    13    14    1
    59   117   119   ar
    60   117   115   ar
    61   111   112    1
    62   111   110    1
    63   111   114    1
    64   186   187    1
    65    36    33    1
    66   202   203    1
    67   112   113    2
    68   119   120   ar
    69   190   188   am
    70   129   127    1
    71   187   188    1
    72   188   189    2
    73    33    34    1
    74    44    41    1
    75   127   128    1
    76    40    34   am
    77    40    41    1
    78   114   115    1
    79   115   116   ar
    80    14    15    1
    81    14    16    1
    82   169   168    2
    83   205   204    2
    84    34    35    2
    85   120   121    1
    86   120   118   ar
    87    41    42    1
    88   203   204    1
    89   203   206    1
    90   144   143    1
    91   116   118   ar
    92   168   167    1
    93    42    43    2
    94   167   166    1
    95   167   170    1
    96    45    46    1
    97   102   100   ar
    98   102   103   ar
    99   143   145    1
   100   143   142    1
   101    49    46    1
   102    49    50    1
   103   100    97   ar
   104   171   170    1
   105   171   173    1
   106   171   172    1
   107    93    92    2
   108   214   213    1
   109    90    91    1
   110    46    47    1
   111   103   101   ar
   112   213   212    1
   113    50    51    1
   114   142   139    1
   115    92    91    1
   116    52    51    1
   117    97    95   ar
   118    97    99   ar
   119    94    91    1
   120    94    95    1
   121   107   106    2
   122    53    47   am
   123    53    54    1
   124    47    48    2
   125    58    57    1
   126   104   105    1
   127   159   158    2
   128   101    99   ar
   129   108   109    1
   130   108   105    1
   131    95    96   ar
   132   164   162   ar
   133   164   165   ar
   134   106   105    1
   135   162   161   ar
   136   136   137    1
   137   136   135    1
   138    99    98   ar
   139   139   138    1
   140   139   140    1
   141   211   212    1
   142   211   208    1
   143    57    54    1
   144   138   132   am
   145   134   135    1
   146   134   131    1
   147    54    55    1
   148   158   157    1
   149   165   163   ar
   150   157   156    1
   151   157   160    1
   152   140   141    2
   153   130   131    1
   154    96    98   ar
   155   161   160    1
   156   161   163   ar
   157   132   131    1
   158   132   133    2
   159    55    56    2
   160   208   207    1
   161   208   209    1
   162    89    88   ar
   163    89    87   ar
   164   209   210    2
   165    88    86   ar
   166    87    85   ar
   167   153   155   ar
   168   153   151   ar
   169    78    76   am
   170    86    84   ar
   171    85    84   ar
   172    67    69   ar
   173    67    65   ar
   174   155   154   ar
   175    84    83    1
   176   150   151    1
   177   150   147    1
   178   151   152   ar
   179    77    76    2
   180    69    68   ar
   181    76    75    1
   182    65    64   ar
   183    83    80    1
   184   154   152   ar
   185   146   147    1
   186   147   148    1
   187    82    81    2
   188   148   149    2
   189    68    66   ar
   190    75    74    1
   191    64    66   ar
   192    64    63    1
   193    80    81    1
   194    80    79    1
   195    63    60    1
   196    74    71    1
   197    71    70    1
   198    71    72    1
   199    60    61    1
   200    60    59    1
   201    62    61    2
   202    73    72    2
