@<TRIPOS>MOLECULE
tmp/4s0vA00.pdb
 222 210 0 0 0
SMALL
GASTEIGER

@<TRIPOS>ATOM
      1  N         43.1910   11.4970   50.5430 N.3    58  CYS58      -0.1235
      2  CA        44.4100   11.4730   51.3520 C.3    58  CYS58       0.1677
      3  C         44.9940   12.8500   51.6510 C.2    58  CYS58       0.2270
      4  O         45.4050   13.1240   52.7810 O.2    58  CYS58      -0.2867
      5  CB        45.4690   10.6110   50.6640 C.3    58  CYS58       0.0956
      6  SG        44.9430    8.9090   50.3940 S.3    58  CYS58      -0.0801
      7  N         43.5050   14.8500   54.8020 N.3    61  ALA61      -0.1231
      8  CA        43.9190   14.1720   56.0240 C.3    61  ALA61       0.1694
      9  C         45.3770   14.4810   56.3310 C.2    61  ALA61       0.2592
     10  O         45.7330   14.7760   57.4720 O.2    61  ALA61      -0.2718
     11  CB        43.7060   12.6690   55.8990 C.3    61  ALA61       0.0304
     12  N         46.2100   14.4270   55.2970 N.am   62  THR62      -0.1953
     13  CA        47.6330   14.6970   55.4350 C.3    62  THR62       0.1897
     14  C         47.8850   16.1330   55.8690 C.2    62  THR62       0.2313
     15  O         48.7460   16.3880   56.7070 O.2    62  THR62      -0.2863
     16  CB        48.3840   14.4270   54.1250 C.3    62  THR62       0.1794
     17  OG1       48.1610   13.0700   53.7220 O.3    62  THR62      -0.2208
     18  CG2       49.8740   14.6560   54.3120 C.3    62  THR62       0.0378
     19  N         46.9070   16.3040   59.6410 N.3    65  VAL65      -0.1245
     20  CA        47.9070   15.6280   60.4620 C.3    65  VAL65       0.1561
     21  C         49.2140   16.4140   60.5280 C.2    65  VAL65       0.2260
     22  O         49.7790   16.5950   61.6030 O.2    65  VAL65      -0.2867
     23  CB        48.1970   14.2080   59.9350 C.3    65  VAL65       0.0252
     24  CG1       49.3680   13.5850   60.6810 C.3    65  VAL65       0.0019
     25  CG2       46.9610   13.3430   60.0680 C.3    65  VAL65       0.0019
     26  N         45.8540   12.5500   65.1760 N.3    71  TRP71      -0.1241
     27  CA        44.8970   11.8650   64.3170 C.3    71  TRP71       0.1605
     28  C         43.4900   11.9700   64.9040 C.2    71  TRP71       0.2264
     29  O         43.1890   11.3550   65.9250 O.2    71  TRP71      -0.2867
     30  CB        45.2990   10.3980   64.1320 C.3    71  TRP71       0.0550
     31  CG        44.4630    9.6650   63.1250 C.ar   71  TRP71       0.0003
     32  CD1       43.4060    8.8410   63.3790 C.ar   71  TRP71       0.0946
     33  CD2       44.6130    9.6970   61.7010 C.ar   71  TRP71       0.0152
     34  NE1       42.8880    8.3560   62.2020 N.ar   71  TRP71      -0.2442
     35  CE2       43.6140    8.8650   61.1570 C.ar   71  TRP71       0.0810
     36  CE3       45.4970   10.3430   60.8350 C.ar   71  TRP71       0.0012
     37  CZ2       43.4740    8.6670   59.7840 C.ar   71  TRP71       0.0191
     38  CZ3       45.3580   10.1440   59.4730 C.ar   71  TRP71       0.0001
     39  CH2       44.3540    9.3130   58.9610 C.ar   71  TRP71       0.0015
     40  N         43.1220    5.3000   54.9050 N.3    81  ILE81      -0.1231
     41  CA        43.7680    6.4030   54.1980 C.3    81  ILE81       0.1678
     42  C         45.2360    6.1230   53.8130 C.2    81  ILE81       0.2434
     43  O         45.6360    6.4140   52.6800 O.2    81  ILE81      -0.2733
     44  CB        43.6650    7.7050   55.0240 C.3    81  ILE81       0.0265
     45  CG1       42.2050    8.1680   55.0680 C.3    81  ILE81       0.0019
     46  CG2       44.5610    8.7900   54.4480 C.3    81  ILE81       0.0020
     47  CD1       41.9670    9.3930   55.9210 C.3    81  ILE81       0.0001
     48  N         46.0420    5.5490   54.7310 N.am   82  PRO82      -0.2729
     49  CA        47.3870    5.1720   54.2730 C.3    82  PRO82       0.1401
     50  C         47.3480    4.0900   53.1960 C.2    82  PRO82       0.2269
     51  O         48.1500    4.1170   52.2550 O.2    82  PRO82      -0.2865
     52  CB        48.0580    4.6500   55.5460 C.3    82  PRO82       0.0296
     53  CG        47.3280    5.3300   56.6550 C.3    82  PRO82       0.0237
     54  CD        45.9070    5.3930   56.1910 C.3    82  PRO82       0.0939
     55  N         46.5990    5.6610   50.0130 N.3    85  GLN85      -0.1231
     56  CA        47.8160    6.3580   49.6050 C.3    85  GLN85       0.1698
     57  C         48.7580    5.4220   48.8470 C.2    85  GLN85       0.2592
     58  O         49.1050    5.6730   47.6850 O.2    85  GLN85      -0.2718
     59  CB        48.5270    6.9500   50.8260 C.3    85  GLN85       0.0381
     60  CG        49.8840    7.5600   50.5230 C.3    85  GLN85       0.0905
     61  CD        49.7830    8.8460   49.7270 C.2    85  GLN85       0.2608
     62  OE1       48.9310    9.6930   49.9970 O.2    85  GLN85      -0.2717
     63  NE2       50.6550    8.9990   48.7360 N.am   85  GLN85      -0.0878
     64  N         49.1520    4.3340   49.5060 N.am   86  THR86      -0.1953
     65  CA        50.0860    3.3760   48.9190 C.3    86  THR86       0.1897
     66  C         49.5420    2.7350   47.6440 C.2    86  THR86       0.2313
     67  O         50.2800    2.5450   46.6780 O.2    86  THR86      -0.2863
     68  CB        50.4460    2.2590   49.9130 C.3    86  THR86       0.1794
     69  OG1       49.2490    1.6240   50.3770 O.3    86  THR86      -0.2208
     70  CG2       51.2010    2.8250   51.0950 C.3    86  THR86       0.0378
     71  N         49.8800    5.1940   44.8680 N.3    89  VAL89      -0.1245
     72  CA        51.2800    5.2230   44.4450 C.3    89  VAL89       0.1561
     73  C         51.6260    4.0390   43.5320 C.2    89  VAL89       0.2260
     74  O         52.2050    4.2180   42.4550 O.2    89  VAL89      -0.2867
     75  CB        52.2260    5.2220   45.6610 C.3    89  VAL89       0.0252
     76  CG1       53.6710    5.0710   45.2120 C.3    89  VAL89       0.0019
     77  CG2       52.0420    6.4960   46.4730 C.3    89  VAL89       0.0019
     78  N         50.3300   -2.7700   54.5270 N.3   134  GLN134     -0.1245
     79  CA        50.2530   -1.3890   54.9840 C.3   134  GLN134      0.1566
     80  C         49.0300   -1.1830   55.8690 C.2   134  GLN134      0.2260
     81  O         49.1330   -0.6340   56.9640 O.2   134  GLN134     -0.2867
     82  CB        50.2080   -0.4270   53.7970 C.3   134  GLN134      0.0367
     83  CG        50.3660    1.0270   54.1930 C.3   134  GLN134      0.0905
     84  CD        51.7470    1.3220   54.7430 C.2   134  GLN134      0.2608
     85  OE1       52.7530    1.1300   54.0580 O.2   134  GLN134     -0.2717
     86  NE2       51.8060    1.7820   55.9900 N.am  134  GLN134     -0.0878
     87  N         49.1560   -0.3310   60.2090 N.3   138  MET138     -0.1245
     88  CA        48.7020    0.9600   60.7350 C.3   138  MET138      0.1570
     89  C         47.8400    0.7970   61.9810 C.2   138  MET138      0.2261
     90  O         46.8850    0.0240   61.9870 O.2   138  MET138     -0.2867
     91  CB        47.9170    1.7400   59.6740 C.3   138  MET138      0.0387
     92  CG        48.7160    2.0960   58.4320 C.3   138  MET138      0.0595
     93  SD        50.2930    2.8830   58.8130 S.3   138  MET138     -0.1393
     94  CE        49.7290    4.3500   59.6690 C.3   138  MET138      0.0692
     95  N         48.3190    8.2250   64.5590 N.3   152  CYS152     -0.1235
     96  CA        48.1800    7.0810   63.6660 C.3   152  CYS152      0.1677
     97  C         49.5350    6.7300   63.0700 C.2   152  CYS152      0.2270
     98  O         50.1330    7.5390   62.3600 O.2   152  CYS152     -0.2867
     99  CB        47.1610    7.3810   62.5600 C.3   152  CYS152      0.0956
    100  SG        46.9890    6.1030   61.2810 S.3   152  CYS152     -0.0801
    101  N         52.5370    3.2280   62.0150 N.3   154  GLU154     -0.1245
    102  CA        52.8800    1.8240   61.8580 C.3   154  GLU154      0.1567
    103  C         53.2520    1.1960   63.1930 C.2   154  GLU154      0.2260
    104  O         54.0710    1.7370   63.9360 O.2   154  GLU154     -0.2867
    105  CB        54.0350    1.6700   60.8700 C.3   154  GLU154      0.0388
    106  CG        53.7250    2.1870   59.4800 C.3   154  GLU154      0.1160
    107  CD        54.9460    2.2140   58.5850 C.2   154  GLU154      0.3649
    108  OE1       56.0750    2.1520   59.1170 O.co2 154  GLU154     -0.2457
    109  OE2       54.7760    2.2960   57.3500 O.co2 154  GLU154     -0.2457
    110  N         60.2210   -1.4760   54.5220 N.3   166  HIS166     -0.1241
    111  CA        60.4580   -0.1930   53.8770 C.3   166  HIS166      0.1621
    112  C         61.5150   -0.2930   52.7850 C.2   166  HIS166      0.2264
    113  O         61.4770    0.4660   51.8080 O.2   166  HIS166     -0.2867
    114  CB        60.8310    0.8590   54.9150 C.3   166  HIS166      0.0745
    115  CG        59.6440    1.4250   55.6290 C.ar  166  HIS166      0.0817
    116  ND1       58.8890    2.4560   55.1120 N.ar  166  HIS166     -0.2268
    117  CD2       59.0590    1.0820   56.8010 C.ar  166  HIS166      0.1154
    118  CE1       57.9020    2.7360   55.9440 C.ar  166  HIS166      0.1986
    119  NE2       57.9830    1.9170   56.9770 N.ar  166  HIS166     -0.2212
    120  N         59.2800   -1.6320   50.0550 N.3   169  PHE169     -0.1241
    121  CA        58.4060   -0.5730   49.5610 C.3   169  PHE169      0.1605
    122  C         59.1800    0.3770   48.6600 C.2   169  PHE169      0.2264
    123  O         58.6890    0.7820   47.6020 O.2   169  PHE169     -0.2867
    124  CB        57.7690    0.2010   50.7190 C.3   169  PHE169      0.0534
    125  CG        56.6180    1.0740   50.3030 C.ar  169  PHE169     -0.0203
    126  CD1       56.8340    2.3690   49.8620 C.ar  169  PHE169     -0.0042
    127  CD2       55.3200    0.5960   50.3500 C.ar  169  PHE169     -0.0042
    128  CE1       55.7730    3.1710   49.4750 C.ar  169  PHE169     -0.0003
    129  CE2       54.2570    1.3920   49.9660 C.ar  169  PHE169     -0.0003
    130  CZ        54.4830    2.6810   49.5280 C.ar  169  PHE169     -0.0000
    131  N         57.9450    0.3640   44.8060 N.3   173  THR173     -0.1218
    132  CA        57.1900    1.5510   44.4170 C.3   173  THR173      0.1862
    133  C         58.0590    2.6370   43.7970 C.2   173  THR173      0.2287
    134  O         57.5430    3.6380   43.3070 O.2   173  THR173     -0.2866
    135  CB        56.4430    2.1650   45.6150 C.3   173  THR173      0.1770
    136  OG1       57.3860    2.7520   46.5210 O.3   173  THR173     -0.2211
    137  CG2       55.6320    1.1030   46.3400 C.3   173  THR173      0.0375
    138  N         59.0350   12.1050   44.0350 N.3   416  TYR416     -0.1241
    139  CA        59.0090   11.0230   45.0180 C.3   416  TYR416      0.1605
    140  C         60.3700   10.7190   45.6450 C.2   416  TYR416      0.2264
    141  O         60.4520    9.9380   46.5950 O.2   416  TYR416     -0.2867
    142  CB        58.4340    9.7510   44.3910 C.3   416  TYR416      0.0534
    143  CG        56.9230    9.7170   44.4080 C.ar  416  TYR416     -0.0201
    144  CD1       56.1840   10.2830   43.3760 C.ar  416  TYR416     -0.0009
    145  CD2       56.2350    9.1350   45.4660 C.ar  416  TYR416     -0.0009
    146  CE1       54.8010   10.2640   43.3940 C.ar  416  TYR416      0.0417
    147  CE2       54.8520    9.1100   45.4910 C.ar  416  TYR416      0.0417
    148  CZ        54.1400    9.6760   44.4520 C.ar  416  TYR416      0.1957
    149  OH        52.7640    9.6550   44.4710 O.3   416  TYR416     -0.2866
    150  N         60.7130   11.9800   49.7880 N.3   419  ILE419     -0.1231
    151  CA        59.9820   11.1460   50.7400 C.3   419  ILE419      0.1692
    152  C         60.5660    9.7320   50.7870 C.2   419  ILE419      0.2592
    153  O         60.5320    9.0710   51.8270 O.2   419  ILE419     -0.2718
    154  CB        58.4690   11.0860   50.4020 C.3   419  ILE419      0.0266
    155  CG1       57.6870   10.4230   51.5390 C.3   419  ILE419      0.0019
    156  CG2       58.2270   10.3680   49.0830 C.3   419  ILE419      0.0020
    157  CD1       57.8390   11.1240   52.8750 C.3   419  ILE419      0.0001
    158  N         61.1210    9.2850   49.6640 N.am  420  SER420     -0.1952
    159  CA        61.7560    7.9770   49.5880 C.3   420  SER420      0.1924
    160  C         63.0030    7.9440   50.4530 C.2   420  SER420      0.2314
    161  O         63.1480    7.0800   51.3170 O.2   420  SER420     -0.2863
    162  CB        62.1130    7.6310   48.1430 C.3   420  SER420      0.2116
    163  OG        60.9650    7.6510   47.3190 O.3   420  SER420     -0.2180
    164  N         62.1040    8.2820   54.1480 N.3   423  ASN423     -0.1240
    165  CA        61.5600    7.0380   54.6800 C.3   423  ASN423      0.1653
    166  C         62.6390    5.9830   54.8790 C.2   423  ASN423      0.2266
    167  O         62.6310    5.2690   55.8730 O.2   423  ASN423     -0.2867
    168  CB        60.4630    6.4880   53.7690 C.3   423  ASN423      0.1155
    169  CG        59.0950    7.0550   54.0930 C.2   423  ASN423      0.2627
    170  OD1       58.8560    7.5420   55.1990 O.2   423  ASN423     -0.2716
    171  ND2       58.1850    6.9880   53.1280 N.am  423  ASN423     -0.0877
    172  N         63.3330    4.7080   58.5920 N.3   427  ARG427     -0.1245
    173  CA        62.7990    3.3730   58.8560 C.3   427  ARG427      0.1563
    174  C         63.8140    2.2450   58.6760 C.2   427  ARG427      0.2260
    175  O         63.6750    1.1830   59.2820 O.2   427  ARG427     -0.2867
    176  CB        61.5920    3.1070   57.9520 C.3   427  ARG427      0.0307
    177  CG        60.3970    4.0100   58.2110 C.3   427  ARG427      0.0489
    178  CD        59.7530    3.6880   59.5460 C.3   427  ARG427      0.2205
    179  NE        58.5070    4.4190   59.7480 N.pl3 427  ARG427     -0.0865
    180  CZ        57.7390    4.2950   60.8260 C.cat 427  ARG427      0.5346
    181  NH1       58.0920    3.4670   61.7990 N.pl3 427  ARG427      0.1354
    182  NH2       56.6190    4.9980   60.9310 N.pl3 427  ARG427      0.1354
    183  N         59.7070   16.4720   56.2020 N.3   443  PHE443     -0.1241
    184  CA        58.6480   15.5010   55.9520 C.3   443  PHE443      0.1605
    185  C         57.3750   16.1500   55.4120 C.2   443  PHE443      0.2264
    186  O         56.7830   15.6490   54.4550 O.2   443  PHE443     -0.2867
    187  CB        58.3330   14.7120   57.2240 C.3   443  PHE443      0.0534
    188  CG        59.0630   13.4040   57.3160 C.ar  443  PHE443     -0.0203
    189  CD1       58.5540   12.2700   56.7020 C.ar  443  PHE443     -0.0042
    190  CD2       60.2600   13.3080   58.0080 C.ar  443  PHE443     -0.0042
    191  CE1       59.2230   11.0620   56.7780 C.ar  443  PHE443     -0.0003
    192  CE2       60.9350   12.1040   58.0880 C.ar  443  PHE443     -0.0003
    193  CZ        60.4150   10.9790   57.4720 C.ar  443  PHE443     -0.0000
    194  N         55.7380   15.3730   51.7500 N.3   447  HIS447     -0.1241
    195  CA        54.3410   14.9900   51.5740 C.3   447  HIS447      0.1621
    196  C         53.6620   15.9030   50.5550 C.2   447  HIS447      0.2264
    197  O         53.0670   15.4290   49.5670 O.2   447  HIS447     -0.2867
    198  CB        53.5950   15.0350   52.9120 C.3   447  HIS447      0.0745
    199  CG        54.1030   14.0530   53.9210 C.ar  447  HIS447      0.0817
    200  ND1       53.7920   14.1320   55.2620 N.ar  447  HIS447     -0.2268
    201  CD2       54.9020   12.9670   53.7850 C.ar  447  HIS447      0.1154
    202  CE1       54.3770   13.1400   55.9070 C.ar  447  HIS447      0.1986
    203  NE2       55.0560   12.4180   55.0360 N.ar  447  HIS447     -0.2212
    204  N         54.8660   15.2050   46.9990 N.3   450  VAL450     -0.1231
    205  CA        54.2250   13.9910   46.5150 C.3   450  VAL450      0.1692
    206  C         52.8270   14.3030   45.9970 C.2   450  VAL450      0.2592
    207  O         52.4540   13.8700   44.9080 O.2   450  VAL450     -0.2718
    208  CB        54.1460   12.9160   47.6160 C.3   450  VAL450      0.0266
    209  CG1       53.1920   11.8020   47.2150 C.3   450  VAL450      0.0020
    210  CG2       55.5270   12.3650   47.9050 C.3   450  VAL450      0.0020
    211  N         52.0590   15.0760   46.7580 N.am  451  TYR451     -0.1976
    212  CA        50.7230   15.4330   46.2860 C.3   451  TYR451      0.1639
    213  C         50.7770   16.4030   45.1050 C.2   451  TYR451      0.2290
    214  O         49.8650   16.4380   44.2740 O.2   451  TYR451     -0.2864
    215  CB        49.8890   16.0240   47.4240 C.3   451  TYR451      0.0560
    216  CG        49.5290   15.0010   48.4760 C.ar  451  TYR451     -0.0198
    217  CD1       48.7570   13.8920   48.1570 C.ar  451  TYR451     -0.0009
    218  CD2       49.9670   15.1370   49.7840 C.ar  451  TYR451     -0.0009
    219  CE1       48.4310   12.9510   49.1120 C.ar  451  TYR451      0.0417
    220  CE2       49.6450   14.2020   50.7460 C.ar  451  TYR451      0.0417
    221  CZ        48.8770   13.1110   50.4060 C.ar  451  TYR451      0.1957
    222  OH        48.5570   12.1770   51.3660 O.3   451  TYR451     -0.2866
@<TRIPOS>BOND
     1    74    73    2
     2   134   133    2
     3   144   146   ar
     4   144   143   ar
     5   146   148   ar
     6    73    72    1
     7   133   132    1
     8   138   139    1
     9   214   213    2
    10   142   143    1
    11   142   139    1
    12   143   145   ar
    13   132   131    1
    14   132   135    1
    15    72    71    1
    16    72    75    1
    17   148   149    1
    18   148   147   ar
    19   207   206    2
    20   139   140    1
    21   213   212    1
    22    76    75    1
    23   145   147   ar
    24   135   137    1
    25   135   136    1
    26   140   141    2
    27    75    77    1
    28   206   205    1
    29   206   211   am
    30   212   211    1
    31   212   215    1
    32   205   204    1
    33   205   208    1
    34    67    66    2
    35   209   208    1
    36   163   162    1
    37   215   216    1
    38   123   122    2
    39   208   210    1
    40    66    65    1
    41    58    57    2
    42   162   159    1
    43   217   216   ar
    44   217   219   ar
    45   216   218   ar
    46   122   121    1
    47    63    61   am
    48    57    64   am
    49    57    56    1
    50    65    64    1
    51    65    68    1
    52   156   154    1
    53   219   221   ar
    54   128   130   ar
    55   128   126   ar
    56   130   129   ar
    57   121   120    1
    58   121   124    1
    59   197   196    2
    60   159   158    1
    61   159   160    1
    62    56    55    1
    63    56    59    1
    64   158   152   am
    65    61    62    2
    66    61    60    1
    67   218   220   ar
    68   150   151    1
    69   126   125   ar
    70    68    69    1
    71    68    70    1
    72   129   127   ar
    73   125   127   ar
    74   125   124    1
    75     6     5    1
    76   154   151    1
    77   154   155    1
    78   221   220   ar
    79   221   222    1
    80   160   161    2
    81    60    59    1
    82     1     2    1
    83   196   195    1
    84     5     2    1
    85   151   152    1
    86   152   153    2
    87     2     3    1
    88   155   157    1
    89   195   194    1
    90   195   198    1
    91     3     4    2
    92   113   112    2
    93    51    50    2
    94    43    42    2
    95   112   111    1
    96   198   199    1
    97   171   169   am
    98    50    49    1
    99    17    16    1
   100   168   169    1
   101   168   165    1
   102   201   199   ar
   103   201   203   ar
   104    82    83    1
   105    82    79    1
   106    42    41    1
   107    42    48   am
   108   111   110    1
   109   111   114    1
   110   199   200   ar
   111    85    84    2
   112   169   170    2
   113    16    18    1
   114    16    13    1
   115   164   165    1
   116    83    84    1
   117    41    40    1
   118    41    44    1
   119    49    48    1
   120    49    52    1
   121    46    44    1
   122   186   185    2
   123    78    79    1
   124   165   166    1
   125    48    54    1
   126    84    86   am
   127     7     8    1
   128   166   167    2
   129   114   115    1
   130    79    80    1
   131    44    45    1
   132   203   202   ar
   133    45    47    1
   134   116   115   ar
   135   116   118   ar
   136   200   202   ar
   137    12    13    1
   138    12     9   am
   139   185   184    1
   140    13    14    1
   141    52    53    1
   142   115   117   ar
   143    14    15    2
   144    80    81    2
   145    11     8    1
   146   118   119   ar
   147   184   183    1
   148   184   187    1
   149     8     9    1
   150    54    53    1
   151     9    10    2
   152   189   191   ar
   153   189   188   ar
   154   191   193   ar
   155   117   119   ar
   156   187   188    1
   157   188   190   ar
   158   109   107   ar
   159   193   192   ar
   160   176   177    1
   161   176   173    1
   162   190   192   ar
   163   177   178    1
   164    92    93    1
   165    92    91    1
   166   107   108   ar
   167   107   106    1
   168   172   173    1
   169   174   173    1
   170   174   175    2
   171    93    94    1
   172    39    38   ar
   173    39    37   ar
   174    38    36   ar
   175   106   105    1
   176   178   179    1
   177    19    20    1
   178    91    88    1
   179   179   180    2
   180    37    35   ar
   181    23    25    1
   182    23    20    1
   183    23    24    1
   184    87    88    1
   185    20    21    1
   186    21    22    2
   187    88    89    1
   188   180   182    1
   189   180   181    1
   190    36    33   ar
   191   105   102    1
   192    35    33   ar
   193    35    34   ar
   194   100    99    1
   195    33    31   ar
   196   102   101    1
   197   102   103    1
   198    89    90    2
   199    34    32   ar
   200    98    97    2
   201    99    96    1
   202    97    96    1
   203    31    32   ar
   204    31    30    1
   205   103   104    2
   206    96    95    1
   207    30    27    1
   208    27    28    1
   209    27    26    1
   210    28    29    2
