@<TRIPOS>MOLECULE
tmp/4s0xA01.pdb
 129 125 0 0 0
SMALL
GASTEIGER

@<TRIPOS>ATOM
      1  N        -18.4900  -31.8210   19.2120 N.3    57  ASP57      -0.1239
      2  CA       -17.0760  -31.4390   19.2560 C.3    57  ASP57       0.1674
      3  C        -16.5470  -31.3680   20.6730 C.2    57  ASP57       0.2266
      4  O        -15.7570  -30.4990   20.9870 O.2    57  ASP57      -0.2867
      5  CB       -16.8410  -30.0680   18.6070 C.3    57  ASP57       0.1410
      6  CG       -17.3380  -30.0110   17.1990 C.2    57  ASP57       0.3668
      7  OD1      -17.0010  -30.9300   16.4370 O.co2  57  ASP57      -0.2456
      8  OD2      -18.0750  -29.0700   16.8570 O.co2  57  ASP57      -0.2456
      9  N        -10.9950  -34.8220   21.1930 N.3    61  GLY61      -0.1210
     10  CA       -11.2920  -35.4790   19.9060 C.3    61  GLY61       0.1956
     11  C        -12.4670  -34.9010   19.1300 C.2    61  GLY61       0.2612
     12  O        -12.8400  -35.4180   18.0860 O.2    61  GLY61      -0.2717
     13  N        -13.0540  -33.8160   19.6110 N.am   62  ASP62      -0.1959
     14  CA       -14.2720  -33.2970   18.9820 C.3    62  ASP62       0.1840
     15  C        -15.2790  -34.4120   18.7550 C.2    62  ASP62       0.2622
     16  O        -15.7010  -34.7120   17.6320 O.2    62  ASP62      -0.2715
     17  CB       -13.9570  -32.5980   17.6740 C.3    62  ASP62       0.1450
     18  CG       -13.0070  -31.4410   17.8650 C.2    62  ASP62       0.3671
     19  OD1      -13.3370  -30.5340   18.6720 O.co2  62  ASP62      -0.2456
     20  OD2      -11.9290  -31.4700   17.2190 O.co2  62  ASP62      -0.2456
     21  N        -15.6350  -35.0060   19.8840 N.am   63  VAL63      -0.1963
     22  CA       -16.5810  -36.0850   19.9950 C.3    63  VAL63       0.1727
     23  C        -18.0170  -35.5350   19.9860 C.2    63  VAL63       0.2616
     24  O        -18.3150  -34.5430   20.6380 O.2    63  VAL63      -0.2715
     25  CB       -16.3000  -36.8140   21.3200 C.3    63  VAL63       0.0290
     26  CG1      -17.5310  -37.5180   21.8500 C.3    63  VAL63       0.0023
     27  CG2      -15.1230  -37.7630   21.1500 C.3    63  VAL63       0.0023
     28  N        -18.9200  -36.2420   19.3190 N.am   64  THR64      -0.1951
     29  CA       -20.2600  -35.7590   19.0250 C.3    64  THR64       0.1897
     30  C        -21.1470  -36.9600   19.0730 C.2    64  THR64       0.2313
     31  O        -20.7120  -38.0550   18.7340 O.2    64  THR64      -0.2863
     32  CB       -20.3370  -35.2250   17.6030 C.3    64  THR64       0.1794
     33  OG1      -19.3410  -34.2140   17.4370 O.3    64  THR64      -0.2208
     34  CG2      -21.6920  -34.6640   17.3220 C.3    64  THR64       0.0378
     35  N        -22.5060  -42.5990   19.6060 N.3    80  PHE80      -0.1227
     36  CA       -21.4410  -41.8000   19.0700 C.3    80  PHE80       0.1736
     37  C        -21.4710  -41.6850   17.5180 C.2    80  PHE80       0.2595
     38  O        -21.4960  -42.7280   16.8050 O.2    80  PHE80      -0.2718
     39  CB       -20.0930  -42.4190   19.4390 C.3    80  PHE80       0.0547
     40  CG       -19.8230  -42.4570   20.9240 C.ar   80  PHE80      -0.0202
     41  CD1      -19.2080  -41.3780   21.5610 C.ar   80  PHE80      -0.0042
     42  CD2      -20.2130  -43.5550   21.6850 C.ar   80  PHE80      -0.0042
     43  CE1      -18.9460  -41.4180   22.9280 C.ar   80  PHE80      -0.0003
     44  CE2      -19.9660  -43.5940   23.0480 C.ar   80  PHE80      -0.0003
     45  CZ       -19.3190  -42.5300   23.6650 C.ar   80  PHE80      -0.0000
     46  N        -21.4200  -40.4280   17.0490 N.am   81  ARG81      -0.1966
     47  CA       -21.2650  -40.1030   15.6210 C.3    81  ARG81       0.1729
     48  C        -19.8630  -40.5480   15.2150 C.2    81  ARG81       0.2617
     49  O        -18.9380  -40.5600   16.0000 O.2    81  ARG81      -0.2715
     50  CB       -21.6260  -38.6430   15.3570 C.3    81  ARG81       0.0348
     51  CG       -21.8790  -38.2870   13.8820 C.3    81  ARG81       0.0492
     52  CD       -20.8400  -37.3030   13.3640 C.3    81  ARG81       0.2205
     53  NE       -21.3700  -35.9710   13.4630 N.pl3  81  ARG81      -0.0865
     54  CZ       -20.6850  -34.8480   13.6810 C.cat  81  ARG81       0.5346
     55  NH1      -19.3700  -34.8240   13.8320 N.pl3  81  ARG81       0.1354
     56  NH2      -21.3740  -33.7290   13.7560 N.pl3  81  ARG81       0.1354
     57  N        -19.7210  -40.9920   13.9860 N.am   82  GLY82      -0.1940
     58  CA       -18.4600  -41.0630   13.3340 C.3    82  GLY82       0.2014
     59  C        -18.1050  -39.7300   12.6890 C.2    82  GLY82       0.2640
     60  O        -18.6670  -38.6910   13.0250 O.2    82  GLY82      -0.2714
     61  N        -17.1260  -39.7750   11.7770 N.am   83  SER83      -0.1935
     62  CA       -16.5450  -38.5420   11.2510 C.3    83  SER83       0.2055
     63  C        -17.4890  -37.9480   10.2230 C.2    83  SER83       0.2643
     64  O        -18.2230  -38.6620    9.5050 O.2    83  SER83      -0.2714
     65  CB       -15.1760  -38.8310   10.6240 C.3    83  SER83       0.2130
     66  OG       -14.7670  -37.7910    9.7620 O.3    83  SER83      -0.2179
     67  N        -17.4410  -36.6380   10.1560 N.am   84  ARG84      -0.1963
     68  CA       -18.2500  -35.8420    9.2570 C.3    84  ARG84       0.1729
     69  C        -17.8010  -35.9910    7.7930 C.2    84  ARG84       0.2616
     70  O        -18.5980  -35.7510    6.8880 O.2    84  ARG84      -0.2715
     71  CB       -18.1380  -34.3940    9.7010 C.3    84  ARG84       0.0348
     72  CG       -19.2970  -33.5340    9.2860 C.3    84  ARG84       0.0492
     73  CD       -19.3950  -32.2960   10.1630 C.3    84  ARG84       0.2205
     74  NE       -20.7490  -31.7620   10.0730 N.pl3  84  ARG84      -0.0865
     75  CZ       -21.3350  -30.9940   10.9900 C.cat  84  ARG84       0.5346
     76  NH1      -20.6830  -30.6400   12.0960 N.pl3  84  ARG84       0.1354
     77  NH2      -22.5920  -30.5800   10.7990 N.pl3  84  ARG84       0.1354
     78  N        -16.5450  -36.4070    7.5620 N.am   85  SER85      -0.1950
     79  CA       -16.0820  -36.7380    6.2310 C.3    85  SER85       0.1924
     80  C        -15.1600  -37.9360    6.3480 C.2    85  SER85       0.2314
     81  O        -14.0020  -37.8710    6.7410 O.2    85  SER85      -0.2863
     82  CB       -15.4030  -35.5650    5.5640 C.3    85  SER85       0.2116
     83  OG       -14.6460  -34.8680    6.5040 O.3    85  SER85      -0.2180
     84  N        -11.8800  -38.5220    4.2350 N.3    88  ASN88      -0.1225
     85  CA       -10.7740  -37.8320    4.8070 C.3    88  ASN88       0.1785
     86  C        -10.2300  -38.5150    6.0640 C.2    88  ASN88       0.2597
     87  O         -9.0850  -38.9090    6.1070 O.2    88  ASN88      -0.2718
     88  CB       -11.1570  -36.3920    5.0830 C.3    88  ASN88       0.1169
     89  CG       -11.2680  -35.5570    3.8150 C.2    88  ASN88       0.2627
     90  OD1      -10.8770  -35.9790    2.7330 O.2    88  ASN88      -0.2716
     91  ND2      -11.8220  -34.3640    3.9530 N.am   88  ASN88      -0.0877
     92  N        -11.1240  -38.8260    6.9810 N.am   89  TRP89      -0.1976
     93  CA       -10.7790  -39.3820    8.2540 C.3    89  TRP89       0.1640
     94  C         -9.9970  -40.6330    7.9720 C.2    89  TRP89       0.2290
     95  O         -9.0260  -40.9040    8.6170 O.2    89  TRP89      -0.2864
     96  CB       -12.0660  -39.7130    9.0250 C.3    89  TRP89       0.0576
     97  CG       -11.8580  -40.5150   10.2360 C.ar   89  TRP89       0.0006
     98  CD1      -11.3640  -40.0880   11.3920 C.ar   89  TRP89       0.0946
     99  CD2      -12.1070  -41.8970   10.3980 C.ar   89  TRP89       0.0152
    100  NE1      -11.2720  -41.0960   12.2760 N.ar   89  TRP89      -0.2442
    101  CE2      -11.7290  -42.2300   11.6870 C.ar   89  TRP89       0.0810
    102  CE3      -12.6150  -42.8880    9.5730 C.ar   89  TRP89       0.0012
    103  CZ2      -11.8360  -43.4980   12.1770 C.ar   89  TRP89       0.0191
    104  CZ3      -12.7130  -44.1340   10.0560 C.ar   89  TRP89       0.0001
    105  CH2      -12.3300  -44.4380   11.3490 C.ar   89  TRP89       0.0015
    106  N         -6.4610  -39.4790    6.8610 N.3    92  ASN92      -0.1240
    107  CA        -5.6640  -38.9090    7.9480 C.3    92  ASN92       0.1653
    108  C         -5.4290  -39.8510    9.1250 C.2    92  ASN92       0.2266
    109  O         -5.0160  -39.4040   10.2010 O.2    92  ASN92      -0.2867
    110  CB        -6.3500  -37.6560    8.5000 C.3    92  ASN92       0.1155
    111  CG        -6.5870  -36.6250    7.4370 C.2    92  ASN92       0.2627
    112  OD1       -7.7100  -36.1570    7.2420 O.2    92  ASN92      -0.2716
    113  ND2       -5.5350  -36.2730    6.7280 N.am   92  ASN92      -0.0877
    114  N        -15.9600  -44.2670   13.3520 N.3   147  LEU147     -0.1245
    115  CA       -15.2060  -43.7700   14.4690 C.3   147  LEU147      0.1561
    116  C        -16.0710  -43.9170   15.7130 C.2   147  LEU147      0.2260
    117  O        -15.5930  -44.2110   16.7770 O.2   147  LEU147     -0.2867
    118  CB       -14.8510  -42.3100   14.2480 C.3   147  LEU147      0.0270
    119  CG       -14.3330  -41.5020   15.4140 C.3   147  LEU147      0.0019
    120  CD1      -13.0700  -42.1060   15.9770 C.3   147  LEU147      0.0001
    121  CD2      -14.0940  -40.0750   14.9990 C.3   147  LEU147      0.0001
    122  N        -15.2740  -45.5470   19.4180 N.3   151  LEU151     -0.1245
    123  CA       -15.4600  -44.8750   20.6720 C.3   151  LEU151      0.1561
    124  C        -16.3880  -45.5910   21.6210 C.2   151  LEU151      0.2260
    125  O        -16.1620  -45.6620   22.8420 O.2   151  LEU151     -0.2867
    126  CB       -16.0790  -43.5030   20.4170 C.3   151  LEU151      0.0270
    127  CG       -15.1650  -42.5140   19.6710 C.3   151  LEU151      0.0019
    128  CD1      -15.8580  -41.1730   19.4970 C.3   151  LEU151      0.0001
    129  CD2      -13.8860  -42.2770   20.4830 C.3   151  LEU151      0.0001
@<TRIPOS>BOND
     1    90    89    2
     2    89    91   am
     3    89    88    1
     4    84    85    1
     5    85    88    1
     6    85    86    1
     7    82    79    1
     8    82    83    1
     9    86    87    2
    10    86    92   am
    11    79    80    1
    12    79    78    1
    13    80    81    2
    14   113   111   am
    15   106   107    1
    16    70    69    2
    17    92    93    1
    18   112   111    2
    19   111   110    1
    20    78    69   am
    21    69    68    1
    22   107   110    1
    23   107   108    1
    24    94    93    1
    25    94    95    2
    26    93    96    1
    27    96    97    1
    28   108   109    2
    29    68    71    1
    30    68    67    1
    31    72    71    1
    32    72    73    1
    33    64    63    2
    34   102   104   ar
    35   102    99   ar
    36    66    65    1
    37   104   105   ar
    38    74    73    1
    39    74    75    2
    40    67    63   am
    41    63    62    1
    42    97    99   ar
    43    97    98   ar
    44    99   101   ar
    45    65    62    1
    46    77    75    1
    47    75    76    1
    48    62    61    1
    49   105   103   ar
    50    98   100   ar
    51   101   103   ar
    52   101   100   ar
    53    61    59   am
    54    59    60    2
    55    59    58    1
    56    58    57    1
    57   114   115    1
    58    52    53    1
    59    52    51    1
    60    53    54    2
    61    54    56    1
    62    54    55    1
    63    51    50    1
    64    57    48   am
    65   118   115    1
    66   118   119    1
    67   115   116    1
    68   121   119    1
    69    48    47    1
    70    48    49    2
    71    50    47    1
    72   119   120    1
    73    47    46    1
    74   116   117    2
    75     7     6   ar
    76    38    37    2
    77     8     6   ar
    78    46    37   am
    79     6     5    1
    80    20    18   ar
    81    34    32    1
    82    33    32    1
    83    37    36    1
    84    32    29    1
    85    16    15    2
    86    17    18    1
    87    17    14    1
    88    18    19   ar
    89    12    11    2
    90     5     2    1
    91    31    30    2
    92    15    14    1
    93    15    21   am
    94    14    13    1
    95    29    30    1
    96    29    28    1
    97    36    39    1
    98    36    35    1
    99    11    13   am
   100    11    10    1
   101     1     2    1
   102     2     3    1
   103    28    23   am
   104   122   123    1
   105    39    40    1
   106   128   127    1
   107   127   126    1
   108   127   129    1
   109    21    22    1
   110    10     9    1
   111    23    22    1
   112    23    24    2
   113    22    25    1
   114   126   123    1
   115   123   124    1
   116     3     4    2
   117    40    41   ar
   118    40    42   ar
   119    27    25    1
   120    25    26    1
   121    41    43   ar
   122   124   125    2
   123    42    44   ar
   124    43    45   ar
   125    44    45   ar
