@<TRIPOS>MOLECULE
tmp/4s13A00.pdb
 108 101 0 0 0
SMALL
GASTEIGER

@<TRIPOS>ATOM
      1  N        211.8620 -116.0630  117.1300 N.3   169  ALA169     -0.1231
      2  CA       212.6040 -115.6040  115.9620 C.3   169  ALA169      0.1694
      3  C        213.1500 -116.8380  115.2810 C.2   169  ALA169      0.2591
      4  O        213.6760 -117.7160  115.9580 O.2   169  ALA169     -0.2718
      5  CB       213.7300 -114.6670  116.3470 C.3   169  ALA169      0.0304
      6  N        213.0430 -116.9080  113.9590 N.am  170  ARG170     -0.1980
      7  CA       213.2340 -118.1770  113.2660 C.3   170  ARG170      0.1597
      8  C        214.6740 -118.6560  113.3710 C.2   170  ARG170      0.2287
      9  O        215.6060 -117.8660  113.4040 O.2   170  ARG170     -0.2864
     10  CB       212.8030 -118.0650  111.8000 C.3   170  ARG170      0.0334
     11  CG       213.7420 -117.2500  110.9240 C.3   170  ARG170      0.0492
     12  CD       213.2480 -117.2600  109.4900 C.3   170  ARG170      0.2205
     13  NE       214.2170 -116.7330  108.5350 N.pl3 170  ARG170     -0.0865
     14  CZ       213.9110 -115.8480  107.5930 C.cat 170  ARG170      0.5346
     15  NH1      212.6730 -115.3910  107.5060 N.pl3 170  ARG170      0.1354
     16  NH2      214.8370 -115.4130  106.7480 N.pl3 170  ARG170      0.1354
     17  N        217.5400 -115.4010  112.4460 N.3   182  LEU182     -0.1245
     18  CA       217.2360 -114.1410  111.7900 C.3   182  LEU182      0.1561
     19  C        217.2170 -112.9860  112.7940 C.2   182  LEU182      0.2260
     20  O        216.7560 -113.1410  113.9210 O.2   182  LEU182     -0.2867
     21  CB       215.8860 -114.2420  111.0650 C.3   182  LEU182      0.0270
     22  CG       215.3980 -113.0240  110.2670 C.3   182  LEU182      0.0019
     23  CD1      216.3130 -112.7280  109.0920 C.3   182  LEU182      0.0001
     24  CD2      213.9570 -113.2000  109.8120 C.3   182  LEU182      0.0001
     25  N        205.6200 -113.5570  121.1520 N.3   203  SER203     -0.1202
     26  CA       205.4110 -113.4660  119.7030 C.3   203  SER203      0.2020
     27  C        205.6550 -112.0590  119.1720 C.2   203  SER203      0.2618
     28  O        206.2470 -111.8930  118.1070 O.2   203  SER203     -0.2717
     29  CB       204.0110 -113.9400  119.3250 C.3   203  SER203      0.2103
     30  OG       204.0150 -115.3470  119.2230 O.3   203  SER203     -0.2182
     31  N        205.1900 -111.0560  119.9070 N.am  204  MET204     -0.1979
     32  CA       205.6300 -109.6820  119.6860 C.3   204  MET204      0.1605
     33  C        205.9070 -109.0290  121.0300 C.2   204  MET204      0.2287
     34  O        205.0640 -109.0940  121.9300 O.2   204  MET204     -0.2864
     35  CB       204.5830 -108.8700  118.9130 C.3   204  MET204      0.0413
     36  CG       204.2860 -109.3910  117.5060 C.3   204  MET204      0.0598
     37  SD       205.5910 -109.0670  116.3020 S.3   204  MET204     -0.1393
     38  CE       205.3250 -107.3200  115.9750 C.3   204  MET204      0.0692
     39  N        207.7380 -117.3510  104.2880 N.3   254  GLU254     -0.1231
     40  CA       207.3400 -116.4230  105.3390 C.3   254  GLU254      0.1699
     41  C        205.8820 -116.0230  105.3380 C.2   254  GLU254      0.2592
     42  O        205.0840 -116.5030  104.5340 O.2   254  GLU254     -0.2718
     43  CB       208.1860 -115.1590  105.2800 C.3   254  GLU254      0.0402
     44  CG       209.4230 -115.1930  106.1550 C.3   254  GLU254      0.1161
     45  CD       209.1300 -115.3660  107.6520 C.2   254  GLU254      0.3649
     46  OE1      207.9590 -115.2480  108.1060 O.co2 254  GLU254     -0.2457
     47  OE2      210.1090 -115.5990  108.3950 O.co2 254  GLU254     -0.2457
     48  N        205.5610 -115.1110  106.2530 N.am  255  MET255     -0.1979
     49  CA       204.1880 -114.7390  106.5730 C.3   255  MET255      0.1605
     50  C        203.4030 -114.1110  105.4190 C.2   255  MET255      0.2287
     51  O        202.1900 -113.9770  105.4900 O.2   255  MET255     -0.2864
     52  CB       204.2020 -113.7730  107.7510 C.3   255  MET255      0.0413
     53  CG       204.8990 -112.4650  107.4270 C.3   255  MET255      0.0598
     54  SD       205.1750 -111.4200  108.8530 S.3   255  MET255     -0.1393
     55  CE       203.4920 -111.2300  109.4470 C.3   255  MET255      0.0692
     56  N        201.5490 -116.7570  112.1160 N.3   295  THR295     -0.1218
     57  CA       202.0900 -115.4340  111.8380 C.3   295  THR295      0.1862
     58  C        201.0080 -114.4140  111.4620 C.2   295  THR295      0.2287
     59  O        201.3060 -113.2330  111.3000 O.2   295  THR295     -0.2866
     60  CB       203.1430 -115.4770  110.7070 C.3   295  THR295      0.1770
     61  OG1      202.5140 -115.8590  109.4850 O.3   295  THR295     -0.2211
     62  CG2      204.2860 -116.4540  111.0330 C.3   295  THR295      0.0375
     63  N        200.6530 -112.9850  115.6820 N.3   299  ILE299     -0.1245
     64  CA       201.2520 -111.6880  115.3920 C.3   299  ILE299      0.1561
     65  C        200.2110 -110.6030  115.1280 C.2   299  ILE299      0.2260
     66  O        200.2870 -109.5160  115.7020 O.2   299  ILE299     -0.2867
     67  CB       202.1870 -111.7640  114.1920 C.3   299  ILE299      0.0252
     68  CG1      203.4270 -112.5700  114.5570 C.3   299  ILE299      0.0019
     69  CG2      202.6100 -110.3890  113.7810 C.3   299  ILE299      0.0019
     70  CD1      204.3860 -112.7120  113.4200 C.3   299  ILE299      0.0001
     71  N        205.0660 -101.1870  113.0740 N.3   366  PHE366     -0.1227
     72  CA       206.2070 -101.7310  112.3560 C.3   366  PHE366      0.1736
     73  C        205.8160 -102.6160  111.1600 C.2   366  PHE366      0.2595
     74  O        206.2050 -102.3280  110.0400 O.2   366  PHE366     -0.2718
     75  CB       207.1020 -102.5130  113.3270 C.3   366  PHE366      0.0547
     76  CG       208.3370 -103.1010  112.6920 C.ar  366  PHE366     -0.0202
     77  CD1      209.1440 -102.3380  111.8700 C.ar  366  PHE366     -0.0042
     78  CD2      208.6990 -104.4140  112.9380 C.ar  366  PHE366     -0.0042
     79  CE1      210.2810 -102.8770  111.2920 C.ar  366  PHE366     -0.0003
     80  CE2      209.8420 -104.9620  112.3630 C.ar  366  PHE366     -0.0003
     81  CZ       210.6340 -104.1920  111.5400 C.ar  366  PHE366     -0.0000
     82  N        205.0320 -103.6640  111.3860 N.am  367  ILE367     -0.1980
     83  CA       204.7830 -104.6460  110.3360 C.3   367  ILE367      0.1595
     84  C        203.6570 -104.2070  109.3940 C.2   367  ILE367      0.2287
     85  O        203.4630 -104.7880  108.3320 O.2   367  ILE367     -0.2864
     86  CB       204.4100 -106.0300  110.9200 C.3   367  ILE367      0.0276
     87  CG1      203.0120 -105.9970  111.5330 C.3   367  ILE367      0.0022
     88  CG2      205.4220 -106.4890  111.9610 C.3   367  ILE367      0.0022
     89  CD1      202.4240 -107.3570  111.7440 C.3   367  ILE367      0.0001
     90  N        208.6780 -102.3580  106.7870 N.3   409  PHE409     -0.1241
     91  CA       208.7870 -103.7510  107.2120 C.3   409  PHE409      0.1605
     92  C        209.5940 -104.5040  106.1540 C.2   409  PHE409      0.2264
     93  O        209.1440 -104.6570  105.0230 O.2   409  PHE409     -0.2867
     94  CB       207.4070 -104.3740  107.4060 C.3   409  PHE409      0.0534
     95  CG       207.4400 -105.7330  108.0360 C.ar  409  PHE409     -0.0203
     96  CD1      208.4410 -106.0760  108.9210 C.ar  409  PHE409     -0.0042
     97  CD2      206.4790 -106.6720  107.7320 C.ar  409  PHE409     -0.0042
     98  CE1      208.4820 -107.3180  109.4900 C.ar  409  PHE409     -0.0003
     99  CE2      206.5090 -107.9250  108.3080 C.ar  409  PHE409     -0.0003
    100  CZ       207.5110 -108.2510  109.1860 C.ar  409  PHE409     -0.0000
    101  N        210.2990 -107.5380  105.5250 N.3   411  LEU411     -0.1245
    102  CA       209.7930 -108.7870  104.9640 C.3   411  LEU411      0.1561
    103  C        208.7720 -108.5710  103.8630 C.2   411  LEU411      0.2260
    104  O        208.5220 -109.4780  103.0760 O.2   411  LEU411     -0.2867
    105  CB       209.1580 -109.6570  106.0400 C.3   411  LEU411      0.0270
    106  CG       210.0250 -110.2200  107.1570 C.3   411  LEU411      0.0019
    107  CD1      209.2720 -111.3780  107.7900 C.3   411  LEU411      0.0001
    108  CD2      211.3760 -110.6640  106.6280 C.3   411  LEU411      0.0001
@<TRIPOS>BOND
     1   104   103    2
     2   103   102    1
     3    39    40    1
     4    42    41    2
     5   102   101    1
     6   102   105    1
     7    93    92    2
     8    43    40    1
     9    43    44    1
    10    41    40    1
    11    41    48   am
    12    50    51    2
    13    50    49    1
    14   105   106    1
    15    92    91    1
    16    44    45    1
    17    48    49    1
    18    49    52    1
    19   108   106    1
    20    16    14    1
    21    90    91    1
    22   106   107    1
    23    91    94    1
    24    94    95    1
    25    53    52    1
    26    53    54    1
    27    15    14    1
    28    14    13    2
    29    45    46   ar
    30    45    47   ar
    31    97    95   ar
    32    97    99   ar
    33    95    96   ar
    34    99   100   ar
    35    85    84    2
    36    13    12    1
    37    54    55    1
    38    96    98   ar
    39    23    22    1
    40   100    98   ar
    41    84    83    1
    42    61    60    1
    43    12    11    1
    44    24    22    1
    45    74    73    2
    46    22    21    1
    47    83    86    1
    48    83    82    1
    49    60    62    1
    50    60    57    1
    51    86    87    1
    52    86    88    1
    53    11    10    1
    54    21    18    1
    55    73    82   am
    56    73    72    1
    57    79    81   ar
    58    79    77   ar
    59    59    58    2
    60    58    57    1
    61    87    89    1
    62    81    80   ar
    63    18    17    1
    64    18    19    1
    65    10     7    1
    66    57    56    1
    67    77    76   ar
    68    72    71    1
    69    72    75    1
    70    80    78   ar
    71    76    78   ar
    72    76    75    1
    73    19    20    2
    74     7     8    1
    75     7     6    1
    76     8     9    2
    77    70    68    1
    78    69    67    1
    79     6     3   am
    80    67    68    1
    81    67    64    1
    82    65    64    1
    83    65    66    2
    84     3     4    2
    85     3     2    1
    86    64    63    1
    87     2     5    1
    88     2     1    1
    89    38    37    1
    90    37    36    1
    91    36    35    1
    92    28    27    2
    93    35    32    1
    94    27    26    1
    95    27    31   am
    96    30    29    1
    97    29    26    1
    98    32    31    1
    99    32    33    1
   100    26    25    1
   101    33    34    2
