@<TRIPOS>MOLECULE
tmp/4s13E00.pdb
 125 116 0 0 0
SMALL
GASTEIGER

@<TRIPOS>ATOM
      1  N        166.5750  -40.9820   84.1690 N.3   173  ARG173     -0.1245
      2  CA       165.5300  -41.3330   85.1180 C.3   173  ARG173      0.1563
      3  C        164.2260  -40.5970   84.8150 C.2   173  ARG173      0.2260
      4  O        164.2300  -39.4740   84.3360 O.2   173  ARG173     -0.2867
      5  CB       165.9970  -41.0570   86.5570 C.3   173  ARG173      0.0307
      6  CG       166.1270  -39.5870   86.9240 C.3   173  ARG173      0.0489
      7  CD       166.8250  -39.3990   88.2780 C.3   173  ARG173      0.2205
      8  NE       166.4230  -38.1350   88.9010 N.pl3 173  ARG173     -0.0865
      9  CZ       167.1930  -37.4170   89.7090 C.cat 173  ARG173      0.5346
     10  NH1      168.4200  -37.8280   89.9910 N.pl3 173  ARG173      0.1354
     11  NH2      166.7450  -36.2780   90.2270 N.pl3 173  ARG173      0.1354
     12  N        164.9850  -35.8360   84.4640 N.3   185  LEU185     -0.1245
     13  CA       166.2040  -35.0570   84.5640 C.3   185  LEU185      0.1561
     14  C        167.2690  -35.6190   83.6400 C.2   185  LEU185      0.2260
     15  O        167.5050  -36.8260   83.6300 O.2   185  LEU185     -0.2867
     16  CB       166.6930  -35.0440   86.0100 C.3   185  LEU185      0.0270
     17  CG       168.1640  -34.8010   86.3230 C.3   185  LEU185      0.0019
     18  CD1      168.2660  -34.0570   87.6240 C.3   185  LEU185      0.0001
     19  CD2      168.8760  -36.1230   86.4490 C.3   185  LEU185      0.0001
     20  N        171.3640  -35.2220   82.7140 N.3   187  ILE187     -0.1245
     21  CA       172.6850  -34.6750   82.9960 C.3   187  ILE187      0.1561
     22  C        173.7030  -35.2590   82.0310 C.2   187  ILE187      0.2260
     23  O        174.1620  -36.3890   82.1930 O.2   187  ILE187     -0.2867
     24  CB       173.1400  -34.9590   84.4360 C.3   187  ILE187      0.0252
     25  CG1      171.9650  -34.8510   85.3940 C.3   187  ILE187      0.0019
     26  CG2      174.2330  -33.9870   84.8480 C.3   187  ILE187      0.0019
     27  CD1      172.3020  -35.2730   86.7680 C.3   187  ILE187      0.0001
     28  N        177.3370  -34.4750   79.4900 N.3   189  PRO189     -0.2116
     29  CA       178.4970  -33.5870   79.3710 C.3   189  PRO189      0.1372
     30  C        178.2080  -32.4290   78.4220 C.2   189  PRO189      0.2244
     31  O        177.3160  -32.5300   77.5780 O.2   189  PRO189     -0.2868
     32  CB       179.5930  -34.4940   78.7990 C.3   189  PRO189      0.0268
     33  CG       179.1140  -35.8850   79.0070 C.3   189  PRO189      0.0207
     34  CD       177.6220  -35.8330   78.9990 C.3   189  PRO189      0.0892
     35  N        173.4520  -46.8170   77.8150 N.3   225  SER225     -0.1202
     36  CA       173.9300  -46.1730   79.0400 C.3   225  SER225      0.2020
     37  C        175.1420  -45.3050   78.6940 C.2   225  SER225      0.2618
     38  O        175.4890  -44.3820   79.4260 O.2   225  SER225     -0.2717
     39  CB       174.3020  -47.2090   80.1140 C.3   225  SER225      0.2103
     40  OG       173.2590  -48.1330   80.3690 O.3   225  SER225     -0.2182
     41  N        175.7810  -45.6250   77.5680 N.am  226  MET226     -0.1979
     42  CA       176.8940  -44.8440   77.0190 C.3   226  MET226      0.1605
     43  C        176.4220  -43.4810   76.5230 C.2   226  MET226      0.2287
     44  O        176.0090  -42.6310   77.3050 O.2   226  MET226     -0.2864
     45  CB       177.5660  -45.5900   75.8580 C.3   226  MET226      0.0413
     46  CG       178.3290  -46.8710   76.2150 C.3   226  MET226      0.0598
     47  SD       178.6520  -47.8620   74.7250 S.3   226  MET226     -0.1393
     48  CE       180.1500  -48.7650   75.1340 C.3   226  MET226      0.0692
     49  N        170.5100  -41.3920   94.4080 N.3   277  GLU277     -0.1231
     50  CA       171.3630  -41.4700   93.2440 C.3   277  GLU277      0.1699
     51  C        172.6070  -42.3210   93.4330 C.2   277  GLU277      0.2592
     52  O        172.7720  -42.9950   94.4630 O.2   277  GLU277     -0.2718
     53  CB       171.7680  -40.0780   92.8150 C.3   277  GLU277      0.0402
     54  CG       170.8810  -39.5480   91.7170 C.3   277  GLU277      0.1161
     55  CD       170.9560  -40.3810   90.4370 C.2   277  GLU277      0.3649
     56  OE1      171.9210  -41.1640   90.2490 O.co2 277  GLU277     -0.2457
     57  OE2      170.0420  -40.2340   89.6070 O.co2 277  GLU277     -0.2457
     58  N        173.4820  -42.2710   92.4290 N.am  278  MET278     -0.1979
     59  CA       174.5770  -43.2210   92.3120 C.3   278  MET278      0.1605
     60  C        175.6090  -43.0970   93.4410 C.2   278  MET278      0.2287
     61  O        176.3920  -44.0030   93.6630 O.2   278  MET278     -0.2864
     62  CB       175.2540  -43.0670   90.9470 C.3   278  MET278      0.0413
     63  CG       175.7640  -41.6770   90.6910 C.3   278  MET278      0.0598
     64  SD       176.3710  -41.4240   89.0110 S.3   278  MET278     -0.1393
     65  CE       177.6970  -42.6140   88.9610 C.3   278  MET278      0.0692
     66  N        174.3800  -48.3240   88.3200 N.3   315  THR315     -0.1218
     67  CA       175.0880  -47.0750   88.0790 C.3   315  THR315      0.1862
     68  C        176.5730  -47.2160   88.3460 C.2   315  THR315      0.2287
     69  O        177.3350  -46.2980   88.0650 O.2   315  THR315     -0.2866
     70  CB       174.5430  -45.9320   88.9300 C.3   315  THR315      0.1770
     71  OG1      174.6740  -46.2580   90.3230 O.3   315  THR315     -0.2211
     72  CG2      173.0780  -45.6840   88.5900 C.3   315  THR315      0.0375
     73  N        177.4470  -48.1680   84.1510 N.3   319  ILE319     -0.1245
     74  CA       177.9970  -46.8530   83.9000 C.3   319  ILE319      0.1561
     75  C        179.5010  -46.8160   84.1090 C.2   319  ILE319      0.2260
     76  O        180.2350  -46.3040   83.2740 O.2   319  ILE319     -0.2867
     77  CB       177.3320  -45.8180   84.8030 C.3   319  ILE319      0.0252
     78  CG1      175.8500  -45.7200   84.4580 C.3   319  ILE319      0.0019
     79  CG2      178.0110  -44.4750   84.6650 C.3   319  ILE319      0.0019
     80  CD1      175.1360  -44.7020   85.2610 C.3   319  ILE319      0.0001
     81  N        182.2910  -46.1610   80.9760 N.3   323  VAL323     -0.1245
     82  CA       183.2530  -45.0720   81.0670 C.3   323  VAL323      0.1561
     83  C        184.6740  -45.6370   80.9870 C.2   323  VAL323      0.2260
     84  O        185.5110  -45.1270   80.2460 O.2   323  VAL323     -0.2867
     85  CB       183.0900  -44.2450   82.3710 C.3   323  VAL323      0.0252
     86  CG1      184.2330  -43.2670   82.4990 C.3   323  VAL323      0.0019
     87  CG2      181.7750  -43.4940   82.3800 C.3   323  VAL323      0.0019
     88  N        183.5560  -36.9820   82.2740 N.3   386  PHE386     -0.1227
     89  CA       182.4750  -36.1830   82.8480 C.3   386  PHE386      0.1736
     90  C        182.1050  -36.5800   84.2820 C.2   386  PHE386      0.2595
     91  O        182.1350  -35.7410   85.1720 O.2   386  PHE386     -0.2718
     92  CB       181.2410  -36.2480   81.9550 C.3   386  PHE386      0.0547
     93  CG       180.1220  -35.3750   82.4190 C.ar  386  PHE386     -0.0202
     94  CD1      180.3550  -34.0570   82.7470 C.ar  386  PHE386     -0.0042
     95  CD2      178.8380  -35.8630   82.5200 C.ar  386  PHE386     -0.0042
     96  CE1      179.3280  -33.2470   83.1770 C.ar  386  PHE386     -0.0003
     97  CE2      177.8080  -35.0520   82.9550 C.ar  386  PHE386     -0.0003
     98  CZ       178.0550  -33.7500   83.2850 C.ar  386  PHE386     -0.0000
     99  N        181.7700  -37.8480   84.5190 N.am  387  ILE387     -0.1980
    100  CA       181.4100  -38.2880   85.8790 C.3   387  ILE387      0.1595
    101  C        182.6200  -38.5130   86.7840 C.2   387  ILE387      0.2287
    102  O        182.4800  -38.6620   87.9920 O.2   387  ILE387     -0.2864
    103  CB       180.5870  -39.5950   85.8640 C.3   387  ILE387      0.0276
    104  CG1      181.4940  -40.8090   85.6940 C.3   387  ILE387      0.0022
    105  CG2      179.5510  -39.5600   84.7720 C.3   387  ILE387      0.0022
    106  CD1      180.7710  -42.1070   85.9130 C.3   387  ILE387      0.0001
    107  N        180.9870  -32.6920   87.8580 N.3   429  PHE429     -0.1241
    108  CA       179.8190  -33.5580   87.8410 C.3   429  PHE429      0.1605
    109  C        178.8310  -33.0390   88.8830 C.2   429  PHE429      0.2264
    110  O        179.1130  -33.0660   90.0670 O.2   429  PHE429     -0.2867
    111  CB       180.2220  -35.0020   88.1260 C.3   429  PHE429      0.0534
    112  CG       179.1360  -36.0120   87.8570 C.ar  429  PHE429     -0.0203
    113  CD1      178.3430  -35.9180   86.7290 C.ar  429  PHE429     -0.0042
    114  CD2      178.9340  -37.0760   88.7240 C.ar  429  PHE429     -0.0042
    115  CE1      177.3550  -36.8520   86.4770 C.ar  429  PHE429     -0.0003
    116  CE2      177.9560  -38.0110   88.4810 C.ar  429  PHE429     -0.0003
    117  CZ       177.1620  -37.9060   87.3510 C.ar  429  PHE429     -0.0000
    118  N        176.1910  -34.1590   90.1590 N.3   431  LEU431     -0.1245
    119  CA       175.6230  -35.1020   91.0980 C.3   431  LEU431      0.1561
    120  C        176.5570  -35.4330   92.2440 C.2   431  LEU431      0.2260
    121  O        176.0990  -35.8950   93.2760 O.2   431  LEU431     -0.2867
    122  CB       175.2190  -36.3860   90.3900 C.3   431  LEU431      0.0270
    123  CG       173.8890  -36.3690   89.6370 C.3   431  LEU431      0.0019
    124  CD1      173.3660  -37.7960   89.4250 C.3   431  LEU431      0.0001
    125  CD2      172.8430  -35.4960   90.3240 C.3   431  LEU431      0.0001
@<TRIPOS>BOND
     1    47    48    1
     2    47    46    1
     3    45    46    1
     4    45    42    1
     5    43    42    1
     6    43    44    2
     7    42    41    1
     8    41    37   am
     9    31    30    2
    10    35    36    1
    11    30    29    1
    12    37    36    1
    13    37    38    2
    14    32    33    1
    15    32    29    1
    16    34    33    1
    17    34    28    1
    18    36    39    1
    19    29    28    1
    20    39    40    1
    21    84    83    2
    22    81    82    1
    23    83    82    1
    24    82    85    1
    25    92    93    1
    26    92    89    1
    27    22    23    2
    28    22    21    1
    29    88    89    1
    30    85    87    1
    31    85    86    1
    32    93    95   ar
    33    93    94   ar
    34    95    97   ar
    35    20    21    1
    36    94    96   ar
    37    89    90    1
    38    97    98   ar
    39    21    24    1
    40    96    98   ar
    41    76    75    2
    42    15    14    2
    43    14    13    1
    44    74    75    1
    45    74    73    1
    46    74    77    1
    47     1     2    1
    48    90    99   am
    49    90    91    2
    50     4     3    2
    51    24    26    1
    52    24    25    1
    53    78    77    1
    54    78    80    1
    55    12    13    1
    56    99   100    1
    57    13    16    1
    58    79    77    1
    59   105   103    1
    60     3     2    1
    61     2     5    1
    62    25    27    1
    63   104   103    1
    64   104   106    1
    65   103   100    1
    66   100   101    1
    67    16    17    1
    68    17    19    1
    69    17    18    1
    70   115   113   ar
    71   115   117   ar
    72     5     6    1
    73   113   112   ar
    74   101   102    2
    75     6     7    1
    76   117   116   ar
    77   108   107    1
    78   108   111    1
    79   108   109    1
    80   112   111    1
    81   112   114   ar
    82    69    68    2
    83    67    66    1
    84    67    68    1
    85    67    70    1
    86     7     8    1
    87   116   114   ar
    88    72    70    1
    89   109   110    2
    90     8     9    2
    91    70    71    1
    92    65    64    1
    93    64    63    1
    94   124   123    1
    95    57    55   ar
    96   123   125    1
    97   123   122    1
    98     9    10    1
    99     9    11    1
   100   118   119    1
   101    56    55   ar
   102   122   119    1
   103    55    54    1
   104    63    62    1
   105    62    59    1
   106   119   120    1
   107    54    53    1
   108   120   121    2
   109    59    58    1
   110    59    60    1
   111    58    51   am
   112    53    50    1
   113    50    51    1
   114    50    49    1
   115    51    52    2
   116    60    61    2
