@<TRIPOS>MOLECULE
tmp/4s15A00.pdb
 128 121 0 0 0
SMALL
GASTEIGER

@<TRIPOS>ATOM
      1  N          9.6040   27.5650   14.1250 N.3    64  GLN64      -0.1245
      2  CA        10.6520   26.5690   14.2740 C.3    64  GLN64       0.1566
      3  C         11.0010   25.9260   12.9200 C.2    64  GLN64       0.2260
      4  O         12.1590   25.6070   12.6680 O.2    64  GLN64      -0.2867
      5  CB        10.2540   25.5020   15.3040 C.3    64  GLN64       0.0367
      6  CG        10.1720   26.0740   16.7130 C.3    64  GLN64       0.0905
      7  CD        10.7150   25.1340   17.7710 C.2    64  GLN64       0.2608
      8  OE1       10.0340   24.8360   18.7490 O.2    64  GLN64      -0.2717
      9  NE2       11.9550   24.6760   17.5890 N.am   64  GLN64      -0.0878
     10  N         13.1610   28.4820   11.0230 N.3    67  VAL67      -0.1231
     11  CA        14.5450   28.4790   11.4900 C.3    67  VAL67       0.1692
     12  C         15.3220   27.3520   10.7830 C.2    67  VAL67       0.2591
     13  O         16.4510   27.5450   10.3380 O.2    67  VAL67      -0.2718
     14  CB        14.6450   28.3140   13.0290 C.3    67  VAL67       0.0266
     15  CG1       16.0790   28.0790   13.4310 C.3    67  VAL67       0.0020
     16  CG2       14.0920   29.5450   13.7460 C.3    67  VAL67       0.0020
     17  N         14.7000   26.1840   10.6510 N.am   68  GLU68      -0.1979
     18  CA        15.3570   25.0570    9.9910 C.3    68  GLU68       0.1602
     19  C         15.5110   25.2780    8.4830 C.2    68  GLU68       0.2287
     20  O         16.4880   24.8240    7.8780 O.2    68  GLU68      -0.2864
     21  CB        14.5890   23.7610   10.2590 C.3    68  GLU68       0.0415
     22  CG        14.9250   23.1520   11.5990 C.3    68  GLU68       0.1163
     23  CD        16.3820   22.7260   11.6790 C.2    68  GLU68       0.3649
     24  OE1       16.9080   22.1920   10.6760 O.co2  68  GLU68      -0.2457
     25  OE2       17.0000   22.9400   12.7370 O.co2  68  GLU68      -0.2457
     26  N         18.5850   27.4650    8.1840 N.3    71  LYS71      -0.1245
     27  CA        19.7980   26.6910    8.4540 C.3    71  LYS71       0.1561
     28  C         20.2610   25.8410    7.2700 C.2    71  LYS71       0.2260
     29  O         21.4420   25.5140    7.1580 O.2    71  LYS71      -0.2867
     30  CB        19.5890   25.7860    9.6700 C.3    71  LYS71       0.0271
     31  CG        19.6290   26.5260   11.0000 C.3    71  LYS71       0.0035
     32  CD        19.1080   25.6700   12.1420 C.3    71  LYS71       0.0206
     33  CE        19.9700   24.4410   12.3730 C.3    71  LYS71       0.1093
     34  NZ        19.4520   23.6190   13.5070 N.3    71  LYS71      -0.1314
     35  N         23.0120   31.3990    3.9190 N.3    76  PHE76      -0.1227
     36  CA        22.6320   31.8770    5.2470 C.3    76  PHE76       0.1736
     37  C         23.6200   31.4060    6.3110 C.2    76  PHE76       0.2595
     38  O         24.0450   32.1810    7.1670 O.2    76  PHE76      -0.2718
     39  CB        21.2160   31.4120    5.5980 C.3    76  PHE76       0.0547
     40  CG        20.7410   31.8700    6.9520 C.ar   76  PHE76      -0.0202
     41  CD1       20.1460   33.1100    7.1100 C.ar   76  PHE76      -0.0042
     42  CD2       20.8870   31.0540    8.0660 C.ar   76  PHE76      -0.0042
     43  CE1       19.7050   33.5300    8.3590 C.ar   76  PHE76      -0.0003
     44  CE2       20.4530   31.4690    9.3170 C.ar   76  PHE76      -0.0003
     45  CZ        19.8560   32.7110    9.4600 C.ar   76  PHE76      -0.0000
     46  N         23.9870   30.1320    6.2510 N.am   77  MET77      -0.1979
     47  CA        24.9520   29.5700    7.1960 C.3    77  MET77       0.1605
     48  C         26.3440   30.1950    7.1000 C.2    77  MET77       0.2287
     49  O         27.1060   30.1710    8.0670 O.2    77  MET77      -0.2864
     50  CB        25.0630   28.0600    6.9980 C.3    77  MET77       0.0413
     51  CG        23.9440   27.2650    7.6320 C.3    77  MET77       0.0598
     52  SD        23.9300   27.3580    9.4320 S.3    77  MET77      -0.1393
     53  CE        22.7400   28.6600    9.6780 C.3    77  MET77       0.0692
     54  N         27.3330   34.8620   13.0540 N.3    81  GLN81      -0.1245
     55  CA        26.2920   34.4880   14.0010 C.3    81  GLN81       0.1566
     56  C         25.3460   35.6460   14.3300 C.2    81  GLN81       0.2260
     57  O         24.1320   35.4570   14.4230 O.2    81  GLN81      -0.2867
     58  CB        26.9350   33.9460   15.2800 C.3    81  GLN81       0.0367
     59  CG        27.7710   32.6940   15.0490 C.3    81  GLN81       0.0905
     60  CD        28.3760   32.1500   16.3240 C.2    81  GLN81       0.2608
     61  OE1       28.3440   32.8030   17.3660 O.2    81  GLN81      -0.2717
     62  NE2       28.9300   30.9460   16.2490 N.am   81  GLN81      -0.0878
     63  N         22.8530   36.2150   11.3970 N.3    84  GLN84      -0.1231
     64  CA        21.8530   35.1460   11.3370 C.3    84  GLN84       0.1698
     65  C         20.6950   35.4560   12.2800 C.2    84  GLN84       0.2592
     66  O         19.5160   35.3640   11.9110 O.2    84  GLN84      -0.2718
     67  CB        22.4680   33.7860   11.6970 C.3    84  GLN84       0.0381
     68  CG        23.4260   33.2150   10.6510 C.3    84  GLN84       0.0905
     69  CD        24.0600   31.9130   11.1100 C.2    84  GLN84       0.2608
     70  OE1       23.5460   31.2450   12.0080 O.2    84  GLN84      -0.2717
     71  NE2       25.1860   31.5550   10.5090 N.am   84  GLN84      -0.0878
     72  N         21.0380   35.8420   13.5010 N.am   85  ILE85      -0.1980
     73  CA        20.0250   36.1550   14.4930 C.3    85  ILE85       0.1595
     74  C         19.2100   37.3770   14.0710 C.2    85  ILE85       0.2287
     75  O         17.9840   37.3470   14.1180 O.2    85  ILE85      -0.2864
     76  CB        20.6610   36.3800   15.8800 C.3    85  ILE85       0.0276
     77  CG1       21.2260   35.0580   16.4070 C.3    85  ILE85       0.0022
     78  CG2       19.6390   36.9360   16.8460 C.3    85  ILE85       0.0022
     79  CD1       21.9910   35.1790   17.6990 C.3    85  ILE85       0.0001
     80  N         16.8000   36.4720   11.2830 N.3    88  LEU88      -0.1231
     81  CA        15.6940   35.6240   11.7140 C.3    88  LEU88       0.1693
     82  C         14.7310   36.3780   12.6300 C.2    88  LEU88       0.2591
     83  O         13.5210   36.1910   12.5440 O.2    88  LEU88      -0.2718
     84  CB        16.2220   34.3620   12.3940 C.3    88  LEU88       0.0284
     85  CG        16.5930   33.2650   11.3840 C.3    88  LEU88       0.0019
     86  CD1       17.3190   32.1290   12.0790 C.3    88  LEU88       0.0001
     87  CD2       15.3470   32.7370   10.6560 C.3    88  LEU88       0.0001
     88  N         15.2550   37.2420   13.4930 N.am   89  LYS89      -0.1980
     89  CA        14.3820   38.0670   14.3220 C.3    89  LYS89       0.1596
     90  C         13.4390   38.9110   13.4780 C.2    89  LYS89       0.2287
     91  O         12.2520   39.0190   13.7770 O.2    89  LYS89      -0.2864
     92  CB        15.1980   38.9920   15.2290 C.3    89  LYS89       0.0298
     93  CG        15.4860   38.4340   16.5980 C.3    89  LYS89       0.0038
     94  CD        16.2320   39.4590   17.4350 C.3    89  LYS89       0.0206
     95  CE        16.1330   39.1390   18.9130 C.3    89  LYS89       0.1093
     96  NZ        16.6710   37.7880   19.2190 N.3    89  LYS89      -0.1314
     97  N          8.8300   30.4070   24.7040 N.3   237  PRO237     -0.2102
     98  CA        10.1320   31.0690   24.8430 C.3   237  PRO237      0.1504
     99  C         10.6780   31.6170   23.5270 C.2   237  PRO237      0.2575
    100  O         11.1940   32.7340   23.5100 O.2   237  PRO237     -0.2718
    101  CB        11.0350   29.9520   25.3800 C.3   237  PRO237      0.0282
    102  CG        10.1030   29.0440   26.1020 C.3   237  PRO237      0.0208
    103  CD         8.8380   29.0570   25.2950 C.3   237  PRO237      0.0893
    104  N         10.5570   30.8570   22.4420 N.am  238  LEU238     -0.1980
    105  CA        11.0780   31.3120   21.1550 C.3   238  LEU238      0.1596
    106  C         10.3040   32.5410   20.6860 C.2   238  LEU238      0.2287
    107  O         10.8800   33.4700   20.1170 O.2   238  LEU238     -0.2864
    108  CB        11.0030   30.1950   20.1080 C.3   238  LEU238      0.0297
    109  CG        11.6130   30.5060   18.7400 C.3   238  LEU238      0.0022
    110  CD1       13.0590   30.9530   18.9020 C.3   238  LEU238      0.0001
    111  CD2       11.5160   29.3040   17.8020 C.3   238  LEU238      0.0001
    112  N         11.3310   35.5170   22.6560 N.3   241  GLU241     -0.1231
    113  CA        12.7030   35.8300   22.2970 C.3   241  GLU241      0.1699
    114  C         12.8120   36.5440   20.9500 C.2   241  GLU241      0.2592
    115  O         13.5740   37.5020   20.7980 O.2   241  GLU241     -0.2718
    116  CB        13.5240   34.5460   22.2820 C.3   241  GLU241      0.0402
    117  CG        14.9590   34.7070   21.8700 C.3   241  GLU241      0.1161
    118  CD        15.7910   33.5040   22.2600 C.2   241  GLU241      0.3649
    119  OE1       15.6630   33.0410   23.4160 O.co2 241  GLU241     -0.2457
    120  OE2       16.5620   33.0170   21.4120 O.co2 241  GLU241     -0.2457
    121  N         12.0430   36.0810   19.9720 N.am  242  LEU242     -0.1980
    122  CA        12.1110   36.6680   18.6380 C.3   242  LEU242      0.1596
    123  C         11.4310   38.0260   18.5520 C.2   242  LEU242      0.2287
    124  O         11.8880   38.8970   17.8160 O.2   242  LEU242     -0.2864
    125  CB        11.4860   35.7310   17.6110 C.3   242  LEU242      0.0297
    126  CG        12.3780   34.5790   17.1550 C.3   242  LEU242      0.0022
    127  CD1       11.5560   33.5950   16.3750 C.3   242  LEU242      0.0001
    128  CD2       13.5260   35.0860   16.3120 C.3   242  LEU242      0.0001
@<TRIPOS>BOND
     1    35    36    1
     2    36    39    1
     3    36    37    1
     4    39    40    1
     5    46    37   am
     6    46    47    1
     7    37    38    2
     8    40    41   ar
     9    40    42   ar
    10    50    47    1
    11    50    51    1
    12    48    47    1
    13    48    49    2
    14    41    43   ar
    15    29    28    2
    16    28    27    1
    17    51    52    1
    18    20    19    2
    19    42    44   ar
    20    26    27    1
    21    43    45   ar
    22    27    30    1
    23    19    18    1
    24    44    45   ar
    25    52    53    1
    26    30    31    1
    27    18    21    1
    28    18    17    1
    29    21    22    1
    30    13    12    2
    31    71    69   am
    32    17    12   am
    33    68    69    1
    34    68    67    1
    35    87    85    1
    36    24    23   ar
    37    12    11    1
    38    31    32    1
    39    10    11    1
    40    69    70    2
    41    80    81    1
    42    64    63    1
    43    64    67    1
    44    64    65    1
    45    85    86    1
    46    85    84    1
    47    11    14    1
    48    22    23    1
    49    23    25   ar
    50    81    84    1
    51    81    82    1
    52    66    65    2
    53    32    33    1
    54    65    72   am
    55    33    34    1
    56    83    82    2
    57    82    88   am
    58     4     3    2
    59     3     2    1
    60    14    15    1
    61    14    16    1
    62    54    55    1
    63    90    91    2
    64    90    89    1
    65    88    89    1
    66    72    73    1
    67    55    56    1
    68    55    58    1
    69    74    75    2
    70    74    73    1
    71     1     2    1
    72     2     5    1
    73    89    92    1
    74    56    57    2
    75    73    76    1
    76    59    58    1
    77    59    60    1
    78    92    93    1
    79     5     6    1
    80    76    77    1
    81    76    78    1
    82    62    60   am
    83   128   126    1
    84    60    61    2
    85   127   126    1
    86    77    79    1
    87    93    94    1
    88     6     7    1
    89   126   125    1
    90    94    95    1
    91     9     7   am
    92   125   122    1
    93     7     8    2
    94   111   109    1
    95   124   123    2
    96   123   122    1
    97   122   121    1
    98   109   110    1
    99   109   108    1
   100    95    96    1
   101   121   114   am
   102   108   105    1
   103   107   106    2
   104   106   105    1
   105   115   114    2
   106   114   113    1
   107   105   104    1
   108   120   118   ar
   109   117   118    1
   110   117   116    1
   111   118   119   ar
   112   116   113    1
   113   113   112    1
   114   104    99   am
   115   100    99    2
   116    99    98    1
   117    97    98    1
   118    97   103    1
   119    98   101    1
   120   103   102    1
   121   101   102    1
