@<TRIPOS>MOLECULE
tmp/4s15A02.pdb
 264 257 0 0 0
SMALL
GASTEIGER

@<TRIPOS>ATOM
      1  N          5.8200   22.1020    6.8920 N.3    21  GLN21      -0.1231
      2  CA         5.0750   21.2430    7.7890 C.3    21  GLN21       0.1698
      3  C          4.1140   20.3330    7.0390 C.2    21  GLN21       0.2592
      4  O          3.9160   19.1920    7.4290 O.2    21  GLN21      -0.2718
      5  CB         4.3150   22.0950    8.7960 C.3    21  GLN21       0.0381
      6  CG         5.1920   23.1230    9.4560 C.3    21  GLN21       0.0905
      7  CD         4.4070   24.3030    9.9750 C.2    21  GLN21       0.2608
      8  OE1        4.3850   25.3680    9.3550 O.2    21  GLN21      -0.2717
      9  NE2        3.7600   24.1240   11.1210 N.am   21  GLN21      -0.0878
     10  N          3.5230   20.8400    5.9620 N.am   22  TYR22      -0.1976
     11  CA         2.5400   20.0700    5.1960 C.3    22  TYR22       0.1639
     12  C          2.8410   20.1160    3.7060 C.2    22  TYR22       0.2290
     13  O          3.3560   21.1150    3.2110 O.2    22  TYR22      -0.2864
     14  CB         1.1300   20.6080    5.4460 C.3    22  TYR22       0.0560
     15  CG         0.7860   20.8090    6.9020 C.ar   22  TYR22      -0.0198
     16  CD1        0.3840   19.7400    7.6930 C.ar   22  TYR22      -0.0009
     17  CD2        0.8480   22.0680    7.4840 C.ar   22  TYR22      -0.0009
     18  CE1        0.0630   19.9170    9.0230 C.ar   22  TYR22       0.0417
     19  CE2        0.5300   22.2540    8.8180 C.ar   22  TYR22       0.0417
     20  CZ         0.1360   21.1740    9.5800 C.ar   22  TYR22       0.1957
     21  OH        -0.1850   21.3480   10.9080 O.3    22  TYR22      -0.2866
     22  N         -2.6520   20.1600    1.4420 N.3    27  LEU27      -0.1245
     23  CA        -3.3550   21.3580    1.9130 C.3    27  LEU27       0.1561
     24  C         -4.4230   21.7930    0.9160 C.2    27  LEU27       0.2260
     25  O         -5.5440   22.1320    1.3020 O.2    27  LEU27      -0.2867
     26  CB        -2.3710   22.5150    2.1510 C.3    27  LEU27       0.0270
     27  CG        -1.4140   22.4260    3.3480 C.3    27  LEU27       0.0019
     28  CD1       -0.2380   23.3970    3.1950 C.3    27  LEU27       0.0001
     29  CD2       -2.1400   22.6990    4.6570 C.3    27  LEU27       0.0001
     30  N         -5.0910   34.2870   22.3050 N.3    52  TRP52      -0.1241
     31  CA        -3.7890   34.7760   21.8650 C.3    52  TRP52       0.1605
     32  C         -2.7050   33.7370   22.1150 C.2    52  TRP52       0.2264
     33  O         -1.8650   33.4910   21.2490 O.2    52  TRP52      -0.2867
     34  CB        -3.4320   36.0790   22.5690 C.3    52  TRP52       0.0550
     35  CG        -2.3320   36.8510   21.8980 C.ar   52  TRP52       0.0003
     36  CD1       -1.2200   36.3470   21.2820 C.ar   52  TRP52       0.0946
     37  CD2       -2.2480   38.2710   21.7710 C.ar   52  TRP52       0.0152
     38  NE1       -0.4450   37.3680   20.7900 N.ar   52  TRP52      -0.2442
     39  CE2       -1.0570   38.5600   21.0740 C.ar   52  TRP52       0.0810
     40  CE3       -3.0670   39.3260   22.1710 C.ar   52  TRP52       0.0012
     41  CZ2       -0.6660   39.8620   20.7750 C.ar   52  TRP52       0.0191
     42  CZ3       -2.6770   40.6180   21.8760 C.ar   52  TRP52       0.0001
     43  CH2       -1.4880   40.8750   21.1840 C.ar   52  TRP52       0.0015
     44  N         -2.8380   31.0400   19.6410 N.3    55  CYS55      -0.1235
     45  CA        -2.2900   31.4960   18.3640 C.3    55  CYS55       0.1677
     46  C         -0.7600   31.5940   18.3820 C.2    55  CYS55       0.2270
     47  O         -0.1020   31.2550   17.3930 O.2    55  CYS55      -0.2867
     48  CB        -2.9010   32.8440   17.9710 C.3    55  CYS55       0.0956
     49  SG        -4.6420   32.7340   17.4580 S.3    55  CYS55      -0.0801
     50  N          0.8420   28.2310   17.7680 N.3    58  LYS58      -0.1231
     51  CA         0.8050   27.8590   16.3540 C.3    58  LYS58       0.1693
     52  C          1.8420   28.6320   15.5370 C.2    58  LYS58       0.2591
     53  O          2.5230   28.0720   14.6730 O.2    58  LYS58      -0.2718
     54  CB        -0.5900   28.1020   15.7780 C.3    58  LYS58       0.0285
     55  CG        -1.6980   27.3340   16.4840 C.3    58  LYS58       0.0035
     56  CD        -1.4620   25.8470   16.4100 C.3    58  LYS58       0.0206
     57  CE        -2.6640   25.0750   16.9520 C.3    58  LYS58       0.1093
     58  NZ        -2.3840   23.6220   17.0040 N.3    58  LYS58      -0.1314
     59  N          1.9540   29.9230   15.8150 N.am   59  ILE59      -0.1980
     60  CA         2.9480   30.7560   15.1560 C.3    59  ILE59       0.1595
     61  C          4.3520   30.2460   15.4510 C.2    59  ILE59       0.2287
     62  O          5.1910   30.1520   14.5530 O.2    59  ILE59      -0.2864
     63  CB         2.8230   32.2300   15.6020 C.3    59  ILE59       0.0276
     64  CG1        1.5240   32.8320   15.0620 C.3    59  ILE59       0.0022
     65  CG2        4.0360   33.0430   15.1520 C.3    59  ILE59       0.0022
     66  CD1        1.2810   34.2790   15.4930 C.3    59  ILE59       0.0001
     67  N          5.3500   27.2830   16.3610 N.3    61  GLU61      -0.1231
     68  CA         5.6450   26.0030   15.7280 C.3    61  GLU61       0.1699
     69  C          6.0390   26.2430   14.2740 C.2    61  GLU61       0.2592
     70  O          6.9970   25.6510   13.7810 O.2    61  GLU61      -0.2718
     71  CB         4.4590   25.0370   15.8270 C.3    61  GLU61       0.0402
     72  CG         4.7550   23.6720   15.1970 C.3    61  GLU61       0.1161
     73  CD         3.9290   22.5390   15.7940 C.2    61  GLU61       0.3649
     74  OE1        2.7720   22.7870   16.1960 O.co2  61  GLU61      -0.2457
     75  OE2        4.4440   21.3980   15.8640 O.co2  61  GLU61      -0.2457
     76  N          5.3180   27.1360   13.6020 N.am   62  ALA62      -0.1980
     77  CA         5.6420   27.5030   12.2230 C.3    62  ALA62       0.1597
     78  C          7.0330   28.1190   12.1410 C.2    62  ALA62       0.2287
     79  O          7.7930   27.8470   11.2190 O.2    62  ALA62      -0.2864
     80  CB         4.6050   28.4770   11.6660 C.3    62  ALA62       0.0319
     81  N          6.6840   33.1640    7.5880 N.3    96  VAL96      -0.1231
     82  CA         5.4610   32.4980    8.0350 C.3    96  VAL96       0.1692
     83  C          4.2420   33.0010    7.2540 C.2    96  VAL96       0.2592
     84  O          3.4200   32.2040    6.8000 O.2    96  VAL96      -0.2718
     85  CB         5.2400   32.6880    9.5570 C.3    96  VAL96       0.0266
     86  CG1        3.8420   32.2410    9.9570 C.3    96  VAL96       0.0020
     87  CG2        6.2740   31.8980   10.3320 C.3    96  VAL96       0.0020
     88  N          4.1450   34.3140    7.0590 N.am   97  PHE97      -0.1976
     89  CA         3.0150   34.8810    6.3300 C.3    97  PHE97       0.1639
     90  C          3.0300   34.4980    4.8460 C.2    97  PHE97       0.2290
     91  O          1.9760   34.3320    4.2250 O.2    97  PHE97      -0.2864
     92  CB         2.9910   36.4080    6.4740 C.3    97  PHE97       0.0560
     93  CG         2.3750   36.8820    7.7590 C.ar   97  PHE97      -0.0200
     94  CD1        1.1680   36.3620    8.2000 C.ar   97  PHE97      -0.0042
     95  CD2        3.0090   37.8370    8.5350 C.ar   97  PHE97      -0.0042
     96  CE1        0.5980   36.7930    9.3920 C.ar   97  PHE97      -0.0003
     97  CE2        2.4450   38.2760    9.7290 C.ar   97  PHE97      -0.0003
     98  CZ         1.2420   37.7540   10.1560 C.ar   97  PHE97      -0.0000
     99  N          4.3420   31.6180    3.7620 N.3    99  ARG99      -0.1231
    100  CA         3.9690   30.2160    3.8430 C.3    99  ARG99       0.1694
    101  C          2.4690   30.0140    4.0640 C.2    99  ARG99       0.2591
    102  O          1.9010   29.0010    3.6450 O.2    99  ARG99      -0.2718
    103  CB         4.7700   29.5330    4.9500 C.3    99  ARG99       0.0321
    104  CG         6.1820   29.1860    4.5150 C.3    99  ARG99       0.0489
    105  CD         6.9790   28.4680    5.5930 C.3    99  ARG99       0.2205
    106  NE         8.1970   27.9300    4.9990 N.pl3  99  ARG99      -0.0865
    107  CZ         8.9440   26.9650    5.5250 C.cat  99  ARG99       0.5346
    108  NH1        8.6260   26.4190    6.6960 N.pl3  99  ARG99       0.1354
    109  NH2       10.0170   26.5490    4.8670 N.pl3  99  ARG99       0.1354
    110  N          1.8240   30.9870    4.6990 N.am  100  MET100     -0.1979
    111  CA         0.3780   30.9420    4.8960 C.3   100  MET100      0.1605
    112  C         -0.4020   30.7610    3.5850 C.2   100  MET100      0.2287
    113  O         -1.4520   30.1100    3.5680 O.2   100  MET100     -0.2864
    114  CB        -0.0970   32.2130    5.5980 C.3   100  MET100      0.0413
    115  CG        -1.5960   32.2630    5.8290 C.3   100  MET100      0.0598
    116  SD        -2.0840   33.7860    6.6510 S.3   100  MET100     -0.1393
    117  CE        -1.6880   34.9860    5.3820 C.3   100  MET100      0.0692
    118  N          0.1850   28.9420    1.2020 N.3   102  ARG102     -0.1231
    119  CA         0.1250   27.5230    0.8540 C.3   102  ARG102      0.1694
    120  C         -1.0730   26.8540    1.5160 C.2   102  ARG102      0.2591
    121  O         -1.5440   25.8130    1.0670 O.2   102  ARG102     -0.2718
    122  CB         1.4020   26.7970    1.2860 C.3   102  ARG102      0.0321
    123  CG         2.6900   27.3400    0.7050 C.3   102  ARG102      0.0489
    124  CD         3.9070   26.7010    1.3750 C.3   102  ARG102      0.2205
    125  NE         4.1480   25.3340    0.9150 N.pl3 102  ARG102     -0.0865
    126  CZ         3.8540   24.2400    1.6110 C.cat 102  ARG102      0.5346
    127  NH1        3.3040   24.3440    2.8150 N.pl3 102  ARG102      0.1354
    128  NH2        4.1150   23.0400    1.1070 N.pl3 102  ARG102      0.1354
    129  N         -1.5440   27.4580    2.6010 N.am  103  ALA103     -0.1980
    130  CA        -2.5800   26.8710    3.4360 C.3   103  ALA103      0.1597
    131  C         -3.8100   27.7510    3.4540 C.2   103  ALA103      0.2287
    132  O         -4.5040   27.8400    4.4640 O.2   103  ALA103     -0.2864
    133  CB        -2.0620   26.6710    4.8450 C.3   103  ALA103      0.0319
    134  N         -8.2850   29.9140    6.1290 N.3   111  VAL111     -0.1231
    135  CA        -6.8990   29.5360    6.3440 C.3   111  VAL111      0.1692
    136  C         -6.8400   28.2910    7.2240 C.2   111  VAL111      0.2592
    137  O         -7.6750   28.0970    8.1070 O.2   111  VAL111     -0.2718
    138  CB        -6.0840   30.6880    6.9900 C.3   111  VAL111      0.0266
    139  CG1       -6.5830   30.9890    8.4090 C.3   111  VAL111      0.0020
    140  CG2       -4.6030   30.3560    7.0030 C.3   111  VAL111      0.0020
    141  N         -5.8680   27.4310    6.9470 N.am  112  TYR112     -0.1962
    142  CA        -5.7280   26.1690    7.6540 C.3   112  TYR112      0.1771
    143  C         -5.1360   26.4400    9.0350 C.2   112  TYR112      0.2620
    144  O         -3.9990   26.8900    9.1480 O.2   112  TYR112     -0.2715
    145  CB        -4.8500   25.2090    6.8470 C.3   112  TYR112      0.0574
    146  CG        -4.7780   23.8090    7.4040 C.ar  112  TYR112     -0.0198
    147  CD1       -5.8740   22.9550    7.3310 C.ar  112  TYR112     -0.0009
    148  CD2       -3.6080   23.3320    7.9830 C.ar  112  TYR112     -0.0009
    149  CE1       -5.8120   21.6690    7.8390 C.ar  112  TYR112      0.0417
    150  CE2       -3.5370   22.0480    8.4970 C.ar  112  TYR112      0.0417
    151  CZ        -4.6420   21.2210    8.4190 C.ar  112  TYR112      0.1957
    152  OH        -4.5740   19.9430    8.9240 O.3   112  TYR112     -0.2866
    153  N         -5.9280   26.1820   10.0720 N.am  113  PHE113     -0.1960
    154  CA        -5.5940   26.5690   11.4430 C.3   113  PHE113      0.1771
    155  C         -6.1400   25.5360   12.4180 C.2   113  PHE113      0.2619
    156  O         -7.3340   25.2490   12.4120 O.2   113  PHE113     -0.2715
    157  CB        -6.1660   27.9640   11.7530 C.3   113  PHE113      0.0574
    158  CG        -6.0960   28.3510   13.2060 C.ar  113  PHE113     -0.0200
    159  CD1       -4.9420   28.9110   13.7320 C.ar  113  PHE113     -0.0042
    160  CD2       -7.1890   28.1760   14.0370 C.ar  113  PHE113     -0.0042
    161  CE1       -4.8760   29.2730   15.0670 C.ar  113  PHE113     -0.0003
    162  CE2       -7.1290   28.5350   15.3770 C.ar  113  PHE113     -0.0003
    163  CZ        -5.9690   29.0840   15.8870 C.ar  113  PHE113     -0.0000
    164  N         -5.2620   24.9710   13.2440 N.am  114  ASP114     -0.1971
    165  CA        -5.6640   23.9810   14.2360 C.3   114  ASP114      0.1709
    166  C         -6.4530   22.8390   13.5900 C.2   114  ASP114      0.2293
    167  O         -7.4600   22.3860   14.1280 O.2   114  ASP114     -0.2864
    168  CB        -6.4860   24.6420   15.3580 C.3   114  ASP114      0.1436
    169  CG        -6.5410   23.7960   16.6190 C.2   114  ASP114      0.3671
    170  OD1       -5.5770   23.0370   16.8630 O.co2 114  ASP114     -0.2456
    171  OD2       -7.5430   23.8930   17.3640 O.co2 114  ASP114     -0.2456
    172  N        -11.2750   33.9530   14.7990 N.3   123  PHE123     -0.1241
    173  CA       -10.3480   34.7790   15.5670 C.3   123  PHE123      0.1605
    174  C        -11.0200   35.9640   16.2650 C.2   123  PHE123      0.2264
    175  O        -10.3530   36.9200   16.6570 O.2   123  PHE123     -0.2867
    176  CB        -9.2340   35.2710   14.6440 C.3   123  PHE123      0.0534
    177  CG        -8.5300   34.1560   13.9490 C.ar  123  PHE123     -0.0203
    178  CD1       -7.5320   33.4470   14.5940 C.ar  123  PHE123     -0.0042
    179  CD2       -8.9100   33.7700   12.6730 C.ar  123  PHE123     -0.0042
    180  CE1       -6.9050   32.3810   13.9640 C.ar  123  PHE123     -0.0003
    181  CE2       -8.2880   32.7120   12.0410 C.ar  123  PHE123     -0.0003
    182  CZ        -7.2810   32.0180   12.6850 C.ar  123  PHE123     -0.0000
    183  N         -9.7570   37.6750   19.6480 N.3   126  LEU126     -0.1245
    184  CA        -8.5140   38.4460   19.6430 C.3   126  LEU126      0.1561
    185  C         -8.8300   39.9450   19.7080 C.2   126  LEU126      0.2260
    186  O         -8.0040   40.7510   20.1430 O.2   126  LEU126     -0.2867
    187  CB        -7.6770   38.1220   18.4030 C.3   126  LEU126      0.0270
    188  CG        -7.1040   36.6990   18.3610 C.3   126  LEU126      0.0019
    189  CD1       -6.3130   36.4680   17.0820 C.3   126  LEU126      0.0001
    190  CD2       -6.2380   36.4400   19.5890 C.3   126  LEU126      0.0001
    191  N         -9.2730   42.1080   17.2770 N.3   128  CYS128     -0.1235
    192  CA        -8.6400   42.9730   16.2860 C.3   128  CYS128      0.1677
    193  C         -9.0340   42.5610   14.8720 C.2   128  CYS128      0.2270
    194  O         -8.1840   42.1620   14.0710 O.2   128  CYS128     -0.2867
    195  CB        -7.1170   42.9540   16.4440 C.3   128  CYS128      0.0956
    196  SG        -6.3930   41.2830   16.3650 S.3   128  CYS128     -0.0801
    197  N         -6.9050   43.8460   11.9190 N.3   131  PHE131     -0.1227
    198  CA        -5.6500   43.1240   11.7100 C.3   131  PHE131      0.1736
    199  C         -5.8860   41.7590   11.0680 C.2   131  PHE131      0.2595
    200  O         -5.1940   41.3830   10.1190 O.2   131  PHE131     -0.2718
    201  CB        -4.8980   42.9490   13.0290 C.3   131  PHE131      0.0547
    202  CG        -3.6350   42.1390   12.9000 C.ar  131  PHE131     -0.0202
    203  CD1       -2.5810   42.6000   12.1290 C.ar  131  PHE131     -0.0042
    204  CD2       -3.5080   40.9210   13.5420 C.ar  131  PHE131     -0.0042
    205  CE1       -1.4130   41.8580   12.0050 C.ar  131  PHE131     -0.0003
    206  CE2       -2.3460   40.1700   13.4210 C.ar  131  PHE131     -0.0003
    207  CZ        -1.3010   40.6430   12.6490 C.ar  131  PHE131     -0.0000
    208  N         -6.8660   41.0190   11.5780 N.am  132  ILE132     -0.1980
    209  CA        -7.1910   39.7040   11.0080 C.3   132  ILE132      0.1595
    210  C         -7.5980   39.8430    9.5380 C.2   132  ILE132      0.2287
    211  O         -7.1310   39.0880    8.6800 O.2   132  ILE132     -0.2864
    212  CB        -8.3130   39.0040   11.8010 C.3   132  ILE132      0.0276
    213  CG1       -7.8920   38.8030   13.2610 C.3   132  ILE132      0.0022
    214  CG2       -8.6930   37.6570   11.1540 C.3   132  ILE132      0.0022
    215  CD1       -6.6230   37.9840   13.4350 C.3   132  ILE132      0.0001
    216  N         -4.6060   40.2720    7.4290 N.3   135  VAL135     -0.1231
    217  CA        -3.9030   39.0040    7.2650 C.3   135  VAL135      0.1692
    218  C         -4.5550   38.1610    6.1680 C.2   135  VAL135      0.2592
    219  O         -3.8750   37.6700    5.2560 O.2   135  VAL135     -0.2718
    220  CB        -3.8740   38.2060    8.5840 C.3   135  VAL135      0.0266
    221  CG1       -3.4100   36.7680    8.3300 C.3   135  VAL135      0.0020
    222  CG2       -2.9830   38.9140    9.6110 C.3   135  VAL135      0.0020
    223  N         -5.8760   38.0170    6.2380 N.am  136  PHE136     -0.1976
    224  CA        -6.6030   37.2570    5.2190 C.3   136  PHE136      0.1639
    225  C         -6.4830   37.9060    3.8380 C.2   136  PHE136      0.2290
    226  O         -6.4330   37.2040    2.8250 O.2   136  PHE136     -0.2864
    227  CB        -8.0760   37.0930    5.6080 C.3   136  PHE136      0.0560
    228  CG        -8.3220   35.9560    6.5660 C.ar  136  PHE136     -0.0200
    229  CD1       -7.8320   36.0060    7.8600 C.ar  136  PHE136     -0.0042
    230  CD2       -9.0500   34.8440    6.1760 C.ar  136  PHE136     -0.0042
    231  CE1       -8.0500   34.9600    8.7460 C.ar  136  PHE136     -0.0003
    232  CE2       -9.2730   33.7890    7.0590 C.ar  136  PHE136     -0.0003
    233  CZ        -8.7780   33.8520    8.3440 C.ar  136  PHE136     -0.0000
    234  N          1.8430   43.1950   14.1830 N.3   216  HIS216     -0.1241
    235  CA         1.9770   42.1020   15.1420 C.3   216  HIS216      0.1621
    236  C          2.9080   42.5010   16.2820 C.2   216  HIS216      0.2264
    237  O          2.6170   42.2470   17.4520 O.2   216  HIS216     -0.2867
    238  CB         2.4930   40.8320   14.4590 C.3   216  HIS216      0.0745
    239  CG         2.8700   39.7490   15.4220 C.ar  216  HIS216      0.0817
    240  ND1        4.1740   39.5030   15.7920 N.ar  216  HIS216     -0.2268
    241  CD2        2.1100   38.8690   16.1180 C.ar  216  HIS216      0.1154
    242  CE1        4.2040   38.5030   16.6580 C.ar  216  HIS216      0.1986
    243  NE2        2.9650   38.1020   16.8730 N.ar  216  HIS216     -0.2212
    244  N          1.2600   45.1510   18.5220 N.3   219  LYS219     -0.1245
    245  CA         0.2290   44.4880   19.3220 C.3   219  LYS219      0.1561
    246  C          0.8500   43.6830   20.4580 C.2   219  LYS219      0.2260
    247  O          0.4060   43.7580   21.6040 O.2   219  LYS219     -0.2867
    248  CB        -0.6370   43.5780   18.4460 C.3   219  LYS219      0.0271
    249  CG        -1.6590   44.3400   17.6070 C.3   219  LYS219      0.0035
    250  CD        -2.2320   43.4870   16.4850 C.3   219  LYS219      0.0206
    251  CE        -2.9900   42.2880   17.0370 C.3   219  LYS219      0.1093
    252  NZ        -4.1280   42.7060   17.8990 N.3   219  LYS219     -0.1314
    253  N          8.9990   32.5340   20.9440 N.3   239  TYR239     -0.1241
    254  CA         8.1080   33.6320   20.5780 C.3   239  TYR239      0.1605
    255  C          8.5100   34.9090   21.3190 C.2   239  TYR239      0.2264
    256  O          8.7060   35.9630   20.7100 O.2   239  TYR239     -0.2867
    257  CB         6.6610   33.2390   20.8900 C.3   239  TYR239      0.0534
    258  CG         5.5710   34.1830   20.4110 C.ar  239  TYR239     -0.0201
    259  CD1        5.1200   34.1540   19.0940 C.ar  239  TYR239     -0.0009
    260  CD2        4.9510   35.0580   21.2950 C.ar  239  TYR239     -0.0009
    261  CE1        4.1030   35.0070   18.6620 C.ar  239  TYR239      0.0417
    262  CE2        3.9370   35.9070   20.8770 C.ar  239  TYR239      0.0417
    263  CZ         3.5160   35.8800   19.5620 C.ar  239  TYR239      0.1957
    264  OH         2.5050   36.7250   19.1540 O.3   239  TYR239     -0.2866
@<TRIPOS>BOND
     1   123   122    1
     2   123   124    1
     3   119   118    1
     4   119   122    1
     5   119   120    1
     6   125   124    1
     7   125   126    2
     8    24    25    2
     9    24    23    1
    10   121   120    2
    11   128   126    1
    12    22    23    1
    13   120   129   am
    14   126   127    1
    15    23    26    1
    16    26    27    1
    17   129   130    1
    18   226   225    2
    19    28    27    1
    20    13    12    2
    21    27    29    1
    22   130   131    1
    23   130   133    1
    24   131   132    2
    25   113   112    2
    26   112   111    1
    27   102   101    2
    28    12    11    1
    29    99   100    1
    30   225   224    1
    31   100   101    1
    32   100   103    1
    33   101   110   am
    34    91    90    2
    35   104   103    1
    36   104   105    1
    37   110   111    1
    38    90    89    1
    39   109   107    1
    40   111   114    1
    41   106   107    2
    42   106   105    1
    43    11    14    1
    44    11    10    1
    45   224   227    1
    46   224   223    1
    47   219   218    2
    48   117   116    1
    49    14    15    1
    50   107   108    1
    51   114   115    1
    52   227   228    1
    53   115   116    1
    54    10     3   am
    55   134   135    1
    56   218   223   am
    57   218   217    1
    58   230   228   ar
    59   230   232   ar
    60    89    92    1
    61    89    88    1
    62   135   138    1
    63   135   136    1
    64    92    93    1
    65   228   229   ar
    66    84    83    2
    67   145   146    1
    68   145   142    1
    69     1     2    1
    70    15    17   ar
    71    15    16   ar
    72   141   136   am
    73   141   142    1
    74   138   140    1
    75   138   139    1
    76     3     4    2
    77     3     2    1
    78    88    83   am
    79   232   233   ar
    80   136   137    2
    81    83    82    1
    82   217   216    1
    83   217   220    1
    84   147   146   ar
    85   147   149   ar
    86   146   148   ar
    87    17    19   ar
    88    81    82    1
    89   142   143    1
    90    16    18   ar
    91    93    94   ar
    92    93    95   ar
    93     2     5    1
    94   149   151   ar
    95   229   231   ar
    96   148   150   ar
    97    82    85    1
    98    94    96   ar
    99   221   220    1
   100   233   231   ar
   101   151   150   ar
   102   151   152    1
   103    95    97   ar
   104   220   222    1
   105   211   210    2
   106     5     6    1
   107    19    20   ar
   108    18    20   ar
   109   143   144    2
   110   143   153   am
   111     8     7    2
   112    96    98   ar
   113     6     7    1
   114   210   209    1
   115    85    86    1
   116    85    87    1
   117    20    21    1
   118    97    98   ar
   119     7     9   am
   120   153   154    1
   121   200   199    2
   122   209   208    1
   123   209   212    1
   124   199   208   am
   125   199   198    1
   126   214   212    1
   127    79    78    2
   128   154   157    1
   129   154   155    1
   130    80    77    1
   131   198   197    1
   132   198   201    1
   133   157   158    1
   134   212   213    1
   135   205   203   ar
   136   205   207   ar
   137   181   179   ar
   138   181   182   ar
   139   203   202   ar
   140    78    77    1
   141    77    76    1
   142   156   155    2
   143   155   164   am
   144   207   206   ar
   145   179   177   ar
   146   182   180   ar
   147   202   201    1
   148   202   204   ar
   149   158   159   ar
   150   158   160   ar
   151   164   165    1
   152   213   215    1
   153   206   204   ar
   154   166   167    2
   155   166   165    1
   156    76    69   am
   157   159   161   ar
   158    70    69    2
   159   177   178   ar
   160   177   176    1
   161   180   178   ar
   162   160   162   ar
   163   194   193    2
   164   234   235    1
   165   165   168    1
   166    69    68    1
   167   238   235    1
   168   238   239    1
   169    62    61    2
   170   176   173    1
   171    53    52    2
   172   172   173    1
   173   193   192    1
   174    64    66    1
   175    64    63    1
   176   161   163   ar
   177   235   236    1
   178    65    63    1
   179    60    61    1
   180    60    63    1
   181    60    59    1
   182    72    73    1
   183    72    71    1
   184   168   169    1
   185   162   163   ar
   186   239   240   ar
   187   239   241   ar
   188    52    59   am
   189    52    51    1
   190   173   174    1
   191    68    71    1
   192    68    67    1
   193    54    51    1
   194    54    55    1
   195   240   242   ar
   196    73    75   ar
   197    73    74   ar
   198   241   243   ar
   199   174   175    2
   200   236   237    2
   201   192   195    1
   202   192   191    1
   203    51    50    1
   204   196   195    1
   205    56    55    1
   206    56    57    1
   207   250   251    1
   208   250   249    1
   209   169   170   ar
   210   169   171   ar
   211   242   243   ar
   212    57    58    1
   213   251   252    1
   214   189   188    1
   215    47    46    2
   216    49    48    1
   217   249   248    1
   218    48    45    1
   219   188   187    1
   220   188   190    1
   221    45    46    1
   222    45    44    1
   223   187   184    1
   224   248   245    1
   225   244   245    1
   226   261   259   ar
   227   261   263   ar
   228   259   258   ar
   229   264   263    1
   230   245   246    1
   231   263   262   ar
   232   184   183    1
   233   184   185    1
   234   185   186    2
   235   258   257    1
   236   258   260   ar
   237   246   247    2
   238   254   257    1
   239   254   253    1
   240   254   255    1
   241   256   255    2
   242    41    39   ar
   243    41    43   ar
   244    38    39   ar
   245    38    36   ar
   246   262   260   ar
   247    39    37   ar
   248    43    42   ar
   249    33    32    2
   250    36    35   ar
   251    37    35   ar
   252    37    40   ar
   253    31    32    1
   254    31    30    1
   255    31    34    1
   256    42    40   ar
   257    35    34    1
