@<TRIPOS>MOLECULE
tmp/4s1aB00.pdb
 101 101 0 0 0
SMALL
GASTEIGER

@<TRIPOS>ATOM
      1  N         70.3270   67.6990  127.8800 N.3    84  LYS84      -0.1245
      2  CA        69.5180   66.5830  127.3890 C.3    84  LYS84       0.1561
      3  C         68.8680   67.0450  126.0900 C.2    84  LYS84       0.2260
      4  O         67.6910   67.4860  126.0410 O.2    84  LYS84      -0.2867
      5  CB        68.4380   66.2250  128.3880 C.3    84  LYS84       0.0271
      6  CG        67.7080   64.9430  128.0230 C.3    84  LYS84       0.0035
      7  CD        66.6290   64.5710  129.0790 C.3    84  LYS84       0.0206
      8  CE        65.9620   63.2790  128.6760 C.3    84  LYS84       0.1093
      9  NZ        64.8120   63.0630  129.5500 N.3    84  LYS84      -0.1314
     10  N         77.7790   58.0700  122.9820 N.3   105  TRP105     -0.1241
     11  CA        77.1370   57.3990  124.0670 C.3   105  TRP105      0.1605
     12  C         75.6120   57.4650  123.9030 C.2   105  TRP105      0.2264
     13  O         75.0740   58.4450  123.4310 O.2   105  TRP105     -0.2867
     14  CB        77.5440   58.0610  125.3650 C.3   105  TRP105      0.0550
     15  CG        77.0050   57.4060  126.5400 C.ar  105  TRP105      0.0003
     16  CD1       77.4640   56.2740  127.1240 C.ar  105  TRP105      0.0946
     17  CD2       75.8520   57.8150  127.2970 C.ar  105  TRP105      0.0152
     18  NE1       76.6920   55.9620  128.2350 N.ar  105  TRP105     -0.2442
     19  CE2       75.7060   56.9020  128.3590 C.ar  105  TRP105      0.0810
     20  CE3       74.9410   58.8660  127.1760 C.ar  105  TRP105      0.0012
     21  CZ2       74.6740   56.9900  129.2780 C.ar  105  TRP105      0.0191
     22  CZ3       73.9020   58.9760  128.1040 C.ar  105  TRP105      0.0001
     23  CH2       73.7670   58.0290  129.1240 C.ar  105  TRP105      0.0015
     24  N         71.8660   56.7210  126.0330 N.3   107  ASP107     -0.1225
     25  CA        71.2500   56.3700  127.2620 C.3   107  ASP107      0.1805
     26  C         70.3190   55.1200  127.1270 C.2   107  ASP107      0.2598
     27  O         70.2820   54.4380  126.0810 O.2   107  ASP107     -0.2718
     28  CB        70.5640   57.6130  127.8320 C.3   107  ASP107      0.1424
     29  CG        69.3070   58.0210  127.1240 C.2   107  ASP107      0.3668
     30  OD1       68.7400   57.2920  126.2600 O.co2 107  ASP107     -0.2456
     31  OD2       68.8870   59.1580  127.4350 O.co2 107  ASP107     -0.2456
     32  N         69.5840   54.8060  128.1830 N.am  108  ASN108     -0.1960
     33  CA        68.7070   53.6110  128.2070 C.3   108  ASN108      0.1819
     34  C         67.5590   53.7050  127.2310 C.2   108  ASN108      0.2621
     35  O         66.9130   52.6850  126.9210 O.2   108  ASN108     -0.2715
     36  CB        68.1500   53.3910  129.6140 C.3   108  ASN108      0.1195
     37  CG        69.2260   52.9930  130.6030 C.2   108  ASN108      0.2630
     38  OD1       70.1840   52.3170  130.2610 O.2   108  ASN108     -0.2716
     39  ND2       69.0480   53.3860  131.8630 N.am  108  ASN108     -0.0877
     40  N         67.2880   54.9210  126.7520 N.am  109  HIS109     -0.1973
     41  CA        66.2180   55.1710  125.7510 C.3   109  HIS109      0.1656
     42  C         66.8220   55.4480  124.3820 C.2   109  HIS109      0.2291
     43  O         66.1360   55.8920  123.4670 O.2   109  HIS109     -0.2864
     44  CB        65.3200   56.3100  126.2650 C.3   109  HIS109      0.0771
     45  CG        64.6220   55.9530  127.5520 C.ar  109  HIS109      0.0820
     46  ND1       65.1790   56.1970  128.7940 N.ar  109  HIS109     -0.2267
     47  CD2       63.4610   55.2930  127.7880 C.ar  109  HIS109      0.1154
     48  CE1       64.3820   55.7240  129.7370 C.ar  109  HIS109      0.1986
     49  NE2       63.3330   55.1710  129.1530 N.ar  109  HIS109     -0.2212
     50  N         73.2770   62.6640  124.1610 N.3   113  TRP113     -0.1241
     51  CA        73.2680   63.8440  124.9880 C.3   113  TRP113      0.1605
     52  C         74.3950   64.7780  124.5650 C.2   113  TRP113      0.2264
     53  O         75.4140   64.3440  124.0110 O.2   113  TRP113     -0.2867
     54  CB        73.5040   63.5010  126.4410 C.3   113  TRP113      0.0550
     55  CG        72.3640   62.8400  127.1340 C.ar  113  TRP113      0.0003
     56  CD1       71.7230   61.6950  126.7490 C.ar  113  TRP113      0.0946
     57  CD2       71.7530   63.2660  128.3420 C.ar  113  TRP113      0.0152
     58  NE1       70.7220   61.3900  127.6450 N.ar  113  TRP113     -0.2442
     59  CE2       70.7080   62.3550  128.6170 C.ar  113  TRP113      0.0810
     60  CE3       71.9340   64.3580  129.1830 C.ar  113  TRP113      0.0012
     61  CZ2       69.8820   62.4760  129.7520 C.ar  113  TRP113      0.0191
     62  CZ3       71.1240   64.4560  130.3240 C.ar  113  TRP113      0.0001
     63  CH2       70.1110   63.5420  130.5690 C.ar  113  TRP113      0.0015
     64  N         68.1530   70.4340  133.1350 N.3   144  TYR144     -0.1241
     65  CA        69.1540   69.4610  132.6280 C.3   144  TYR144      0.1605
     66  C         70.4860   70.1100  132.4210 C.2   144  TYR144      0.2264
     67  O         71.1650   69.9330  131.3630 O.2   144  TYR144     -0.2867
     68  CB        68.6600   68.6900  131.3850 C.3   144  TYR144      0.0534
     69  CG        67.5130   67.7120  131.6930 C.ar  144  TYR144     -0.0201
     70  CD1       67.7810   66.4610  132.2540 C.ar  144  TYR144     -0.0009
     71  CD2       66.1890   68.0620  131.4860 C.ar  144  TYR144     -0.0009
     72  CE1       66.7610   65.5730  132.5790 C.ar  144  TYR144      0.0417
     73  CE2       65.1630   67.1640  131.7990 C.ar  144  TYR144      0.0417
     74  CZ        65.4730   65.9270  132.3380 C.ar  144  TYR144      0.1957
     75  OH        64.4380   65.0560  132.6560 O.3   144  TYR144     -0.2866
     76  N         73.3020   69.2430  133.5970 N.3   146  ARG146     -0.1245
     77  CA        73.9460   68.1260  134.2280 C.3   146  ARG146      0.1563
     78  C         74.4490   67.1570  133.1580 C.2   146  ARG146      0.2260
     79  O         74.1180   67.2800  131.9560 O.2   146  ARG146     -0.2867
     80  CB        72.9870   67.4140  135.1710 C.3   146  ARG146      0.0307
     81  CG        71.8400   66.7110  134.5180 C.3   146  ARG146      0.0489
     82  CD        71.1220   65.9880  135.6290 C.3   146  ARG146      0.2205
     83  NE        69.9570   65.2630  135.2390 N.pl3 146  ARG146     -0.0865
     84  CZ        69.9230   64.0760  134.6360 C.cat 146  ARG146      0.5346
     85  NH1       71.0190   63.4960  134.1920 N.pl3 146  ARG146      0.1354
     86  NH2       68.7520   63.4690  134.4350 N.pl3 146  ARG146      0.1354
     87  N         74.6700   63.0920  131.9730 N.3   148  PRO148     -0.2102
     88  CA        73.7960   61.9330  132.0630 C.3   148  PRO148      0.1504
     89  C         74.1480   60.9960  133.2280 C.2   148  PRO148      0.2575
     90  O         75.2920   60.9950  133.7040 O.2   148  PRO148     -0.2718
     91  CB        73.9300   61.2510  130.6520 C.3   148  PRO148      0.0282
     92  CG        74.8330   62.1370  129.8570 C.3   148  PRO148      0.0208
     93  CD        75.6100   62.9830  130.8430 C.3   148  PRO148      0.0893
     94  N         73.1950   60.2260  133.7260 N.am  149  ASN149     -0.1975
     95  CA        73.4910   59.2290  134.8020 C.3   149  ASN149      0.1688
     96  C         74.0060   57.9320  134.2000 C.2   149  ASN149      0.2292
     97  O         73.2830   57.3080  133.4130 O.2   149  ASN149     -0.2864
     98  CB        72.2340   58.9180  135.6490 C.3   149  ASN149      0.1181
     99  CG        71.4740   60.1810  136.0810 C.2   149  ASN149      0.2629
    100  OD1       72.0750   61.1560  136.5620 O.2   149  ASN149     -0.2716
    101  ND2       70.1390   60.1720  135.9060 N.am  149  ASN149     -0.0877
@<TRIPOS>BOND
     1    10    11    1
     2    13    12    2
     3    43    42    2
     4    12    11    1
     5    53    52    2
     6    11    14    1
     7    50    51    1
     8    42    41    1
     9    52    51    1
    10    51    54    1
    11    14    15    1
    12    41    44    1
    13    41    40    1
    14    24    25    1
    15     4     3    2
    16    27    26    2
    17     3     2    1
    18    30    29   ar
    19    44    45    1
    20    54    55    1
    21    15    16   ar
    22    15    17   ar
    23    56    55   ar
    24    56    58   ar
    25    40    34   am
    26    35    34    2
    27    29    31   ar
    28    29    28    1
    29    16    18   ar
    30    26    25    1
    31    26    32   am
    32    55    57   ar
    33    20    17   ar
    34    20    22   ar
    35    34    33    1
    36    25    28    1
    37    17    19   ar
    38     2     1    1
    39     2     5    1
    40    45    47   ar
    41    45    46   ar
    42    58    59   ar
    43    47    49   ar
    44     6     5    1
    45     6     7    1
    46    22    23   ar
    47    32    33    1
    48    33    36    1
    49    18    19   ar
    50    57    59   ar
    51    57    60   ar
    52    19    21   ar
    53    59    61   ar
    54     8     7    1
    55     8     9    1
    56    46    48   ar
    57    23    21   ar
    58    49    48   ar
    59    60    62   ar
    60    36    37    1
    61    61    63   ar
    62    92    91    1
    63    92    93    1
    64    38    37    2
    65    62    63   ar
    66    37    39   am
    67    91    88    1
    68    93    87    1
    69    67    66    2
    70    68    69    1
    71    68    65    1
    72    71    69   ar
    73    71    73   ar
    74    69    70   ar
    75    73    74   ar
    76    79    78    2
    77    87    88    1
    78    88    89    1
    79    70    72   ar
    80    74    72   ar
    81    74    75    1
    82    66    65    1
    83    65    64    1
    84    78    77    1
    85    89    90    2
    86    89    94   am
    87    97    96    2
    88    76    77    1
    89    94    95    1
    90    85    84    1
    91    96    95    1
    92    77    80    1
    93    86    84    1
    94    81    80    1
    95    81    82    1
    96    84    83    2
    97    95    98    1
    98    83    82    1
    99    98    99    1
   100   101    99   am
   101    99   100    2
