@<TRIPOS>MOLECULE
tmp/4s1gB01.pdb
 194 186 0 0 0
SMALL
GASTEIGER

@<TRIPOS>ATOM
      1  N         53.3970   79.5780   67.7100 N.3    18  THR18      -0.1203
      2  CA        53.9720   80.9130   67.9170 C.3    18  THR18       0.1994
      3  C         53.2780   81.9870   67.1060 C.2    18  THR18       0.2618
      4  O         53.3880   83.1550   67.4520 O.2    18  THR18      -0.2717
      5  CB        55.4950   80.9210   67.6850 C.3    18  THR18       0.1784
      6  OG1       55.7700   80.5650   66.3240 O.3    18  THR18      -0.2211
      7  CG2       56.2540   80.0030   68.6960 C.3    18  THR18       0.0376
      8  N         52.6200   81.6260   65.9930 N.am   19  GLN19      -0.1965
      9  CA        51.9310   82.6410   65.1640 C.3    19  GLN19       0.1733
     10  C         50.5360   82.1650   64.8330 C.2    19  GLN19       0.2616
     11  O         50.3730   81.0300   64.3710 O.2    19  GLN19      -0.2715
     12  CB        52.7230   82.9500   63.8790 C.3    19  GLN19       0.0408
     13  CG        54.1500   83.4720   64.1200 C.3    19  GLN19       0.0908
     14  CD        54.9420   83.5870   62.8460 C.2    19  GLN19       0.2608
     15  OE1       54.4070   83.9080   61.7820 O.2    19  GLN19      -0.2717
     16  NE2       56.2390   83.2970   62.9220 N.am   19  GLN19      -0.0878
     17  N         49.5230   83.0030   65.1240 N.am   20  TYR20      -0.1974
     18  CA        48.1230   82.6770   64.8500 C.3    20  TYR20       0.1639
     19  C         47.6040   83.7890   63.9790 C.2    20  TYR20       0.2290
     20  O         47.7020   84.9570   64.3460 O.2    20  TYR20      -0.2864
     21  CB        47.3100   82.5580   66.1550 C.3    20  TYR20       0.0560
     22  CG        47.6930   81.3760   67.0170 C.ar   20  TYR20      -0.0198
     23  CD1       48.7630   81.4530   67.9050 C.ar   20  TYR20      -0.0009
     24  CD2       46.9510   80.1950   66.9860 C.ar   20  TYR20      -0.0009
     25  CE1       49.1120   80.3690   68.7110 C.ar   20  TYR20       0.0417
     26  CE2       47.2860   79.1090   67.7970 C.ar   20  TYR20       0.0417
     27  CZ        48.3710   79.2000   68.6520 C.ar   20  TYR20       0.1957
     28  OH        48.7010   78.1580   69.4750 O.3    20  TYR20      -0.2866
     29  N         47.6970   88.9420   61.8950 N.3    36  VAL36      -0.1245
     30  CA        47.5990   88.6190   63.3140 C.3    36  VAL36       0.1561
     31  C         46.5400   89.5990   63.8740 C.2    36  VAL36       0.2260
     32  O         46.6040   90.8010   63.5920 O.2    36  VAL36      -0.2867
     33  CB        48.9570   88.7380   64.0830 C.3    36  VAL36       0.0252
     34  CG1       48.7610   88.5650   65.5960 C.3    36  VAL36       0.0019
     35  CG2       49.9680   87.7270   63.5690 C.3    36  VAL36       0.0019
     36  N         45.5630   91.3370   66.8950 N.3    38  ASP38      -0.1239
     37  CA        46.4360   91.7060   67.9900 C.3    38  ASP38       0.1674
     38  C         45.8690   92.6670   69.0560 C.2    38  ASP38       0.2266
     39  O         45.7350   93.8560   68.7840 O.2    38  ASP38      -0.2867
     40  CB        47.6800   92.3090   67.3220 C.3    38  ASP38       0.1410
     41  CG        48.7920   92.7540   68.2200 C.2    38  ASP38       0.3668
     42  OD1       48.9070   92.2100   69.3450 O.co2  38  ASP38      -0.2456
     43  OD2       49.5720   93.6120   67.7910 O.co2  38  ASP38      -0.2456
     44  N         47.5460   93.6510   71.5680 N.3    40  GLY40      -0.1210
     45  CA        48.7130   94.4410   71.9570 C.3    40  GLY40       0.1956
     46  C         48.9830   95.6750   71.0970 C.2    40  GLY40       0.2612
     47  O         49.9340   96.3880   71.3650 O.2    40  GLY40      -0.2717
     48  N         48.1860   95.9390   70.0480 N.am   41  SER41      -0.1952
     49  CA        48.3680   97.1350   69.1950 C.3    41  SER41       0.1924
     50  C         47.0180   97.6010   68.6910 C.2    41  SER41       0.2314
     51  O         46.0400   96.8640   68.8520 O.2    41  SER41      -0.2863
     52  CB        49.3610   96.8810   68.0590 C.3    41  SER41       0.2116
     53  OG        48.8160   96.0540   67.0490 O.3    41  SER41      -0.2180
     54  N         57.3020   99.0500   67.7420 N.3    83  TYR83      -0.1227
     55  CA        56.8340   97.9400   68.5610 C.3    83  TYR83       0.1736
     56  C         57.9850   97.3600   69.3420 C.2    83  TYR83       0.2596
     57  O         59.1380   97.6480   69.0280 O.2    83  TYR83      -0.2718
     58  CB        56.2880   96.8280   67.6480 C.3    83  TYR83       0.0548
     59  CG        55.1180   97.1900   66.7550 C.ar   83  TYR83      -0.0200
     60  CD1       53.9200   97.6600   67.2950 C.ar   83  TYR83      -0.0009
     61  CD2       55.1440   96.8980   65.3910 C.ar   83  TYR83      -0.0009
     62  CE1       52.8170   97.9450   66.4820 C.ar   83  TYR83       0.0417
     63  CE2       54.0360   97.1500   64.5710 C.ar   83  TYR83       0.0417
     64  CZ        52.8750   97.6750   65.1200 C.ar   83  TYR83       0.1957
     65  OH        51.7700   97.9000   64.3230 O.3    83  TYR83      -0.2866
     66  N         57.6790   96.4490   70.2870 N.am   84  SER84      -0.1938
     67  CA        58.6630   95.7090   71.0820 C.3    84  SER84       0.2055
     68  C         59.5530   94.8610   70.1700 C.2    84  SER84       0.2643
     69  O         60.7310   94.6490   70.4900 O.2    84  SER84      -0.2714
     70  CB        57.9690   94.7840   72.0840 C.3    84  SER84       0.2130
     71  OG        57.1370   95.5060   72.9730 O.3    84  SER84      -0.2179
     72  N         58.9840   94.3660   69.0430 N.am   85  THR85      -0.1950
     73  CA        59.7120   93.5350   68.0890 C.3    85  THR85       0.1897
     74  C         60.5300   94.3570   67.0910 C.2    85  THR85       0.2313
     75  O         61.3570   93.7970   66.3780 O.2    85  THR85      -0.2863
     76  CB        58.7700   92.5680   67.3600 C.3    85  THR85       0.1794
     77  OG1       57.7550   93.3090   66.6790 O.3    85  THR85      -0.2208
     78  CG2       58.1800   91.5100   68.2810 C.3    85  THR85       0.0378
     79  N         61.9530   91.3660   62.5460 N.3   118  PRO118     -0.2102
     80  CA        61.4590   89.9800   62.5800 C.3   118  PRO118      0.1504
     81  C         60.5990   89.5040   61.3990 C.2   118  PRO118      0.2575
     82  O         60.1430   88.3590   61.4300 O.2   118  PRO118     -0.2718
     83  CB        60.5540   90.0180   63.8120 C.3   118  PRO118      0.0282
     84  CG        59.8930   91.3820   63.6900 C.3   118  PRO118      0.0208
     85  CD        60.9510   92.2970   63.1050 C.3   118  PRO118      0.0893
     86  N         60.3260   90.3530   60.3950 N.am  119  PHE119     -0.1977
     87  CA        59.3260   90.0260   59.3820 C.3   119  PHE119      0.1639
     88  C         59.6960   88.9160   58.3870 C.2   119  PHE119      0.2290
     89  O         58.7810   88.3680   57.7780 O.2   119  PHE119     -0.2864
     90  CB        58.8150   91.2870   58.6810 C.3   119  PHE119      0.0560
     91  CG        58.1100   92.1670   59.7010 C.ar  119  PHE119     -0.0200
     92  CD1       56.8800   91.7860   60.2490 C.ar  119  PHE119     -0.0042
     93  CD2       58.7270   93.3100   60.2010 C.ar  119  PHE119     -0.0042
     94  CE1       56.2790   92.5450   61.2650 C.ar  119  PHE119     -0.0003
     95  CE2       58.1220   94.0710   61.2140 C.ar  119  PHE119     -0.0003
     96  CZ        56.9020   93.6860   61.7370 C.ar  119  PHE119     -0.0000
     97  N         60.6630   86.1300   59.5090 N.3   121  LEU121     -0.1231
     98  CA        60.2450   85.0060   60.3610 C.3   121  LEU121      0.1693
     99  C         58.7280   84.9000   60.4080 C.2   121  LEU121      0.2591
    100  O         58.2210   83.8720   60.8600 O.2   121  LEU121     -0.2718
    101  CB        60.7280   85.1950   61.8160 C.3   121  LEU121      0.0284
    102  CG        62.2040   85.3930   62.0760 C.3   121  LEU121      0.0019
    103  CD1       62.4320   85.9730   63.4490 C.3   121  LEU121      0.0001
    104  CD2       62.8850   84.1330   62.0630 C.3   121  LEU121      0.0001
    105  N         58.0280   85.9950   60.0620 N.am  122  ALA122     -0.1980
    106  CA        56.5730   86.1210   60.0480 C.3   122  ALA122      0.1597
    107  C         55.9180   85.3940   58.8700 C.2   122  ALA122      0.2287
    108  O         56.2110   85.7210   57.7220 O.2   122  ALA122     -0.2864
    109  CB        56.1910   87.5910   60.0130 C.3   122  ALA122      0.0319
    110  N         52.6970   85.5080   58.4890 N.3   124  PHE124     -0.1241
    111  CA        51.5890   86.4150   58.1980 C.3   124  PHE124      0.1605
    112  C         52.1350   87.6040   57.4330 C.2   124  PHE124      0.2264
    113  O         53.3390   87.8220   57.4550 O.2   124  PHE124     -0.2867
    114  CB        50.9150   86.8650   59.5230 C.3   124  PHE124      0.0534
    115  CG        51.8480   87.4880   60.5410 C.ar  124  PHE124     -0.0203
    116  CD1       52.5480   86.6900   61.4560 C.ar  124  PHE124     -0.0042
    117  CD2       52.0110   88.8650   60.6020 C.ar  124  PHE124     -0.0042
    118  CE1       53.4040   87.2630   62.3960 C.ar  124  PHE124     -0.0003
    119  CE2       52.8730   89.4380   61.5370 C.ar  124  PHE124     -0.0003
    120  CZ        53.5480   88.6330   62.4380 C.ar  124  PHE124     -0.0000
    121  N         48.9670   93.1190   60.2490 N.3   127  VAL127     -0.1245
    122  CA        48.4030   93.1550   61.5900 C.3   127  VAL127      0.1561
    123  C         47.0510   93.8580   61.6330 C.2   127  VAL127      0.2260
    124  O         46.8690   94.9150   61.0280 O.2   127  VAL127     -0.2867
    125  CB        49.4130   93.8250   62.5970 C.3   127  VAL127      0.0252
    126  CG1       48.8030   93.9720   64.0010 C.3   127  VAL127      0.0019
    127  CG2       50.7400   93.0600   62.6770 C.3   127  VAL127      0.0019
    128  N         47.9190   89.8050   75.6390 N.3   224  ASP224     -0.1239
    129  CA        48.3800   90.0990   74.2800 C.3   224  ASP224      0.1674
    130  C         48.2790   88.9400   73.3030 C.2   224  ASP224      0.2266
    131  O         49.1320   88.0620   73.2900 O.2   224  ASP224     -0.2867
    132  CB        49.8320   90.6340   74.3550 C.3   224  ASP224      0.1410
    133  CG        50.3800   91.2460   73.0670 C.2   224  ASP224      0.3668
    134  OD1       49.6270   91.2970   72.0560 O.co2 224  ASP224     -0.2456
    135  OD2       51.5680   91.6600   73.0640 O.co2 224  ASP224     -0.2456
    136  N         48.8180   89.0370   70.1540 N.3   226  GLY226     -0.1210
    137  CA        49.9190   89.1800   69.2010 C.3   226  GLY226      0.1956
    138  C         51.2840   88.7270   69.7090 C.2   226  GLY226      0.2612
    139  O         52.2540   88.7830   68.9620 O.2   226  GLY226     -0.2717
    140  N         51.3900   88.2840   70.9890 N.am  227  ALA227     -0.1965
    141  CA        52.6400   87.7800   71.5630 C.3   227  ALA227      0.1728
    142  C         52.6100   86.2490   71.5350 C.2   227  ALA227      0.2617
    143  O         51.5580   85.6520   71.7590 O.2   227  ALA227     -0.2715
    144  CB        52.7880   88.2700   72.9970 C.3   227  ALA227      0.0334
    145  N         53.7580   85.6100   71.2920 N.am  228  SER228     -0.1936
    146  CA        53.8410   84.1500   71.2430 C.3   228  SER228      0.2055
    147  C         53.8520   83.5270   72.6410 C.2   228  SER228      0.2643
    148  O         53.1720   82.5460   72.8800 O.2   228  SER228     -0.2714
    149  CB        55.0980   83.7140   70.4880 C.3   228  SER228      0.2130
    150  OG        55.1530   84.2560   69.1800 O.3   228  SER228     -0.2179
    151  N         54.6660   84.0540   73.5460 N.am  229  TYR229     -0.1973
    152  CA        54.8470   83.4760   74.8650 C.3   229  TYR229      0.1639
    153  C         54.3010   84.3270   75.9780 C.2   229  TYR229      0.2290
    154  O         53.8450   85.4470   75.7560 O.2   229  TYR229     -0.2864
    155  CB        56.3550   83.2370   75.1030 C.3   229  TYR229      0.0560
    156  CG        57.0710   82.6840   73.8920 C.ar  229  TYR229     -0.0198
    157  CD1       56.7380   81.4350   73.3690 C.ar  229  TYR229     -0.0009
    158  CD2       58.0230   83.4410   73.2160 C.ar  229  TYR229     -0.0009
    159  CE1       57.3680   80.9350   72.2300 C.ar  229  TYR229      0.0417
    160  CE2       58.6650   82.9520   72.0760 C.ar  229  TYR229      0.0417
    161  CZ        58.3390   81.6940   71.5910 C.ar  229  TYR229      0.1957
    162  OH        58.9830   81.2050   70.4750 O.3   229  TYR229     -0.2866
    163  N         55.3950   86.5110   78.9550 N.3   231  SER231     -0.1217
    164  CA        56.6200   87.1990   79.2630 C.3   231  SER231      0.1889
    165  C         56.5260   87.8960   80.6040 C.2   231  SER231      0.2288
    166  O         55.4430   88.2770   81.0440 O.2   231  SER231     -0.2866
    167  CB        57.0200   88.1620   78.1490 C.3   231  SER231      0.2089
    168  OG        56.2150   89.3270   78.1490 O.3   231  SER231     -0.2183
    169  N         59.4100   83.5770   78.4290 N.3   299  HIS299     -0.1241
    170  CA        60.6750   84.2710   78.2070 C.3   299  HIS299      0.1621
    171  C         60.6850   85.6660   78.8610 C.2   299  HIS299      0.2264
    172  O         59.6620   86.1000   79.3950 O.2   299  HIS299     -0.2867
    173  CB        60.9790   84.3470   76.6900 C.3   299  HIS299      0.0745
    174  CG        60.1530   85.3410   75.9390 C.ar  299  HIS299      0.0817
    175  ND1       60.7030   86.1090   74.9240 N.ar  299  HIS299     -0.2268
    176  CD2       58.8500   85.6860   76.0910 C.ar  299  HIS299      0.1154
    177  CE1       59.7230   86.8830   74.4770 C.ar  299  HIS299      0.1986
    178  NE2       58.5880   86.6730   75.1550 N.ar  299  HIS299     -0.2212
    179  N         60.9480   89.8110   78.7070 N.3   301  MET301     -0.1245
    180  CA        60.5900   90.9180   77.8270 C.3   301  MET301      0.1570
    181  C         60.4040   92.1340   78.7140 C.2   301  MET301      0.2261
    182  O         59.5320   92.1340   79.5830 O.2   301  MET301     -0.2867
    183  CB        59.3490   90.6040   76.9550 C.3   301  MET301      0.0387
    184  CG        59.0910   91.5920   75.7990 C.3   301  MET301      0.0595
    185  SD        60.4220   91.9100   74.5930 S.3   301  MET301     -0.1393
    186  CE        61.0540   90.2330   74.2820 C.3   301  MET301      0.0692
    187  N         59.1360   95.5060   78.9350 N.3   303  ILE303     -0.1245
    188  CA        58.2660   96.4240   78.2070 C.3   303  ILE303      0.1561
    189  C         58.4210   97.8030   78.8360 C.2   303  ILE303      0.2260
    190  O         58.2570   97.9250   80.0460 O.2   303  ILE303     -0.2867
    191  CB        56.8030   95.9020   78.0940 C.3   303  ILE303      0.0252
    192  CG1       56.7920   94.5600   77.3000 C.3   303  ILE303      0.0019
    193  CG2       55.8900   96.9530   77.4270 C.3   303  ILE303      0.0019
    194  CD1       55.6810   93.6520   77.6230 C.3   303  ILE303      0.0001
@<TRIPOS>BOND
     1   112   113    2
     2   112   111    1
     3   108   107    2
     4    89    88    2
     5   111   110    1
     6   111   114    1
     7    88    87    1
     8    90    87    1
     9    90    91    1
    10   107   106    1
    11    87    86    1
    12    97    98    1
    13   114   115    1
    14    91    93   ar
    15    91    92   ar
    16   109   106    1
    17   106   105    1
    18   105    99   am
    19    93    95   ar
    20    92    94   ar
    21   121   122    1
    22    98    99    1
    23    98   101    1
    24    86    81   am
    25    99   100    2
    26   115   117   ar
    27   115   116   ar
    28   117   119   ar
    29   124   123    2
    30    95    96   ar
    31    94    96   ar
    32    81    82    2
    33    81    80    1
    34   116   118   ar
    35   119   120   ar
    36   122   123    1
    37   122   125    1
    38    15    14    2
    39   101   102    1
    40    29    30    1
    41   104   102    1
    42   102   103    1
    43   118   120   ar
    44    79    80    1
    45    79    85    1
    46    80    83    1
    47   125   127    1
    48   125   126    1
    49    14    16   am
    50    14    13    1
    51    85    84    1
    52    30    31    1
    53    30    33    1
    54    35    33    1
    55    32    31    2
    56    84    83    1
    57    12    13    1
    58    12     9    1
    59    19    20    2
    60    19    18    1
    61    33    34    1
    62    65    64    1
    63    11    10    2
    64    63    64   ar
    65    63    61   ar
    66    10    17   am
    67    10     9    1
    68    18    17    1
    69    18    21    1
    70    64    62   ar
    71     9     8    1
    72    61    59   ar
    73     8     3   am
    74    21    22    1
    75     6     5    1
    76    75    74    2
    77    62    60   ar
    78    77    76    1
    79    59    60   ar
    80    59    58    1
    81    36    37    1
    82    24    22   ar
    83    24    26   ar
    84    22    23   ar
    85    53    52    1
    86    74    73    1
    87     3     4    2
    88     3     2    1
    89    40    37    1
    90    40    41    1
    91    76    73    1
    92    76    78    1
    93    58    55    1
    94     5     2    1
    95     5     7    1
    96     1     2    1
    97    54    55    1
    98    43    41   ar
    99    26    27   ar
   100    23    25   ar
   101    37    38    1
   102    52    49    1
   103    73    72    1
   104    41    42   ar
   105    55    56    1
   106    27    25   ar
   107    27    28    1
   108    50    51    2
   109    50    49    1
   110    39    38    2
   111   139   138    2
   112    57    56    2
   113    72    68   am
   114   150   149    1
   115    49    48    1
   116   137   138    1
   117   137   136    1
   118    56    66   am
   119   138   140   am
   120    48    46   am
   121    68    69    2
   122    68    67    1
   123    66    67    1
   124   162   161    1
   125   149   146    1
   126   140   141    1
   127    67    70    1
   128    46    47    2
   129    46    45    1
   130   146   145    1
   131   146   147    1
   132   145   142   am
   133   142   141    1
   134   142   143    2
   135   141   144    1
   136    44    45    1
   137   161   160   ar
   138   161   159   ar
   139   134   133   ar
   140   160   158   ar
   141    70    71    1
   142   159   157   ar
   143   147   148    2
   144   147   151   am
   145   135   133   ar
   146   133   132    1
   147   158   156   ar
   148   131   130    2
   149   130   129    1
   150   157   156   ar
   151   151   152    1
   152   156   155    1
   153   129   132    1
   154   129   128    1
   155   186   185    1
   156   177   175   ar
   157   177   178   ar
   158   185   184    1
   159   152   155    1
   160   152   153    1
   161   175   174   ar
   162   178   176   ar
   163   154   153    2
   164   184   183    1
   165   174   176   ar
   166   174   173    1
   167   173   170    1
   168   183   180    1
   169   192   194    1
   170   192   191    1
   171   193   191    1
   172   180   179    1
   173   180   181    1
   174   191   188    1
   175   168   167    1
   176   167   164    1
   177   170   169    1
   178   170   171    1
   179   188   189    1
   180   188   187    1
   181   181   182    2
   182   189   190    2
   183   171   172    2
   184   163   164    1
   185   164   165    1
   186   165   166    2
