@<TRIPOS>MOLECULE
tmp/4s1hA00.pdb
 202 189 0 0 0
SMALL
GASTEIGER

@<TRIPOS>ATOM
      1  N         -9.9550   13.4660   -6.9670 N.3   111  ASP111     -0.1239
      2  CA        -9.3780   14.6760   -7.5440 C.3   111  ASP111      0.1674
      3  C         -7.9140   14.3790   -7.8240 C.2   111  ASP111      0.2266
      4  O         -7.0850   14.4500   -6.9250 O.2   111  ASP111     -0.2867
      5  CB        -9.4960   15.7940   -6.5070 C.3   111  ASP111      0.1410
      6  CG        -9.1690   17.1330   -7.0510 C.2   111  ASP111      0.3668
      7  OD1       -9.2580   17.3210   -8.2830 O.co2 111  ASP111     -0.2456
      8  OD2       -8.8970   18.0550   -6.2280 O.co2 111  ASP111     -0.2456
      9  N         -4.3160   14.9580   -8.5890 N.3   113  ILE113     -0.1245
     10  CA        -3.4140   16.1070   -8.5040 C.3   113  ILE113      0.1561
     11  C         -2.0920   15.6790   -9.0960 C.2   113  ILE113      0.2260
     12  O         -1.2950   14.9820   -8.4790 O.2   113  ILE113     -0.2867
     13  CB        -3.1950   16.6040   -7.0610 C.3   113  ILE113      0.0252
     14  CG1       -4.5340   16.7680   -6.3470 C.3   113  ILE113      0.0019
     15  CG2       -2.3930   17.8990   -7.0670 C.3   113  ILE113      0.0019
     16  CD1       -5.4980   17.7190   -7.0160 C.3   113  ILE113      0.0001
     17  N         -0.1840   21.0620  -13.8710 N.3   116  ASP116     -0.1239
     18  CA        -0.9270   22.1430  -14.4900 C.3   116  ASP116      0.1674
     19  C         -0.0470   22.7990  -15.5350 C.2   116  ASP116      0.2266
     20  O          1.1790   22.6320  -15.5330 O.2   116  ASP116     -0.2867
     21  CB        -1.3460   23.1730  -13.4300 C.3   116  ASP116      0.1410
     22  CG        -2.5960   23.9500  -13.8170 C.2   116  ASP116      0.3668
     23  OD1       -3.0650   23.8300  -14.9820 O.co2 116  ASP116     -0.2456
     24  OD2       -3.1380   24.6560  -12.9270 O.co2 116  ASP116     -0.2456
     25  N          3.6480   17.8220  -11.5040 N.3   121  TYR121     -0.1241
     26  CA         4.0050   18.0730  -10.1250 C.3   121  TYR121      0.1605
     27  C          4.6420   16.8030   -9.6240 C.2   121  TYR121      0.2264
     28  O          5.5920   16.7940   -8.8690 O.2   121  TYR121     -0.2867
     29  CB         2.7330   18.2390   -9.2870 C.3   121  TYR121      0.0534
     30  CG         1.8760   19.4560   -9.5190 C.ar  121  TYR121     -0.0201
     31  CD1        2.4050   20.5880  -10.0510 C.ar  121  TYR121     -0.0009
     32  CD2        0.5320   19.4580   -9.1800 C.ar  121  TYR121     -0.0009
     33  CE1        1.6700   21.6420  -10.2700 C.ar  121  TYR121      0.0417
     34  CE2       -0.2270   20.5420   -9.3970 C.ar  121  TYR121      0.0417
     35  CZ         0.3710   21.6460   -9.9400 C.ar  121  TYR121      0.1957
     36  OH        -0.3020   22.7750  -10.2060 O.3   121  TYR121     -0.2866
     37  N        -12.2410   14.9990  -11.0120 N.3   141  THR141     -0.1218
     38  CA       -12.1610   16.4700  -11.1990 C.3   141  THR141      0.1862
     39  C        -10.7770   16.9670  -11.6470 C.2   141  THR141      0.2287
     40  O        -10.1720   17.8460  -10.9790 O.2   141  THR141     -0.2866
     41  CB       -12.6010   17.1940   -9.9130 C.3   141  THR141      0.1770
     42  OG1      -11.7880   16.7340   -8.8340 O.3   141  THR141     -0.2211
     43  CG2      -14.0360   16.8990   -9.5610 C.3   141  THR141      0.0375
     44  N         -7.9850   19.0240  -13.9350 N.3   143  ASN143     -0.1240
     45  CA        -7.8030   20.0670  -14.9290 C.3   143  ASN143      0.1653
     46  C         -7.3970   19.4520  -16.2920 C.2   143  ASN143      0.2266
     47  O         -7.2150   18.2250  -16.4190 O.2   143  ASN143     -0.2867
     48  CB        -6.8230   21.1560  -14.4360 C.3   143  ASN143      0.1155
     49  CG        -5.4000   20.6520  -14.2800 C.2   143  ASN143      0.2627
     50  OD1       -4.9780   19.7080  -14.9520 O.2   143  ASN143     -0.2716
     51  ND2       -4.6530   21.2690  -13.3630 N.am  143  ASN143     -0.0877
     52  N         -4.1140   17.4040  -16.2670 N.3   146  GLU146     -0.1245
     53  CA        -4.2730   16.1480  -15.5640 C.3   146  GLU146      0.1567
     54  C         -5.0160   15.1440  -16.4350 C.2   146  GLU146      0.2260
     55  O         -4.5880   13.9840  -16.5240 O.2   146  GLU146     -0.2867
     56  CB        -4.9010   16.3630  -14.1900 C.3   146  GLU146      0.0388
     57  CG        -3.9270   17.0950  -13.2990 C.3   146  GLU146      0.1160
     58  CD        -4.5430   17.8590  -12.1660 C.2   146  GLU146      0.3649
     59  OE1       -5.7670   18.1420  -12.2130 O.co2 146  GLU146     -0.2457
     60  OE2       -3.7540   18.1500  -11.2250 O.co2 146  GLU146     -0.2457
     61  N        -11.9550   20.7430  -15.0660 N.3   179  THR179     -0.1203
     62  CA       -12.1800   21.9680  -14.2650 C.3   179  THR179      0.1994
     63  C        -11.6660   23.2110  -14.9740 C.2   179  THR179      0.2618
     64  O        -12.0450   24.3340  -14.6080 O.2   179  THR179     -0.2717
     65  CB       -11.5500   21.8720  -12.8560 C.3   179  THR179      0.1784
     66  OG1      -10.1430   21.6250  -12.9230 O.3   179  THR179     -0.2211
     67  CG2      -12.1940   20.7510  -12.0710 C.3   179  THR179      0.0376
     68  N        -10.7450   23.0290  -15.9060 N.am  180  SER180     -0.1951
     69  CA       -10.2040   24.1540  -16.6480 C.3   180  SER180      0.1924
     70  C         -9.6080   23.7120  -17.9510 C.2   180  SER180      0.2314
     71  O         -8.7630   22.8150  -17.9890 O.2   180  SER180     -0.2863
     72  CB        -9.1420   24.9440  -15.8560 C.3   180  SER180      0.2116
     73  OG        -8.0730   24.1540  -15.3950 O.3   180  SER180     -0.2180
     74  N        -11.7030   30.4360  -19.2570 N.3   187  ILE187     -0.1245
     75  CA       -11.5100   29.0850  -18.8080 C.3   187  ILE187      0.1561
     76  C        -12.8340   28.3970  -19.1050 C.2   187  ILE187      0.2260
     77  O        -13.8900   28.8540  -18.6370 O.2   187  ILE187     -0.2867
     78  CB       -11.2330   29.1150  -17.2740 C.3   187  ILE187      0.0252
     79  CG1       -9.8540   29.7510  -17.0080 C.3   187  ILE187      0.0019
     80  CG2      -11.3320   27.7250  -16.6480 C.3   187  ILE187      0.0019
     81  CD1       -9.6050   30.0450  -15.5350 C.3   187  ILE187      0.0001
     82  N        -15.8780   30.7510  -17.9370 N.3   206  ILE206     -0.1231
     83  CA       -15.4450   31.5520  -16.7890 C.3   206  ILE206      0.1678
     84  C        -14.3800   32.5620  -17.2460 C.2   206  ILE206      0.2434
     85  O        -13.3610   32.1510  -17.7710 O.2   206  ILE206     -0.2733
     86  CB       -14.8180   30.6440  -15.7340 C.3   206  ILE206      0.0265
     87  CG1      -15.8480   29.5930  -15.2810 C.3   206  ILE206      0.0019
     88  CG2      -14.3060   31.4590  -14.5450 C.3   206  ILE206      0.0020
     89  CD1      -15.2470   28.2470  -14.9280 C.3   206  ILE206      0.0001
     90  N        -14.5980   33.8710  -17.0050 N.am  207  PRO207     -0.2718
     91  CA       -13.5560   34.8430  -17.4050 C.3   207  PRO207      0.1535
     92  C        -12.3340   34.6650  -16.5560 C.2   207  PRO207      0.2598
     93  O        -12.4820   34.4830  -15.3430 O.2   207  PRO207     -0.2715
     94  CB       -14.2050   36.2040  -17.1240 C.3   207  PRO207      0.0310
     95  CG       -15.6730   35.9480  -17.1310 C.3   207  PRO207      0.0237
     96  CD       -15.8440   34.5490  -16.5840 C.3   207  PRO207      0.0939
     97  N        -11.1530   34.6460  -17.1610 N.am  208  ARG208     -0.1964
     98  CA        -9.9310   34.4600  -16.3790 C.3   208  ARG208      0.1729
     99  C         -9.6450   35.7120  -15.5520 C.2   208  ARG208      0.2616
    100  O         -9.7340   36.8280  -16.0620 O.2   208  ARG208     -0.2715
    101  CB        -8.7220   34.1560  -17.2710 C.3   208  ARG208      0.0348
    102  CG        -7.5210   33.6730  -16.4540 C.3   208  ARG208      0.0492
    103  CD        -6.2660   33.5220  -17.3320 C.3   208  ARG208      0.2205
    104  NE        -6.2230   32.2630  -18.0620 N.pl3 208  ARG208     -0.0865
    105  CZ        -6.0670   31.0640  -17.5020 C.cat 208  ARG208      0.5346
    106  NH1       -5.9600   30.9260  -16.1800 N.pl3 208  ARG208      0.1354
    107  NH2       -6.0320   29.9810  -18.2730 N.pl3 208  ARG208      0.1354
    108  N         -9.3090   35.5110  -14.2890 N.am  209  ILE209     -0.1977
    109  CA        -8.8190   36.5600  -13.4090 C.3   209  ILE209      0.1596
    110  C         -7.3010   36.4370  -13.4480 C.2   209  ILE209      0.2287
    111  O         -6.7690   35.3350  -13.3620 O.2   209  ILE209     -0.2864
    112  CB        -9.3380   36.3600  -11.9670 C.3   209  ILE209      0.0276
    113  CG1      -10.8660   36.4950  -11.9300 C.3   209  ILE209      0.0022
    114  CG2       -8.6630   37.3440  -11.0230 C.3   209  ILE209      0.0022
    115  CD1      -11.5080   36.0740  -10.6230 C.3   209  ILE209      0.0001
    116  N         -3.5300   35.9890  -12.7810 N.3   211  GLY211     -0.1210
    117  CA        -2.8080   35.2390  -11.7460 C.3   211  GLY211      0.1956
    118  C         -2.9040   33.7480  -11.9890 C.2   211  GLY211      0.2612
    119  O         -3.9090   33.2720  -12.5410 O.2   211  GLY211     -0.2717
    120  N         -1.8700   33.0090  -11.5660 N.am  212  ASP212     -0.1959
    121  CA        -1.9870   31.5430  -11.3920 C.3   212  ASP212      0.1840
    122  C         -2.0770   31.2790   -9.8800 C.2   212  ASP212      0.2622
    123  O         -1.1610   31.6020   -9.1100 O.2   212  ASP212     -0.2715
    124  CB        -0.8920   30.6810  -12.0560 C.3   212  ASP212      0.1450
    125  CG        -1.3840   29.2490  -12.4020 C.2   212  ASP212      0.3671
    126  OD1       -2.2970   29.0860  -13.2430 O.co2 212  ASP212     -0.2456
    127  OD2       -0.8460   28.2700  -11.8410 O.co2 212  ASP212     -0.2456
    128  N         -3.2120   30.7110   -9.4770 N.am  213  PHE213     -0.1974
    129  CA        -3.5600   30.5630   -8.0670 C.3   213  PHE213      0.1639
    130  C         -3.2810   29.1280   -7.6520 C.2   213  PHE213      0.2290
    131  O         -3.3120   28.1980   -8.4810 O.2   213  PHE213     -0.2864
    132  CB        -5.0450   30.9110   -7.8530 C.3   213  PHE213      0.0560
    133  CG        -5.3660   32.3570   -8.1150 C.ar  213  PHE213     -0.0200
    134  CD1       -5.1070   33.3360   -7.1360 C.ar  213  PHE213     -0.0042
    135  CD2       -5.9040   32.7600   -9.3390 C.ar  213  PHE213     -0.0042
    136  CE1       -5.4040   34.6620   -7.3690 C.ar  213  PHE213     -0.0003
    137  CE2       -6.1880   34.0930   -9.5800 C.ar  213  PHE213     -0.0003
    138  CZ        -5.9320   35.0510   -8.6020 C.ar  213  PHE213     -0.0000
    139  N         -4.2240   26.0380   -4.8290 N.3   215  GLY215     -0.1210
    140  CA        -5.3570   25.5510   -4.0260 C.3   215  GLY215      0.1956
    141  C         -6.7530   25.7760   -4.5880 C.2   215  GLY215      0.2612
    142  O         -7.7620   25.4920   -3.9250 O.2   215  GLY215     -0.2717
    143  N         -6.8460   26.2950   -5.8020 N.am  216  VAL216     -0.1965
    144  CA        -8.1710   26.6120   -6.3570 C.3   216  VAL216      0.1727
    145  C         -8.9520   25.3700   -6.7550 C.2   216  VAL216      0.2617
    146  O        -10.1530   25.2510   -6.4950 O.2   216  VAL216     -0.2715
    147  CB        -8.1020   27.6210   -7.5300 C.3   216  VAL216      0.0290
    148  CG1       -7.9420   29.0150   -6.9860 C.3   216  VAL216      0.0023
    149  CG2       -6.9800   27.3080   -8.5280 C.3   216  VAL216      0.0023
    150  N         -8.2760   24.4190   -7.3860 N.am  217  GLY217     -0.1940
    151  CA        -8.8910   23.1530   -7.6950 C.3   217  GLY217      0.2014
    152  C         -9.3160   22.3950   -6.4660 C.2   217  GLY217      0.2638
    153  O        -10.3550   21.7560   -6.4600 O.2   217  GLY217     -0.2714
    154  N         -8.4850   22.4440   -5.4310 N.am  218  ASP218     -0.1971
    155  CA        -8.8450   21.8000   -4.1690 C.3   218  ASP218      0.1709
    156  C        -10.1070   22.4410   -3.5690 C.2   218  ASP218      0.2293
    157  O        -11.0130   21.7440   -3.1050 O.2   218  ASP218     -0.2864
    158  CB        -7.6570   21.8870   -3.1780 C.3   218  ASP218      0.1436
    159  CG        -6.3610   21.2750   -3.7510 C.2   218  ASP218      0.3671
    160  OD1       -6.4630   20.3900   -4.6540 O.co2 218  ASP218     -0.2456
    161  OD2       -5.2460   21.6820   -3.3080 O.co2 218  ASP218     -0.2456
    162  N        -12.4420   24.1320   -5.1520 N.3   220  LEU220     -0.1245
    163  CA       -13.5800   23.6810   -5.9660 C.3   220  LEU220      0.1561
    164  C        -14.0970   22.2960   -5.5480 C.2   220  LEU220      0.2260
    165  O        -15.3150   22.0990   -5.3810 O.2   220  LEU220     -0.2867
    166  CB       -13.2400   23.6600   -7.4800 C.3   220  LEU220      0.0270
    167  CG       -14.3000   23.0710   -8.4500 C.3   220  LEU220      0.0019
    168  CD1      -15.6290   23.7900   -8.3390 C.3   220  LEU220      0.0001
    169  CD2      -13.7750   23.0950   -9.8650 C.3   220  LEU220      0.0001
    170  N        -18.3770   27.0540   -8.5290 N.3   242  ILE242     -0.1245
    171  CA       -17.6140   27.9320   -9.4050 C.3   242  ILE242      0.1561
    172  C        -17.9040   29.3890   -9.0840 C.2   242  ILE242      0.2260
    173  O        -17.0000   30.2210   -9.1050 O.2   242  ILE242     -0.2867
    174  CB       -17.9360   27.6250  -10.8930 C.3   242  ILE242      0.0252
    175  CG1      -17.4540   26.2000  -11.2040 C.3   242  ILE242      0.0019
    176  CG2      -17.4210   28.7060  -11.8530 C.3   242  ILE242      0.0019
    177  CD1      -15.9980   26.0080  -11.5140 C.3   242  ILE242      0.0001
    178  N        -16.1490   30.2710   -5.8460 N.3   245  LEU245     -0.1231
    179  CA       -14.7190   30.4150   -6.1480 C.3   245  LEU245      0.1693
    180  C        -14.3800   31.7450   -6.8210 C.2   245  LEU245      0.2591
    181  O        -13.3500   32.3630   -6.5040 O.2   245  LEU245     -0.2718
    182  CB       -14.2500   29.2390   -7.0020 C.3   245  LEU245      0.0284
    183  CG       -12.7710   28.8520   -7.0760 C.3   245  LEU245      0.0019
    184  CD1      -11.9680   29.0450   -5.8030 C.3   245  LEU245      0.0001
    185  CD2      -12.6970   27.3940   -7.5100 C.3   245  LEU245      0.0001
    186  N        -15.2180   32.2250   -7.7510 N.am  246  GLN246     -0.1979
    187  CA       -14.9860   33.5450   -8.3530 C.3   246  GLN246      0.1601
    188  C        -14.9900   34.6230   -7.3000 C.2   246  GLN246      0.2287
    189  O        -14.1370   35.5040   -7.2880 O.2   246  GLN246     -0.2864
    190  CB       -16.0230   33.8900   -9.4380 C.3   246  GLN246      0.0394
    191  CG       -15.7940   33.2150  -10.7640 C.3   246  GLN246      0.0908
    192  CD       -14.4300   33.5430  -11.3800 C.2   246  GLN246      0.2608
    193  OE1      -13.4700   32.7970  -11.2700 O.2   246  GLN246     -0.2717
    194  NE2      -14.3480   34.7040  -12.0160 N.am  246  GLN246     -0.0878
    195  N        -11.6580   34.4470   -5.4240 N.3   249  LEU249     -0.1245
    196  CA       -10.5450   34.9670   -6.2180 C.3   249  LEU249      0.1561
    197  C        -10.5830   36.4760   -6.4390 C.2   249  LEU249      0.2260
    198  O         -9.5460   37.1460   -6.3760 O.2   249  LEU249     -0.2867
    199  CB       -10.4840   34.2610   -7.5590 C.3   249  LEU249      0.0270
    200  CG       -10.1530   32.8020   -7.3970 C.3   249  LEU249      0.0019
    201  CD1      -10.1900   32.1740   -8.7540 C.3   249  LEU249      0.0001
    202  CD2       -8.7760   32.5850   -6.7770 C.3   249  LEU249      0.0001
@<TRIPOS>BOND
     1    74    75    1
     2    76    75    1
     3    76    77    2
     4    75    78    1
     5   107   105    1
     6   104   105    2
     7   104   103    1
     8    71    70    2
     9    70    69    1
    10    82    83    1
    11    85    84    2
    12   105   106    1
    13    91    94    1
    14    91    90    1
    15    91    92    1
    16   103   102    1
    17    78    79    1
    18    78    80    1
    19   101   102    1
    20   101    98    1
    21    84    90   am
    22    84    83    1
    23    97    92   am
    24    97    98    1
    25    95    94    1
    26    95    96    1
    27    79    81    1
    28    90    96    1
    29    83    86    1
    30    69    68    1
    31    69    72    1
    32    92    93    2
    33    55    54    2
    34    54    53    1
    35    47    46    2
    36    98    99    1
    37    46    45    1
    38    52    53    1
    39   100    99    2
    40    68    63   am
    41    72    73    1
    42    86    87    1
    43    86    88    1
    44    53    56    1
    45    99   108   am
    46    19    20    2
    47    19    18    1
    48    87    89    1
    49    61    62    1
    50    23    22   ar
    51    63    64    2
    52    63    62    1
    53    50    49    2
    54    45    48    1
    55    45    44    1
    56    18    17    1
    57    18    21    1
    58    48    49    1
    59   108   109    1
    60    49    51   am
    61    62    65    1
    62    56    57    1
    63    22    21    1
    64    22    24   ar
    65   110   109    1
    66   110   111    2
    67   109   112    1
    68    57    58    1
    69   126   125   ar
    70    66    65    1
    71    65    67    1
    72   116   117    1
    73   119   118    2
    74   125   124    1
    75   125   127   ar
    76    59    58   ar
    77    58    60   ar
    78   124   121    1
    79   194   192   am
    80   118   117    1
    81   118   120   am
    82   112   113    1
    83   112   114    1
    84   113   115    1
    85   176   174    1
    86    39    38    1
    87    39    40    2
    88   120   121    1
    89   177   175    1
    90    25    26    1
    91   121   122    1
    92   192   193    2
    93   192   191    1
    94   175   174    1
    95    38    37    1
    96    38    41    1
    97   174   171    1
    98   191   190    1
    99    33    31   ar
   100    33    35   ar
   101    36    35    1
   102    26    27    1
   103    26    29    1
   104    31    30   ar
   105    35    34   ar
   106    41    43    1
   107    41    42    1
   108   122   128   am
   109   122   123    2
   110   169   167    1
   111    27    28    2
   112   137   135   ar
   113   137   138   ar
   114    30    29    1
   115    30    32   ar
   116   128   129    1
   117   190   187    1
   118   171   172    1
   119   171   170    1
   120    34    32   ar
   121   135   133   ar
   122   173   172    2
   123    11    10    1
   124    11    12    2
   125   201   200    1
   126   138   136   ar
   127     9    10    1
   128   149   147    1
   129    10    13    1
   130   131   130    2
   131   167   168    1
   132   167   166    1
   133   187   186    1
   134   187   188    1
   135     7     6   ar
   136   133   132    1
   137   133   134   ar
   138   129   132    1
   139   129   130    1
   140     3     2    1
   141     3     4    2
   142   186   180   am
   143   151   150    1
   144   151   152    1
   145   199   200    1
   146   199   196    1
   147     2     1    1
   148     2     5    1
   149   147   148    1
   150   147   144    1
   151   185   183    1
   152   166   163    1
   153   200   202    1
   154   150   145   am
   155   136   134   ar
   156   188   189    2
   157   183   182    1
   158   183   184    1
   159    15    13    1
   160    13    14    1
   161     6     5    1
   162     6     8   ar
   163    16    14    1
   164   182   179    1
   165   180   181    2
   166   180   179    1
   167   145   146    2
   168   145   144    1
   169   152   153    2
   170   152   154   am
   171   197   198    2
   172   197   196    1
   173   144   143    1
   174   196   195    1
   175   179   178    1
   176   163   164    1
   177   163   162    1
   178   143   141   am
   179   164   165    2
   180   154   155    1
   181   139   140    1
   182   160   159   ar
   183   141   140    1
   184   141   142    2
   185   155   156    1
   186   155   158    1
   187   159   161   ar
   188   159   158    1
   189   156   157    2
