@<TRIPOS>MOLECULE
tmp/4s1iB00.pdb
 104 97 0 0 0
SMALL
GASTEIGER

@<TRIPOS>ATOM
      1  N         23.8780  -35.3150   -8.1330 N.3    10  SER10      -0.1217
      2  CA        24.9580  -34.3770   -8.4160 C.3    10  SER10       0.1889
      3  C         24.6700  -33.4770   -9.5710 C.2    10  SER10       0.2288
      4  O         23.7970  -33.7340  -10.3890 O.2    10  SER10      -0.2866
      5  CB        26.2210  -35.1560   -8.5860 C.3    10  SER10       0.2089
      6  OG        26.0300  -36.0620   -9.6990 O.3    10  SER10      -0.2183
      7  N         26.9060  -31.0380  -12.4980 N.3    12  VAL12      -0.1245
      8  CA        28.1930  -30.5640  -13.1140 C.3    12  VAL12       0.1561
      9  C         27.7530  -29.4940  -14.1210 C.2    12  VAL12       0.2260
     10  O         26.7890  -29.6120  -14.9100 O.2    12  VAL12      -0.2867
     11  CB        28.9870  -31.6940  -13.8340 C.3    12  VAL12       0.0252
     12  CG1       29.4070  -32.7020  -12.7830 C.3    12  VAL12       0.0019
     13  CG2       28.1970  -32.4220  -14.8870 C.3    12  VAL12       0.0019
     14  N         26.3220  -36.0140  -16.0760 N.3    17  VAL17      -0.1231
     15  CA        26.2420  -37.0420  -15.0440 C.3    17  VAL17       0.1692
     16  C         25.1920  -36.5870  -14.1030 C.2    17  VAL17       0.2592
     17  O         24.7740  -35.4280  -14.1090 O.2    17  VAL17      -0.2718
     18  CB        27.5820  -37.3340  -14.2850 C.3    17  VAL17       0.0266
     19  CG1       28.7050  -37.8390  -15.1980 C.3    17  VAL17       0.0020
     20  CG2       28.0580  -36.0590  -13.5440 C.3    17  VAL17       0.0020
     21  N         24.7320  -37.5390  -13.3110 N.am   18  GLY18      -0.1957
     22  CA        23.8270  -37.2590  -12.2190 C.3    18  GLY18       0.1869
     23  C         22.6300  -36.4650  -12.5910 C.2    18  GLY18       0.2309
     24  O         21.9160  -36.8580  -13.5810 O.2    18  GLY18      -0.2863
     25  N         29.5780  -28.6450   -9.2460 N.3    41  LEU41      -0.1245
     26  CA        30.9370  -28.8740   -9.7070 C.3    41  LEU41       0.1561
     27  C         31.0980  -28.3350  -11.0940 C.2    41  LEU41       0.2260
     28  O         30.1460  -28.3140  -11.8800 O.2    41  LEU41      -0.2867
     29  CB        31.3040  -30.3710   -9.6940 C.3    41  LEU41       0.0270
     30  CG        31.1030  -31.1340   -8.3950 C.3    41  LEU41       0.0019
     31  CD1       31.4470  -32.5720   -8.6020 C.3    41  LEU41       0.0001
     32  CD2       31.9060  -30.4870   -7.3040 C.3    41  LEU41       0.0001
     33  N         32.8350  -33.4090  -14.1550 N.3    44  HIS44      -0.1226
     34  CA        32.8440  -34.6190  -13.3850 C.3    44  HIS44       0.1752
     35  C         34.2310  -34.8980  -12.7570 C.2    44  HIS44       0.2597
     36  O         35.2350  -34.2580  -13.0470 O.2    44  HIS44      -0.2718
     37  CB        32.2530  -35.7920  -14.1100 C.3    44  HIS44       0.0759
     38  CG        33.0440  -36.2800  -15.2730 C.ar   44  HIS44       0.0818
     39  ND1       34.3290  -36.7620  -15.1630 N.ar   44  HIS44      -0.2268
     40  CD2       32.7440  -36.2920  -16.5860 C.ar   44  HIS44       0.1154
     41  CE1       34.7910  -37.0770  -16.3560 C.ar   44  HIS44       0.1986
     42  NE2       33.8070  -36.8800  -17.2110 N.ar   44  HIS44      -0.2212
     43  N         34.2390  -35.8910  -11.8810 N.am   45  THR45      -0.1939
     44  CA        35.4510  -36.1950  -11.1230 C.3    45  THR45       0.2028
     45  C         36.5900  -36.9250  -11.8170 C.2    45  THR45       0.2642
     46  O         37.6120  -37.1630  -11.2260 O.2    45  THR45      -0.2714
     47  CB        35.0750  -36.9580   -9.8080 C.3    45  THR45       0.1808
     48  OG1       34.3800  -38.1770  -10.0970 O.3    45  THR45      -0.2208
     49  CG2       34.1300  -36.1150   -8.9430 C.3    45  THR45       0.0379
     50  N         36.3820  -37.3230  -13.0610 N.am   46  GLY46      -0.1954
     51  CA        37.3850  -37.8620  -13.9050 C.3    46  GLY46       0.1869
     52  C         38.4060  -36.9180  -14.4310 C.2    46  GLY46       0.2309
     53  O         39.4530  -37.3890  -14.9410 O.2    46  GLY46      -0.2863
     54  N         23.9820  -39.5610   -6.7540 N.3    83  TYR83      -0.1241
     55  CA        25.3430  -39.2920   -6.1680 C.3    83  TYR83       0.1605
     56  C         25.2800  -38.3430   -5.0260 C.2    83  TYR83       0.2264
     57  O         24.6340  -37.2810   -5.0770 O.2    83  TYR83      -0.2867
     58  CB        26.1810  -38.7010   -7.2540 C.3    83  TYR83       0.0534
     59  CG        27.6460  -38.4140   -6.8630 C.ar   83  TYR83      -0.0201
     60  CD1       27.9430  -37.2680   -6.2950 C.ar   83  TYR83      -0.0009
     61  CD2       28.6600  -39.2160   -7.3470 C.ar   83  TYR83      -0.0009
     62  CE1       29.2480  -36.9250   -5.9500 C.ar   83  TYR83       0.0417
     63  CE2       29.9570  -38.8900   -7.0510 C.ar   83  TYR83       0.0417
     64  CZ        30.2430  -37.7350   -6.3670 C.ar   83  TYR83       0.1957
     65  OH        31.5700  -37.4790   -6.1320 O.3    83  TYR83      -0.2866
     66  N         24.9880  -44.9080   -6.1280 N.3   113  ILE113     -0.1245
     67  CA        26.0840  -44.5360   -6.9600 C.3   113  ILE113      0.1561
     68  C         27.2910  -44.5380   -6.0210 C.2   113  ILE113      0.2260
     69  O         27.3900  -43.6510   -5.1500 O.2   113  ILE113     -0.2867
     70  CB        25.9200  -43.1730   -7.6850 C.3   113  ILE113      0.0252
     71  CG1       24.7360  -43.2350   -8.6880 C.3   113  ILE113      0.0019
     72  CG2       27.2450  -42.8070   -8.3500 C.3   113  ILE113      0.0019
     73  CD1       24.4480  -41.9110   -9.3590 C.3   113  ILE113      0.0001
     74  N         34.3910  -44.4430   -6.5200 N.3   121  TYR121     -0.1241
     75  CA        34.6710  -43.0110   -6.7570 C.3   121  TYR121      0.1605
     76  C         33.8180  -42.1550   -5.8340 C.2   121  TYR121      0.2264
     77  O         33.4230  -41.0380   -6.1920 O.2   121  TYR121     -0.2867
     78  CB        34.4900  -42.6510   -8.2560 C.3   121  TYR121      0.0534
     79  CG        33.2130  -43.1070   -8.9820 C.ar  121  TYR121     -0.0201
     80  CD1       31.9940  -42.5190   -8.7020 C.ar  121  TYR121     -0.0009
     81  CD2       33.2730  -44.1560   -9.9380 C.ar  121  TYR121     -0.0009
     82  CE1       30.8380  -42.8730   -9.4000 C.ar  121  TYR121      0.0417
     83  CE2       32.1000  -44.5540  -10.6040 C.ar  121  TYR121      0.0417
     84  CZ        30.9060  -43.9160  -10.3400 C.ar  121  TYR121      0.1957
     85  OH        29.7340  -44.3250  -11.0450 O.3   121  TYR121     -0.2866
     86  N         31.2170  -42.7980  -19.3980 N.3   209  THR209     -0.1203
     87  CA        30.8030  -41.7140  -18.5230 C.3   209  THR209      0.1994
     88  C         29.3570  -41.3230  -18.8390 C.2   209  THR209      0.2618
     89  O         29.0160  -41.1050  -20.0010 O.2   209  THR209     -0.2717
     90  CB        31.5990  -40.4340  -18.7760 C.3   209  THR209      0.1784
     91  OG1       32.9520  -40.7510  -18.5950 O.3   209  THR209     -0.2211
     92  CG2       31.1740  -39.3240  -17.8070 C.3   209  THR209      0.0376
     93  N         28.5460  -41.3280  -17.8080 N.am  210  GLY210     -0.1956
     94  CA        27.0940  -40.9130  -17.9180 C.3   210  GLY210      0.1869
     95  C         26.1860  -42.0240  -18.4370 C.2   210  GLY210      0.2309
     96  O         24.9450  -41.8570  -18.4130 O.2   210  GLY210     -0.2863
     97  N         23.7990  -43.2790  -15.4460 N.3   213  ASP213     -0.1239
     98  CA        22.8190  -42.2930  -15.1320 C.3   213  ASP213      0.1674
     99  C         21.7660  -42.1540  -16.2220 C.2   213  ASP213      0.2266
    100  O         20.5560  -41.9580  -15.9130 O.2   213  ASP213     -0.2867
    101  CB        23.5280  -40.9670  -14.8830 C.3   213  ASP213      0.1410
    102  CG        24.4410  -41.0250  -13.6700 C.2   213  ASP213      0.3668
    103  OD1       24.1880  -41.8860  -12.7990 O.co2 213  ASP213     -0.2456
    104  OD2       25.4700  -40.2960  -13.6830 O.co2 213  ASP213     -0.2456
@<TRIPOS>BOND
     1    89    88    2
     2    86    87    1
     3    88    87    1
     4    88    93   am
     5    90    91    1
     6    90    87    1
     7    90    92    1
     8    95    96    2
     9    95    94    1
    10    94    93    1
    11    42    40   ar
    12    42    41   ar
    13    40    38   ar
    14    41    39   ar
    15    99   100    2
    16    99    98    1
    17    14    15    1
    18    97    98    1
    19    38    39   ar
    20    38    37    1
    21    19    18    1
    22    98   101    1
    23    15    18    1
    24    15    16    1
    25    53    52    2
    26    10     9    2
    27    13    11    1
    28   101   102    1
    29    52    51    1
    30    18    20    1
    31    33    34    1
    32     9     8    1
    33    37    34    1
    34    17    16    2
    35    16    21   am
    36    51    50    1
    37    11     8    1
    38    11    12    1
    39   104   102   ar
    40   102   103   ar
    41    24    23    2
    42    34    35    1
    43    21    22    1
    44     8     7    1
    45    50    45   am
    46    36    35    2
    47    35    43   am
    48    23    22    1
    49    43    44    1
    50    28    27    2
    51    45    46    2
    52    45    44    1
    53    44    47    1
    54    27    26    1
    55    85    84    1
    56    83    84   ar
    57    83    81   ar
    58     4     3    2
    59    84    82   ar
    60    48    47    1
    61    81    79   ar
    62    47    49    1
    63    26    29    1
    64    26    25    1
    65     6     5    1
    66    29    30    1
    67     3     2    1
    68    82    80   ar
    69    73    71    1
    70    79    80   ar
    71    79    78    1
    72    71    70    1
    73    31    30    1
    74     5     2    1
    75     2     1    1
    76    30    32    1
    77    72    70    1
    78    78    75    1
    79    70    67    1
    80    61    63   ar
    81    61    59   ar
    82    58    59    1
    83    58    55    1
    84    63    64   ar
    85    67    66    1
    86    67    68    1
    87    59    60   ar
    88    75    74    1
    89    75    76    1
    90    54    55    1
    91    64    65    1
    92    64    62   ar
    93    60    62   ar
    94    77    76    2
    95    55    56    1
    96    68    69    2
    97    57    56    2
