@<TRIPOS>MOLECULE
tmp/4s1pA00.pdb
 84 81 0 0 0
SMALL
GASTEIGER

@<TRIPOS>ATOM
      1  N          5.6270   70.1620    3.8770 N.3     8  ASN8       -0.1225
      2  CA         4.2680   70.3710    4.3450 C.3     8  ASN8        0.1785
      3  C          4.1270   69.7760    5.7320 C.2     8  ASN8        0.2598
      4  O          5.1130   69.7840    6.4870 O.2     8  ASN8       -0.2718
      5  CB         3.2670   69.9270    3.2950 C.3     8  ASN8        0.1169
      6  CG         3.2660   68.4470    3.0510 C.2     8  ASN8        0.2627
      7  OD1        3.7210   67.6270    3.8560 O.2     8  ASN8       -0.2716
      8  ND2        2.7070   68.0820    1.9120 N.am    8  ASN8       -0.0877
      9  N          2.9310   69.3440    6.1540 N.am    9  SER9       -0.1938
     10  CA         2.8080   68.8690    7.5280 C.3     9  SER9        0.2055
     11  C          3.6720   67.6400    7.8390 C.2     9  SER9        0.2642
     12  O          3.9790   67.4030    9.0050 O.2     9  SER9       -0.2714
     13  CB         1.3380   68.6310    7.9090 C.3     9  SER9        0.2130
     14  OG         0.9120   67.4220    7.3840 O.3     9  SER9       -0.2179
     15  N          4.1360   66.8720    6.8350 N.am   10  LEU10      -0.1977
     16  CA         5.0540   65.7700    7.1790 C.3    10  LEU10       0.1596
     17  C          6.3860   66.2910    7.7170 C.2    10  LEU10       0.2287
     18  O          7.1020   65.5890    8.4660 O.2    10  LEU10      -0.2864
     19  CB         5.2620   64.8100    6.0090 C.3    10  LEU10       0.0297
     20  CG         4.1710   63.7490    5.7880 C.3    10  LEU10       0.0022
     21  CD1        2.8370   64.3450    5.4160 C.3    10  LEU10       0.0001
     22  CD2        4.6540   62.7340    4.7800 C.3    10  LEU10       0.0001
     23  N          0.3480   73.4070    4.8370 N.3    32  GLY32      -0.1210
     24  CA        -0.4520   72.1940    4.6700 C.3    32  GLY32       0.1956
     25  C         -0.8730   72.0400    3.2220 C.2    32  GLY32       0.2612
     26  O         -1.3450   72.9760    2.5990 O.2    32  GLY32      -0.2717
     27  N         -0.6420   70.8420    2.6980 N.am   33  GLY33      -0.1956
     28  CA        -1.0300   70.4830    1.3370 C.3    33  GLY33       0.1869
     29  C         -0.0500   70.9120    0.2710 C.2    33  GLY33       0.2309
     30  O         -0.2660   70.6260   -0.8980 O.2    33  GLY33      -0.2863
     31  N          2.7810   63.8230    0.1830 N.3    66  SER66      -0.1202
     32  CA         3.0510   62.4710    0.6590 C.3    66  SER66       0.2020
     33  C          2.8170   61.3280   -0.3110 C.2    66  SER66       0.2618
     34  O          3.4330   60.2870   -0.1470 O.2    66  SER66      -0.2717
     35  CB         2.2700   62.1860    1.9590 C.3    66  SER66       0.2103
     36  OG         0.8960   62.2840    1.7330 O.3    66  SER66      -0.2182
     37  N          1.9530   61.5030   -1.3200 N.am   67  HIS67      -0.1975
     38  CA         1.8310   60.4740   -2.3610 C.3    67  HIS67       0.1656
     39  C          2.3760   60.9040   -3.7090 C.2    67  HIS67       0.2291
     40  O          2.3790   60.1070   -4.6780 O.2    67  HIS67      -0.2864
     41  CB         0.4050   59.9210   -2.4990 C.3    67  HIS67       0.0771
     42  CG        -0.6280   60.9220   -2.8910 C.ar   67  HIS67       0.0820
     43  ND1       -0.7730   61.3510   -4.1860 N.ar   67  HIS67      -0.2267
     44  CD2       -1.6490   61.4740   -2.1920 C.ar   67  HIS67       0.1154
     45  CE1       -1.8170   62.1600   -4.2650 C.ar   67  HIS67       0.1986
     46  NE2       -2.3700   62.2500   -3.0640 N.ar   67  HIS67      -0.2212
     47  N          1.8510   54.8990    2.7350 N.3   102  TYR102     -0.1241
     48  CA         0.7980   54.9650    3.7210 C.3   102  TYR102      0.1605
     49  C          0.5970   53.5890    4.3730 C.2   102  TYR102      0.2264
     50  O          0.9290   52.5590    3.8150 O.2   102  TYR102     -0.2867
     51  CB        -0.4860   55.3770    3.0440 C.3   102  TYR102      0.0534
     52  CG        -0.5240   56.7180    2.4200 C.ar  102  TYR102     -0.0201
     53  CD1        0.4660   57.6650    2.6650 C.ar  102  TYR102     -0.0009
     54  CD2       -1.6030   57.0800    1.6010 C.ar  102  TYR102     -0.0009
     55  CE1        0.3910   58.9240    2.0850 C.ar  102  TYR102      0.0417
     56  CE2       -1.6890   58.3500    1.0490 C.ar  102  TYR102      0.0417
     57  CZ        -0.6910   59.2660    1.2950 C.ar  102  TYR102      0.1957
     58  OH        -0.8230   60.5350    0.7370 O.3   102  TYR102     -0.2866
     59  N         -6.9080   56.5590    3.2790 N.3   108  LYS108     -0.1245
     60  CA        -6.3170   57.4000    2.2740 C.3   108  LYS108      0.1561
     61  C         -5.6630   56.5520    1.1830 C.2   108  LYS108      0.2260
     62  O         -5.6510   56.9250    0.0100 O.2   108  LYS108     -0.2867
     63  CB        -5.3900   58.4460    2.9260 C.3   108  LYS108      0.0271
     64  CG        -6.2030   59.5420    3.6450 C.3   108  LYS108      0.0035
     65  CD        -5.3910   60.4200    4.5800 C.3   108  LYS108      0.0206
     66  CE        -6.2840   61.4270    5.2790 C.3   108  LYS108      0.1093
     67  NZ        -5.4760   62.3880    6.0920 N.3   108  LYS108     -0.1314
     68  N         -1.1620   58.1960    7.4270 N.3   156  VAL156     -0.1231
     69  CA        -0.4230   59.0680    6.4890 C.3   156  VAL156      0.1692
     70  C          0.5700   59.9450    7.2200 C.2   156  VAL156      0.2592
     71  O          1.7600   59.9470    6.9350 O.2   156  VAL156     -0.2718
     72  CB        -1.3740   59.9730    5.6840 C.3   156  VAL156      0.0266
     73  CG1       -0.5900   60.9920    4.8500 C.3   156  VAL156      0.0020
     74  CG2       -2.2530   59.1340    4.7700 C.3   156  VAL156      0.0020
     75  N          0.0780   60.6900    8.1840 N.am  157  HIS157     -0.1976
     76  CA         0.9210   61.5910    8.9450 C.3   157  HIS157      0.1656
     77  C          1.6910   60.7990    9.9930 C.2   157  HIS157      0.2291
     78  O          1.2570   59.7270   10.4240 O.2   157  HIS157     -0.2864
     79  CB         0.0250   62.6470    9.5950 C.3   157  HIS157      0.0771
     80  CG        -0.5730   63.5930    8.5980 C.ar  157  HIS157      0.0820
     81  ND1       -1.7640   63.3510    7.9520 N.ar  157  HIS157     -0.2267
     82  CD2       -0.0820   64.7280    8.0530 C.ar  157  HIS157      0.1154
     83  CE1       -2.0090   64.3180    7.0880 C.ar  157  HIS157      0.1986
     84  NE2       -0.9980   65.1690    7.1280 N.ar  157  HIS157     -0.2212
@<TRIPOS>BOND
     1    40    39    2
     2    45    43   ar
     3    45    46   ar
     4    43    42   ar
     5    39    38    1
     6    46    44   ar
     7    42    41    1
     8    42    44   ar
     9    41    38    1
    10    38    37    1
    11    37    33   am
    12    30    29    2
    13    33    34    2
    14    33    32    1
    15    62    61    2
    16    31    32    1
    17    29    28    1
    18    32    35    1
    19    58    57    1
    20    56    57   ar
    21    56    54   ar
    22    61    60    1
    23    57    55   ar
    24    28    27    1
    25    54    52   ar
    26    36    35    1
    27     8     6   am
    28    55    53   ar
    29    60    63    1
    30    60    59    1
    31    52    53   ar
    32    52    51    1
    33    26    25    2
    34    27    25   am
    35    47    48    1
    36    63    64    1
    37    51    48    1
    38     6     5    1
    39     6     7    2
    40    25    24    1
    41     5     2    1
    42    64    65    1
    43    48    49    1
    44    50    49    2
    45     1     2    1
    46     2     3    1
    47    65    66    1
    48    24    23    1
    49    74    72    1
    50    22    20    1
    51    73    72    1
    52    66    67    1
    53    21    20    1
    54    72    69    1
    55     3     9   am
    56     3     4    2
    57    20    19    1
    58    19    16    1
    59     9    10    1
    60    69    70    1
    61    69    68    1
    62    15    16    1
    63    15    11   am
    64    71    70    2
    65    83    84   ar
    66    83    81   ar
    67    84    82   ar
    68    16    17    1
    69    70    75   am
    70    14    13    1
    71    10    11    1
    72    10    13    1
    73    17    18    2
    74    11    12    2
    75    81    80   ar
    76    82    80   ar
    77    75    76    1
    78    80    79    1
    79    76    79    1
    80    76    77    1
    81    77    78    2
