@<TRIPOS>MOLECULE
tmp/4s24A02.pdb
 116 120 0 0 0
SMALL
GASTEIGER

@<TRIPOS>ATOM
      1  N         61.4660   29.9960    0.0120 N.3    12  PHE12      -0.1241
      2  CA        61.7780   28.6300    0.4250 C.3    12  PHE12       0.1605
      3  C         62.7640   28.0760   -0.6140 C.2    12  PHE12       0.2264
      4  O         62.6270   28.3530   -1.8030 O.2    12  PHE12      -0.2867
      5  CB        60.4430   27.8580    0.5150 C.3    12  PHE12       0.0534
      6  CG        60.5710   26.3710    0.6020 C.ar   12  PHE12      -0.0203
      7  CD1       61.2800   25.7710    1.6340 C.ar   12  PHE12      -0.0042
      8  CD2       59.8770   25.5610   -0.2880 C.ar   12  PHE12      -0.0042
      9  CE1       61.3640   24.3870    1.7300 C.ar   12  PHE12      -0.0003
     10  CE2       59.9550   24.1790   -0.1970 C.ar   12  PHE12      -0.0003
     11  CZ        60.6960   23.5910    0.8210 C.ar   12  PHE12      -0.0000
     12  N         63.0260   25.4020   -2.0470 N.3    14  HIS14      -0.1226
     13  CA        62.3690   24.6510   -3.1110 C.3    14  HIS14       0.1752
     14  C         61.0440   25.2840   -3.5580 C.2    14  HIS14       0.2596
     15  O         60.1100   24.5770   -3.9480 O.2    14  HIS14      -0.2718
     16  CB        62.1760   23.1980   -2.6680 C.3    14  HIS14       0.0759
     17  CG        63.4350   22.5550   -2.1720 C.ar   14  HIS14       0.0818
     18  ND1       64.3740   22.0050   -3.0170 N.ar   14  HIS14      -0.2268
     19  CD2       63.9180   22.3950   -0.9180 C.ar   14  HIS14       0.1154
     20  CE1       65.3790   21.5270   -2.3040 C.ar   14  HIS14       0.1986
     21  NE2       65.1260   21.7500   -1.0270 N.ar   14  HIS14      -0.2212
     22  N         60.9790   26.6160   -3.5140 N.am   15  SER15      -0.1952
     23  CA        59.7950   27.3420   -3.9660 C.3    15  SER15       0.1924
     24  C         59.7430   27.2780   -5.4970 C.2    15  SER15       0.2314
     25  O         60.6450   27.7610   -6.1880 O.2    15  SER15      -0.2863
     26  CB        59.8180   28.7960   -3.4820 C.3    15  SER15       0.2116
     27  OG        60.9670   29.4780   -3.9540 O.3    15  SER15      -0.2180
     28  N         50.8390   31.2510    1.7400 N.3    66  PRO66      -0.2102
     29  CA        51.0990   29.8460    1.4710 C.3    66  PRO66       0.1504
     30  C         50.8420   29.0610    2.7550 C.2    66  PRO66       0.2576
     31  O         51.0540   29.5770    3.8710 O.2    66  PRO66      -0.2718
     32  CB        52.6040   29.8240    1.1620 C.3    66  PRO66       0.0282
     33  CG        53.1520   30.9320    1.9780 C.3    66  PRO66       0.0208
     34  CD        52.0940   32.0110    1.9340 C.3    66  PRO66       0.0893
     35  N         50.3690   27.8330    2.6310 N.am   67  ALA67      -0.1966
     36  CA        50.2310   26.9580    3.7760 C.3    67  ALA67       0.1728
     37  C         51.5970   26.3530    4.1240 C.2    67  ALA67       0.2616
     38  O         52.2590   25.7590    3.2710 O.2    67  ALA67      -0.2715
     39  CB        49.2680   25.8370    3.4540 C.3    67  ALA67       0.0334
     40  N         52.0200   26.5400    5.3680 N.am   68  TRP68      -0.1960
     41  CA        53.2460   25.9570    5.8900 C.3    68  TRP68       0.1771
     42  C         52.8510   25.0910    7.0890 C.2    68  TRP68       0.2619
     43  O         52.2800   25.5990    8.0610 O.2    68  TRP68      -0.2715
     44  CB        54.2060   27.0390    6.3710 C.3    68  TRP68       0.0590
     45  CG        55.0850   27.6200    5.3180 C.ar   68  TRP68       0.0006
     46  CD1       54.7210   28.4660    4.3020 C.ar   68  TRP68       0.0946
     47  CD2       56.4870   27.3930    5.1770 C.ar   68  TRP68       0.0152
     48  NE1       55.8360   28.7860    3.5340 N.ar   68  TRP68      -0.2442
     49  CE2       56.9240   28.1290    4.0520 C.ar   68  TRP68       0.0810
     50  CE3       57.4200   26.6000    5.8810 C.ar   68  TRP68       0.0012
     51  CZ2       58.2530   28.1210    3.6340 C.ar   68  TRP68       0.0191
     52  CZ3       58.7170   26.6010    5.4750 C.ar   68  TRP68       0.0001
     53  CH2       59.1360   27.3470    4.3530 C.ar   68  TRP68       0.0015
     54  N         53.1240   23.7910    7.0130 N.am   69  TRP69      -0.1974
     55  CA        52.7980   22.8760    8.1240 C.3    69  TRP69       0.1640
     56  C         51.3860   23.1030    8.6750 C.2    69  TRP69       0.2290
     57  O         51.1610   23.3020    9.8840 O.2    69  TRP69      -0.2864
     58  CB        53.8960   22.8550    9.2080 C.3    69  TRP69       0.0576
     59  CG        55.1020   22.2710    8.6420 C.ar   69  TRP69       0.0006
     60  CD1       56.1710   22.9390    8.1140 C.ar   69  TRP69       0.0946
     61  CD2       55.3080   20.8820    8.3290 C.ar   69  TRP69       0.0152
     62  NE1       57.0540   22.0470    7.5660 N.ar   69  TRP69      -0.2442
     63  CE2       56.5400   20.7820    7.6620 C.ar   69  TRP69       0.0810
     64  CE3       54.5640   19.7160    8.5560 C.ar   69  TRP69       0.0012
     65  CZ2       57.0600   19.5710    7.2380 C.ar   69  TRP69       0.0191
     66  CZ3       55.0760   18.5260    8.1520 C.ar   69  TRP69       0.0001
     67  CH2       56.3180   18.4490    7.4950 C.ar   69  TRP69       0.0015
     68  N         47.3170   29.1120   -0.4540 N.3   117  THR117     -0.1203
     69  CA        47.8850   28.2570   -1.4980 C.3   117  THR117      0.1994
     70  C         48.4180   26.9890   -0.8180 C.2   117  THR117      0.2618
     71  O         49.2010   27.0510    0.1270 O.2   117  THR117     -0.2717
     72  CB        48.9520   28.9700   -2.3510 C.3   117  THR117      0.1784
     73  OG1       50.0990   29.2710   -1.5670 O.3   117  THR117     -0.2211
     74  CG2       48.3990   30.2600   -2.9370 C.3   117  THR117      0.0376
     75  N         47.9350   25.8400   -1.3040 N.am  118  TRP118     -0.1961
     76  CA        48.2520   24.5140   -0.7440 C.3   118  TRP118      0.1771
     77  C         48.6340   23.5090   -1.8170 C.2   118  TRP118      0.2620
     78  O         48.1160   23.5750   -2.9040 O.2   118  TRP118     -0.2715
     79  CB        46.9890   23.9040   -0.0750 C.3   118  TRP118      0.0590
     80  CG        46.6310   24.3890    1.2640 C.ar  118  TRP118      0.0006
     81  CD1       46.0660   25.5940    1.5800 C.ar  118  TRP118      0.0946
     82  CD2       46.7410   23.6630    2.4940 C.ar  118  TRP118      0.0152
     83  NE1       45.8670   25.6800    2.9370 N.ar  118  TRP118     -0.2442
     84  CE2       46.2610   24.5000    3.5170 C.ar  118  TRP118      0.0810
     85  CE3       47.2210   22.3890    2.8310 C.ar  118  TRP118      0.0012
     86  CZ2       46.2480   24.1090    4.8530 C.ar  118  TRP118      0.0191
     87  CZ3       47.1870   21.9970    4.1580 C.ar  118  TRP118      0.0001
     88  CH2       46.7030   22.8540    5.1480 C.ar  118  TRP118      0.0015
     89  N         49.5480   22.5900   -1.5230 N.am  119  ASN119     -0.1958
     90  CA        49.7760   21.4890   -2.4900 C.3   119  ASN119      0.1819
     91  C         48.7800   20.3470   -2.2280 C.2   119  ASN119      0.2621
     92  O         48.5810   19.5030   -3.0940 O.2   119  ASN119     -0.2715
     93  CB        51.2230   20.9590   -2.4950 C.3   119  ASN119      0.1195
     94  CG        51.5070   19.9900   -3.6700 C.2   119  ASN119      0.2630
     95  OD1       50.9670   20.1340   -4.7860 O.2   119  ASN119     -0.2716
     96  ND2       52.3920   19.0140   -3.4290 N.am  119  ASN119     -0.0877
     97  N         48.1580   20.3260   -1.0500 N.am  120  ALA120     -0.1977
     98  CA        47.1320   19.3020   -0.7470 C.3   120  ALA120      0.1597
     99  C         45.9830   19.3720   -1.7310 C.2   120  ALA120      0.2287
    100  O         45.6310   20.4620   -2.1970 O.2   120  ALA120     -0.2864
    101  CB        46.5850   19.4800    0.6460 C.3   120  ALA120      0.0319
    102  N         49.1300   23.0990   -5.8680 N.3   162  VAL162     -0.1231
    103  CA        49.8520   24.1830   -6.5630 C.3   162  VAL162      0.1692
    104  C         51.2560   23.8070   -7.0390 C.2   162  VAL162      0.2591
    105  O         51.7920   24.4750   -7.9250 O.2   162  VAL162     -0.2718
    106  CB        49.8970   25.4910   -5.7440 C.3   162  VAL162      0.0266
    107  CG1       48.4810   25.9180   -5.4230 C.3   162  VAL162      0.0020
    108  CG2       50.7450   25.3570   -4.4770 C.3   162  VAL162      0.0020
    109  N         51.8390   22.7530   -6.4650 N.am  163  ILE163     -0.1980
    110  CA        53.1660   22.3000   -6.8830 C.3   163  ILE163      0.1595
    111  C         53.0480   21.2170   -7.9570 C.2   163  ILE163      0.2287
    112  O         53.6840   21.3180   -9.0090 O.2   163  ILE163     -0.2864
    113  CB        54.0060   21.7760   -5.6960 C.3   163  ILE163      0.0276
    114  CG1       54.2550   22.9020   -4.6870 C.3   163  ILE163      0.0022
    115  CG2       55.3330   21.2070   -6.1890 C.3   163  ILE163      0.0022
    116  CD1       54.9750   22.4660   -3.4240 C.3   163  ILE163      0.0001
@<TRIPOS>BOND
     1   112   111    2
     2   111   110    1
     3   105   104    2
     4   104   103    1
     5   104   109   am
     6   110   109    1
     7   110   113    1
     8   103   102    1
     9   103   106    1
    10   115   113    1
    11    25    24    2
    12   106   107    1
    13   106   108    1
    14   113   114    1
    15    24    23    1
    16    95    94    2
    17   114   116    1
    18    23    22    1
    19    23    26    1
    20    27    26    1
    21    15    14    2
    22    94    96   am
    23    94    93    1
    24    14    22   am
    25    14    13    1
    26    13    16    1
    27    13    12    1
    28    92    91    2
    29    18    20   ar
    30    18    17   ar
    31    74    72    1
    32    78    77    2
    33    16    17    1
    34    93    90    1
    35    90    91    1
    36    90    89    1
    37    72    73    1
    38    72    69    1
    39    20    21   ar
    40    91    97   am
    41   100    99    2
    42    17    19   ar
    43    77    89   am
    44    77    76    1
    45     4     3    2
    46    99    98    1
    47    69    70    1
    48    69    68    1
    49    75    70   am
    50    75    76    1
    51    97    98    1
    52    21    19   ar
    53    70    71    2
    54    98   101    1
    55    76    79    1
    56     3     2    1
    57     8    10   ar
    58     8     6   ar
    59    10    11   ar
    60    79    80    1
    61     1     2    1
    62     2     5    1
    63     5     6    1
    64     6     7   ar
    65    11     9   ar
    66    32    29    1
    67    32    33    1
    68    80    81   ar
    69    80    82   ar
    70    29    28    1
    71    29    30    1
    72    81    83   ar
    73     7     9   ar
    74    28    34    1
    75    34    33    1
    76    82    85   ar
    77    82    84   ar
    78    35    30   am
    79    35    36    1
    80    30    31    2
    81    85    87   ar
    82    83    84   ar
    83    38    37    2
    84    39    36    1
    85    84    86   ar
    86    48    49   ar
    87    48    46   ar
    88    51    49   ar
    89    51    53   ar
    90    36    37    1
    91    49    47   ar
    92    37    40   am
    93    87    88   ar
    94    46    45   ar
    95    53    52   ar
    96    86    88   ar
    97    47    45   ar
    98    47    50   ar
    99    45    44    1
   100    40    41    1
   101    52    50   ar
   102    41    44    1
   103    41    42    1
   104    54    42   am
   105    54    55    1
   106    42    43    2
   107    65    67   ar
   108    65    63   ar
   109    67    66   ar
   110    62    63   ar
   111    62    60   ar
   112    63    61   ar
   113    60    59   ar
   114    55    56    1
   115    55    58    1
   116    66    64   ar
   117    61    64   ar
   118    61    59   ar
   119    59    58    1
   120    56    57    2
