@<TRIPOS>MOLECULE
tmp/4s27A02.pdb
 89 85 0 0 0
SMALL
GASTEIGER

@<TRIPOS>ATOM
      1  N         34.5730   27.6070   26.6640 N.3   264  VAL264     -0.1245
      2  CA        33.3430   26.8920   27.0200 C.3   264  VAL264      0.1561
      3  C         32.1930   27.1920   26.0670 C.2   264  VAL264      0.2260
      4  O         31.1700   26.5180   26.0830 O.2   264  VAL264     -0.2867
      5  CB        32.8960   27.1940   28.4560 C.3   264  VAL264      0.0252
      6  CG1       33.9580   26.7110   29.4270 C.3   264  VAL264      0.0019
      7  CG2       32.6140   28.6750   28.6400 C.3   264  VAL264      0.0019
      8  N         30.1580   26.8740   22.8970 N.3   266  ARG266     -0.1245
      9  CA        30.0000   25.8780   21.8450 C.3   266  ARG266      0.1563
     10  C         30.3810   26.4610   20.4760 C.2   266  ARG266      0.2260
     11  O         31.2710   25.9540   19.7850 O.2   266  ARG266     -0.2867
     12  CB        28.5600   25.3530   21.8430 C.3   266  ARG266      0.0307
     13  CG        28.3100   24.2040   20.8770 C.3   266  ARG266      0.0489
     14  CD        26.8280   23.8250   20.8270 C.3   266  ARG266      0.2205
     15  NE        26.3420   23.2730   22.0900 N.pl3 266  ARG266     -0.0865
     16  CZ        25.0710   23.2970   22.4880 C.cat 266  ARG266      0.5346
     17  NH1       24.7320   22.7550   23.6470 N.pl3 266  ARG266      0.1354
     18  NH2       24.1340   23.8590   21.7350 N.pl3 266  ARG266      0.1354
     19  N         33.9260   33.8770   26.3750 N.3   309  ARG309     -0.1231
     20  CA        33.4500   34.1130   27.7300 C.3   309  ARG309      0.1679
     21  C         34.1260   33.1730   28.7270 C.2   309  ARG309      0.2434
     22  O         34.5630   32.0730   28.3740 O.2   309  ARG309     -0.2733
     23  CB        31.9450   33.9880   27.8290 C.3   309  ARG309      0.0321
     24  CG        31.4270   32.6150   27.6410 C.3   309  ARG309      0.0489
     25  CD        29.9110   32.6170   27.8830 C.3   309  ARG309      0.2205
     26  NE        29.3880   31.2830   27.6550 N.pl3 309  ARG309     -0.0865
     27  CZ        29.0440   30.8240   26.4570 C.cat 309  ARG309      0.5346
     28  NH1       29.1300   31.6130   25.3800 N.pl3 309  ARG309      0.1354
     29  NH2       28.5950   29.5860   26.3440 N.pl3 309  ARG309      0.1354
     30  N         34.2240   33.6140   29.9850 N.am  310  PRO310     -0.2718
     31  CA        34.8250   32.7720   31.0210 C.3   310  PRO310      0.1535
     32  C         33.8690   31.6650   31.4500 C.2   310  PRO310      0.2599
     33  O         32.6890   31.9270   31.7250 O.2   310  PRO310     -0.2715
     34  CB        35.0650   33.7610   32.1610 C.3   310  PRO310      0.0310
     35  CG        34.0060   34.8050   31.9850 C.3   310  PRO310      0.0237
     36  CD        33.8860   34.9590   30.4880 C.3   310  PRO310      0.0939
     37  N         34.3920   30.4440   31.5480 N.am  311  GLY311     -0.1955
     38  CA        33.5950   29.3040   31.9590 C.3   311  GLY311      0.1869
     39  C         33.8680   28.8550   33.3810 C.2   311  GLY311      0.2309
     40  O         33.3810   27.8080   33.7860 O.2   311  GLY311     -0.2863
     41  N         28.4250   34.7060   31.7550 N.3   348  GLY348     -0.1210
     42  CA        29.6020   33.8650   31.9090 C.3   348  GLY348      0.1956
     43  C         29.7230   33.4750   33.3780 C.2   348  GLY348      0.2611
     44  O         28.7330   33.4970   34.1020 O.2   348  GLY348     -0.2717
     45  N         30.9160   33.1070   33.8190 N.am  349  HIS349     -0.1975
     46  CA        31.1710   32.8970   35.2430 C.3   349  HIS349      0.1656
     47  C         31.9820   34.0920   35.7100 C.2   349  HIS349      0.2291
     48  O         33.1050   34.3010   35.2410 O.2   349  HIS349     -0.2864
     49  CB        31.9810   31.6220   35.4660 C.3   349  HIS349      0.0771
     50  CG        31.2700   30.3580   35.0950 C.ar  349  HIS349      0.0820
     51  ND1       31.2680   29.2500   35.9130 N.ar  349  HIS349     -0.2267
     52  CD2       30.5850   30.0000   33.9820 C.ar  349  HIS349      0.1154
     53  CE1       30.6120   28.2650   35.3250 C.ar  349  HIS349      0.1986
     54  NE2       30.1730   28.7000   34.1570 N.ar  349  HIS349     -0.2212
     55  N         24.8520   35.6450   30.1190 N.3   374  LEU374     -0.1245
     56  CA        24.4930   34.2960   30.5080 C.3   374  LEU374      0.1561
     57  C         24.7430   34.2050   32.0140 C.2   374  LEU374      0.2260
     58  O         25.8240   33.8280   32.4610 O.2   374  LEU374     -0.2867
     59  CB        25.3510   33.2950   29.7390 C.3   374  LEU374      0.0270
     60  CG        25.0710   31.8170   29.9840 C.3   374  LEU374      0.0019
     61  CD1       23.6250   31.4700   29.6850 C.3   374  LEU374      0.0001
     62  CD2       26.0210   30.9680   29.1500 C.3   374  LEU374      0.0001
     63  N         27.1040   33.4290   36.4670 N.3   377  LEU377     -0.1245
     64  CA        27.2610   32.6230   37.6700 C.3   377  LEU377      0.1561
     65  C         28.2910   33.2620   38.5780 C.2   377  LEU377      0.2260
     66  O         29.3930   33.5710   38.1420 O.2   377  LEU377     -0.2867
     67  CB        27.7410   31.2160   37.3200 C.3   377  LEU377      0.0270
     68  CG        26.6980   30.2490   36.7590 C.3   377  LEU377      0.0019
     69  CD1       26.2860   30.6300   35.3430 C.3   377  LEU377      0.0001
     70  CD2       27.2320   28.8320   36.7980 C.3   377  LEU377      0.0001
     71  N         22.2340   23.1480   34.3960 N.3   412  GLU412     -0.1231
     72  CA        23.4680   23.6940   33.8480 C.3   412  GLU412      0.1699
     73  C         24.6690   22.8670   34.2880 C.2   412  GLU412      0.2592
     74  O         24.7940   22.5470   35.4670 O.2   412  GLU412     -0.2718
     75  CB        23.6510   25.1380   34.2860 C.3   412  GLU412      0.0402
     76  CG        24.7950   25.8590   33.5740 C.3   412  GLU412      0.1161
     77  CD        24.4550   26.2900   32.1510 C.2   412  GLU412      0.3649
     78  OE1       23.4020   25.8790   31.6180 O.co2 412  GLU412     -0.2457
     79  OE2       25.2580   27.0510   31.5620 O.co2 412  GLU412     -0.2457
     80  N         25.5360   22.5330   33.3330 N.am  413  HIS413     -0.1976
     81  CA        26.7520   21.7340   33.5500 C.3   413  HIS413      0.1656
     82  C         26.4890   20.2410   33.7200 C.2   413  HIS413      0.2291
     83  O         27.4300   19.4720   33.8990 O.2   413  HIS413     -0.2864
     84  CB        27.6000   22.2560   34.7270 C.3   413  HIS413      0.0771
     85  CG        27.9220   23.7110   34.6360 C.ar  413  HIS413      0.0820
     86  ND1       27.4030   24.6450   35.5060 N.ar  413  HIS413     -0.2267
     87  CD2       28.6720   24.4010   33.7450 C.ar  413  HIS413      0.1154
     88  CE1       27.8390   25.8470   35.1650 C.ar  413  HIS413      0.1986
     89  NE2       28.6110   25.7260   34.1000 N.ar  413  HIS413     -0.2212
@<TRIPOS>BOND
     1    11    10    2
     2    10     9    1
     3    14    13    1
     4    14    15    1
     5    13    12    1
     6    18    16    1
     7    12     9    1
     8     9     8    1
     9    15    16    2
    10    16    17    1
    11    28    27    1
    12     3     4    2
    13     3     2    1
    14    29    27    1
    15    19    20    1
    16    27    26    2
    17     1     2    1
    18     2     5    1
    19    24    23    1
    20    24    25    1
    21    26    25    1
    22    20    23    1
    23    20    21    1
    24    22    21    2
    25     5     7    1
    26     5     6    1
    27    21    30   am
    28    62    60    1
    29    61    60    1
    30    59    60    1
    31    59    56    1
    32    30    36    1
    33    30    31    1
    34    55    56    1
    35    36    35    1
    36    56    57    1
    37    31    32    1
    38    31    34    1
    39    32    37   am
    40    32    33    2
    41    37    38    1
    42    79    77   ar
    43    78    77   ar
    44    41    42    1
    45    42    43    1
    46    38    39    1
    47    35    34    1
    48    57    58    2
    49    77    76    1
    50    80    81    1
    51    80    73   am
    52    43    45   am
    53    43    44    2
    54    39    40    2
    55    81    82    1
    56    81    84    1
    57    76    75    1
    58    82    83    2
    59    87    89   ar
    60    87    85   ar
    61    45    46    1
    62    72    75    1
    63    72    73    1
    64    72    71    1
    65    52    54   ar
    66    52    50   ar
    67    89    88   ar
    68    54    53   ar
    69    73    74    2
    70    85    84    1
    71    85    86   ar
    72    50    49    1
    73    50    51   ar
    74    88    86   ar
    75    48    47    2
    76    46    49    1
    77    46    47    1
    78    53    51   ar
    79    69    68    1
    80    63    64    1
    81    68    70    1
    82    68    67    1
    83    67    64    1
    84    64    65    1
    85    66    65    2
