@<TRIPOS>MOLECULE
tmp/4s27A01.pdb
 146 139 0 0 0
SMALL
GASTEIGER

@<TRIPOS>ATOM
      1  N         16.6370   29.2910   26.8400 N.3   151  ASN151     -0.1225
      2  CA        17.2700   28.4260   25.8630 C.3   151  ASN151      0.1785
      3  C         16.6390   27.0660   25.9100 C.2   151  ASN151      0.2597
      4  O         16.4910   26.4790   26.9900 O.2   151  ASN151     -0.2718
      5  CB        18.7610   28.2890   26.1500 C.3   151  ASN151      0.1169
      6  CG        19.5380   29.4810   25.6830 C.2   151  ASN151      0.2627
      7  OD1       19.0860   30.2080   24.8000 O.2   151  ASN151     -0.2716
      8  ND2       20.7120   29.7010   26.2680 N.am  151  ASN151     -0.0877
      9  N         16.2460   26.5790   24.7410 N.am  152  ILE152     -0.1966
     10  CA        15.7280   25.2330   24.5990 C.3   152  ILE152      0.1727
     11  C         16.3850   24.5950   23.3730 C.2   152  ILE152      0.2617
     12  O         17.2990   25.1750   22.7830 O.2   152  ILE152     -0.2715
     13  CB        14.1750   25.2390   24.5310 C.3   152  ILE152      0.0290
     14  CG1       13.6740   26.1590   23.4100 C.3   152  ILE152      0.0022
     15  CG2       13.5840   25.7010   25.8730 C.3   152  ILE152      0.0023
     16  CD1       13.6460   25.5560   22.0250 C.3   152  ILE152      0.0001
     17  N         15.9250   23.4110   22.9840 N.am  153  GLY153     -0.1940
     18  CA        16.4680   22.7450   21.8230 C.3   153  GLY153      0.2014
     19  C         16.9290   21.3630   22.2010 C.2   153  GLY153      0.2639
     20  O         17.2160   21.0800   23.3620 O.2   153  GLY153     -0.2714
     21  N         17.0110   20.4800   21.2230 N.am  154  ASN154     -0.1958
     22  CA        17.4540   19.1350   21.5270 C.3   154  ASN154      0.1819
     23  C         18.9830   19.0180   21.5550 C.2   154  ASN154      0.2622
     24  O         19.7070   19.9960   21.3340 O.2   154  ASN154     -0.2715
     25  CB        16.8510   18.1500   20.5220 C.3   154  ASN154      0.1195
     26  CG        17.3250   18.4000   19.0980 C.2   154  ASN154      0.2630
     27  OD1       18.4700   18.7800   18.8720 O.2   154  ASN154     -0.2716
     28  ND2       16.4370   18.1950   18.1310 N.am  154  ASN154     -0.0877
     29  N         19.4610   17.8130   21.8270 N.am  155  SER155     -0.1950
     30  CA        20.8360   17.4540   21.5200 C.3   155  SER155      0.1924
     31  C         20.7900   16.1070   20.8260 C.2   155  SER155      0.2314
     32  O         19.7200   15.5200   20.6790 O.2   155  SER155     -0.2863
     33  CB        21.6920   17.3740   22.7840 C.3   155  SER155      0.2116
     34  OG        21.4310   16.1820   23.5110 O.3   155  SER155     -0.2180
     35  N          8.2010   22.9580   25.4440 N.3   167  LYS167     -0.1245
     36  CA         9.0980   23.7900   26.2350 C.3   167  LYS167      0.1561
     37  C          9.0320   25.2690   25.8570 C.2   167  LYS167      0.2260
     38  O          9.1630   26.1250   26.7170 O.2   167  LYS167     -0.2867
     39  CB        10.5330   23.2390   26.1940 C.3   167  LYS167      0.0271
     40  CG        10.7230   22.0230   27.1100 C.3   167  LYS167      0.0035
     41  CD        11.8970   21.1200   26.7390 C.3   167  LYS167      0.0206
     42  CE        13.2530   21.7890   26.8880 C.3   167  LYS167      0.1093
     43  NZ        14.3430   20.8450   26.4830 N.3   167  LYS167     -0.1314
     44  N         18.4010   26.0110   20.3140 N.3   182  LEU182     -0.1245
     45  CA        19.8140   25.6400   20.2590 C.3   182  LEU182      0.1561
     46  C         20.0050   24.1900   19.8520 C.2   182  LEU182      0.2260
     47  O         21.0130   23.5720   20.2030 O.2   182  LEU182     -0.2867
     48  CB        20.4680   25.8640   21.6270 C.3   182  LEU182      0.0270
     49  CG        20.3860   27.2920   22.1690 C.3   182  LEU182      0.0019
     50  CD1       21.2320   27.4260   23.4350 C.3   182  LEU182      0.0001
     51  CD2       20.8160   28.3000   21.1140 C.3   182  LEU182      0.0001
     52  N         25.7840   26.1150   14.6470 N.3   209  TYR209     -0.1241
     53  CA        25.4630   24.7470   15.0530 C.3   209  TYR209      0.1605
     54  C         24.9400   23.9420   13.8680 C.2   209  TYR209      0.2264
     55  O         25.4110   22.8390   13.6000 O.2   209  TYR209     -0.2867
     56  CB        24.4230   24.6780   16.1730 C.3   209  TYR209      0.0534
     57  CG        24.7440   25.3780   17.4690 C.ar  209  TYR209     -0.0201
     58  CD1       26.0030   25.9020   17.7390 C.ar  209  TYR209     -0.0009
     59  CD2       23.7630   25.4990   18.4330 C.ar  209  TYR209     -0.0009
     60  CE1       26.2560   26.5460   18.9470 C.ar  209  TYR209      0.0417
     61  CE2       23.9950   26.1420   19.6040 C.ar  209  TYR209      0.0417
     62  CZ        25.2360   26.6620   19.8710 C.ar  209  TYR209      0.1957
     63  OH        25.4330   27.2930   21.0690 O.3   209  TYR209     -0.2866
     64  N         30.1580   26.8740   22.8970 N.3   266  ARG266     -0.1245
     65  CA        30.0000   25.8780   21.8450 C.3   266  ARG266      0.1563
     66  C         30.3810   26.4610   20.4760 C.2   266  ARG266      0.2260
     67  O         31.2710   25.9540   19.7850 O.2   266  ARG266     -0.2867
     68  CB        28.5600   25.3530   21.8430 C.3   266  ARG266      0.0307
     69  CG        28.3100   24.2040   20.8770 C.3   266  ARG266      0.0489
     70  CD        26.8280   23.8250   20.8270 C.3   266  ARG266      0.2205
     71  NE        26.3420   23.2730   22.0900 N.pl3 266  ARG266     -0.0865
     72  CZ        25.0710   23.2970   22.4880 C.cat 266  ARG266      0.5346
     73  NH1       24.7320   22.7550   23.6470 N.pl3 266  ARG266      0.1354
     74  NH2       24.1340   23.8590   21.7350 N.pl3 266  ARG266      0.1354
     75  N         33.9260   33.8770   26.3750 N.3   309  ARG309     -0.1245
     76  CA        33.4500   34.1130   27.7300 C.3   309  ARG309      0.1563
     77  C         34.1260   33.1730   28.7270 C.2   309  ARG309      0.2260
     78  O         34.5630   32.0730   28.3740 O.2   309  ARG309     -0.2867
     79  CB        31.9450   33.9880   27.8290 C.3   309  ARG309      0.0307
     80  CG        31.4270   32.6150   27.6410 C.3   309  ARG309      0.0489
     81  CD        29.9110   32.6170   27.8830 C.3   309  ARG309      0.2205
     82  NE        29.3880   31.2830   27.6550 N.pl3 309  ARG309     -0.0865
     83  CZ        29.0440   30.8240   26.4570 C.cat 309  ARG309      0.5346
     84  NH1       29.1300   31.6130   25.3800 N.pl3 309  ARG309      0.1354
     85  NH2       28.5950   29.5860   26.3440 N.pl3 309  ARG309      0.1354
     86  N         24.8520   35.6450   30.1190 N.3   374  LEU374     -0.1245
     87  CA        24.4930   34.2960   30.5080 C.3   374  LEU374      0.1561
     88  C         24.7430   34.2050   32.0140 C.2   374  LEU374      0.2260
     89  O         25.8240   33.8280   32.4610 O.2   374  LEU374     -0.2867
     90  CB        25.3510   33.2950   29.7390 C.3   374  LEU374      0.0270
     91  CG        25.0710   31.8170   29.9840 C.3   374  LEU374      0.0019
     92  CD1       23.6250   31.4700   29.6850 C.3   374  LEU374      0.0001
     93  CD2       26.0210   30.9680   29.1500 C.3   374  LEU374      0.0001
     94  N         18.7340   32.7830   30.6350 N.3   407  TYR407     -0.1241
     95  CA        18.5560   32.0020   31.8440 C.3   407  TYR407      0.1605
     96  C         19.5990   30.9040   31.9600 C.2   407  TYR407      0.2264
     97  O         20.3400   30.6010   31.0140 O.2   407  TYR407     -0.2867
     98  CB        17.1040   31.5040   31.9960 C.3   407  TYR407      0.0534
     99  CG        16.6530   30.2310   31.2800 C.ar  407  TYR407     -0.0201
    100  CD1       17.4690   29.5220   30.3980 C.ar  407  TYR407     -0.0009
    101  CD2       15.3780   29.7440   31.5090 C.ar  407  TYR407     -0.0009
    102  CE1       17.0150   28.3700   29.7890 C.ar  407  TYR407      0.0417
    103  CE2       14.9170   28.6140   30.9000 C.ar  407  TYR407      0.0417
    104  CZ        15.7310   27.9260   30.0350 C.ar  407  TYR407      0.1957
    105  OH        15.2380   26.7930   29.4260 O.3   407  TYR407     -0.2866
    106  N         19.4270   27.0510   33.9610 N.3   409  THR409     -0.1218
    107  CA        18.5200   26.1470   34.6510 C.3   409  THR409      0.1862
    108  C         19.2680   25.3280   35.7020 C.2   409  THR409      0.2287
    109  O         20.5000   25.3280   35.7270 O.2   409  THR409     -0.2866
    110  CB        17.8310   25.1770   33.6700 C.3   409  THR409      0.1770
    111  OG1       18.7300   24.1160   33.3280 O.3   409  THR409     -0.2211
    112  CG2       17.3400   25.9040   32.4230 C.3   409  THR409      0.0375
    113  N         22.2340   23.1480   34.3960 N.3   412  GLU412     -0.1231
    114  CA        23.4680   23.6940   33.8480 C.3   412  GLU412      0.1699
    115  C         24.6690   22.8670   34.2880 C.2   412  GLU412      0.2592
    116  O         24.7940   22.5470   35.4670 O.2   412  GLU412     -0.2718
    117  CB        23.6510   25.1380   34.2860 C.3   412  GLU412      0.0402
    118  CG        24.7950   25.8590   33.5740 C.3   412  GLU412      0.1161
    119  CD        24.4550   26.2900   32.1510 C.2   412  GLU412      0.3649
    120  OE1       23.4020   25.8790   31.6180 O.co2 412  GLU412     -0.2457
    121  OE2       25.2580   27.0510   31.5620 O.co2 412  GLU412     -0.2457
    122  N         25.5360   22.5330   33.3330 N.am  413  HIS413     -0.1976
    123  CA        26.7520   21.7340   33.5500 C.3   413  HIS413      0.1656
    124  C         26.4890   20.2410   33.7200 C.2   413  HIS413      0.2291
    125  O         27.4300   19.4720   33.8990 O.2   413  HIS413     -0.2864
    126  CB        27.6000   22.2560   34.7270 C.3   413  HIS413      0.0771
    127  CG        27.9220   23.7110   34.6360 C.ar  413  HIS413      0.0820
    128  ND1       27.4030   24.6450   35.5060 N.ar  413  HIS413     -0.2267
    129  CD2       28.6720   24.4010   33.7450 C.ar  413  HIS413      0.1154
    130  CE1       27.8390   25.8470   35.1650 C.ar  413  HIS413      0.1986
    131  NE2       28.6110   25.7260   34.1000 N.ar  413  HIS413     -0.2212
    132  N         20.7220   18.0950   29.5910 N.3   416  LEU416     -0.1231
    133  CA        19.7480   18.8940   28.8650 C.3   416  LEU416      0.1678
    134  C         18.5480   19.1970   29.7660 C.2   416  LEU416      0.2434
    135  O         17.9570   18.2890   30.3460 O.2   416  LEU416     -0.2733
    136  CB        19.2990   18.1470   27.6050 C.3   416  LEU416      0.0284
    137  CG        18.5490   18.9890   26.5750 C.3   416  LEU416      0.0019
    138  CD1       19.5280   19.8910   25.8250 C.3   416  LEU416      0.0001
    139  CD2       17.7720   18.1090   25.6110 C.3   416  LEU416      0.0001
    140  N         18.1720   20.4790   29.8780 N.am  417  PRO417     -0.2729
    141  CA        17.0330   20.8010   30.7450 C.3   417  PRO417      0.1401
    142  C         15.7280   20.2090   30.2240 C.2   417  PRO417      0.2269
    143  O         15.4750   20.2000   29.0140 O.2   417  PRO417     -0.2865
    144  CB        16.9680   22.3330   30.7040 C.3   417  PRO417      0.0296
    145  CG        18.3100   22.7730   30.1730 C.3   417  PRO417      0.0237
    146  CD        18.8060   21.6760   29.3020 C.3   417  PRO417      0.0939
@<TRIPOS>BOND
     1    55    54    2
     2    54    53    1
     3    52    53    1
     4    53    56    1
     5    56    57    1
     6    57    58   ar
     7    57    59   ar
     8    58    60   ar
     9    28    26   am
    10    59    61   ar
    11    27    26    2
    12    60    62   ar
    13    26    25    1
    14    61    62   ar
    15    67    66    2
    16    46    47    2
    17    46    45    1
    18    62    63    1
    19    45    44    1
    20    45    48    1
    21    66    65    1
    22    25    22    1
    23    32    31    2
    24    31    30    1
    25    70    69    1
    26    70    71    1
    27    69    68    1
    28    51    49    1
    29    21    22    1
    30    21    19   am
    31    24    23    2
    32    30    29    1
    33    30    33    1
    34    22    23    1
    35    23    29   am
    36    48    49    1
    37    74    72    1
    38    18    19    1
    39    18    17    1
    40    68    65    1
    41    65    64    1
    42    16    14    1
    43    71    72    2
    44    49    50    1
    45    19    20    2
    46    72    73    1
    47    12    11    2
    48    33    34    1
    49    17    11   am
    50    11    10    1
    51    14    13    1
    52    13    10    1
    53    13    15    1
    54    10     9    1
    55     9     3   am
    56     7     6    2
    57    84    83    1
    58    35    36    1
    59   139   137    1
    60     6     5    1
    61     6     8   am
    62   138   137    1
    63    37    36    1
    64    37    38    2
    65     2     3    1
    66     2     5    1
    67     2     1    1
    68     3     4    2
    69    39    36    1
    70    39    40    1
    71    85    83    1
    72    75    76    1
    73    83    82    2
    74    43    42    1
    75   137   136    1
    76    41    42    1
    77    41    40    1
    78   136   133    1
    79    80    79    1
    80    80    81    1
    81    82    81    1
    82    76    79    1
    83    76    77    1
    84    78    77    2
    85   133   132    1
    86   133   134    1
    87   143   142    2
    88    93    91    1
    89   146   140    1
    90   146   145    1
    91   105   104    1
    92    92    91    1
    93    90    91    1
    94    90    87    1
    95   134   140   am
    96   134   135    2
    97   102   104   ar
    98   102   100   ar
    99   140   141    1
   100   104   103   ar
   101    86    87    1
   102   145   144    1
   103   142   141    1
   104   100    99   ar
   105    87    88    1
   106    94    95    1
   107   144   141    1
   108   103   101   ar
   109    97    96    2
   110    99   101   ar
   111    99    98    1
   112   121   119   ar
   113   120   119   ar
   114    95    96    1
   115    95    98    1
   116    88    89    2
   117   119   118    1
   118   112   110    1
   119   111   110    1
   120   122   123    1
   121   122   115   am
   122   123   124    1
   123   123   126    1
   124   118   117    1
   125   110   107    1
   126   124   125    2
   127   129   131   ar
   128   129   127   ar
   129   114   117    1
   130   114   115    1
   131   114   113    1
   132   106   107    1
   133   131   130   ar
   134   115   116    2
   135   127   126    1
   136   127   128   ar
   137   107   108    1
   138   130   128   ar
   139   108   109    2
