@<TRIPOS>MOLECULE
tmp/4s28A01.pdb
 186 179 0 0 0
SMALL
GASTEIGER

@<TRIPOS>ATOM
      1  N         16.5000   29.2310   26.8420 N.3   150  ASN150     -0.1225
      2  CA        17.1180   28.3550   25.8590 C.3   150  ASN150      0.1785
      3  C         16.4790   26.9960   25.8930 C.2   150  ASN150      0.2597
      4  O         16.3200   26.4020   26.9650 O.2   150  ASN150     -0.2718
      5  CB        18.6080   28.2020   26.1350 C.3   150  ASN150      0.1169
      6  CG        19.3850   29.3940   25.6830 C.2   150  ASN150      0.2627
      7  OD1       18.9640   30.0960   24.7530 O.2   150  ASN150     -0.2716
      8  ND2       20.5200   29.6530   26.3360 N.am  150  ASN150     -0.0877
      9  N         16.1110   26.5120   24.7160 N.am  151  ILE151     -0.1966
     10  CA        15.5940   25.1660   24.5620 C.3   151  ILE151      0.1727
     11  C         16.2670   24.5350   23.3360 C.2   151  ILE151      0.2617
     12  O         17.1750   25.1290   22.7470 O.2   151  ILE151     -0.2715
     13  CB        14.0460   25.1810   24.4890 C.3   151  ILE151      0.0290
     14  CG1       13.5620   26.1040   23.3680 C.3   151  ILE151      0.0022
     15  CG2       13.4480   25.6530   25.8250 C.3   151  ILE151      0.0023
     16  CD1       13.5530   25.5020   21.9970 C.3   151  ILE151      0.0001
     17  N         15.8350   23.3380   22.9540 N.am  152  GLY152     -0.1940
     18  CA        16.3860   22.6780   21.7900 C.3   152  GLY152      0.2014
     19  C         16.8330   21.2890   22.1690 C.2   152  GLY152      0.2639
     20  O         17.0870   20.9960   23.3380 O.2   152  GLY152     -0.2714
     21  N         16.9430   20.4160   21.1880 N.am  153  ASN153     -0.1958
     22  CA        17.3990   19.0780   21.5030 C.3   153  ASN153      0.1819
     23  C         18.9300   18.9810   21.5360 C.2   153  ASN153      0.2622
     24  O         19.6410   19.9710   21.3110 O.2   153  ASN153     -0.2715
     25  CB        16.8080   18.0790   20.5060 C.3   153  ASN153      0.1195
     26  CG        17.2940   18.3150   19.0870 C.2   153  ASN153      0.2630
     27  OD1       18.4370   18.7100   18.8700 O.2   153  ASN153     -0.2716
     28  ND2       16.4180   18.0920   18.1120 N.am  153  ASN153     -0.0877
     29  N         19.4190   17.7800   21.8080 N.am  154  SER154     -0.1950
     30  CA        20.7960   17.4220   21.5040 C.3   154  SER154      0.1924
     31  C         20.7620   16.0680   20.8150 C.2   154  SER154      0.2314
     32  O         19.7000   15.4620   20.6800 O.2   154  SER154     -0.2863
     33  CB        21.6440   17.3470   22.7740 C.3   154  SER154      0.2116
     34  OG        21.3900   16.1480   23.4960 O.3   154  SER154     -0.2180
     35  N          8.1310   22.9140   25.3970 N.3   166  LYS166     -0.1245
     36  CA         9.0220   23.7510   26.1950 C.3   166  LYS166      0.1561
     37  C          8.9580   25.2330   25.8290 C.2   166  LYS166      0.2260
     38  O          9.0960   26.0820   26.6930 O.2   166  LYS166     -0.2867
     39  CB        10.4600   23.2050   26.1650 C.3   166  LYS166      0.0271
     40  CG        10.6440   21.9890   27.0840 C.3   166  LYS166      0.0035
     41  CD        11.8010   21.0670   26.7090 C.3   166  LYS166      0.0206
     42  CE        13.1770   21.6740   26.9220 C.3   166  LYS166      0.1093
     43  NZ        14.2310   20.6770   26.5260 N.3   166  LYS166     -0.1314
     44  N         18.2890   25.9950   20.2740 N.3   181  LEU181     -0.1245
     45  CA        19.7010   25.6190   20.2210 C.3   181  LEU181      0.1561
     46  C         19.9090   24.1670   19.8170 C.2   181  LEU181      0.2260
     47  O         20.9320   23.5590   20.1590 O.2   181  LEU181     -0.2867
     48  CB        20.3580   25.8640   21.5860 C.3   181  LEU181      0.0270
     49  CG        20.2700   27.3030   22.1130 C.3   181  LEU181      0.0019
     50  CD1       21.0790   27.4520   23.4000 C.3   181  LEU181      0.0001
     51  CD2       20.7330   28.3130   21.0660 C.3   181  LEU181      0.0001
     52  N         25.7550   26.1200   14.7000 N.3   208  TYR208     -0.1241
     53  CA        25.4240   24.7540   15.1160 C.3   208  TYR208      0.1605
     54  C         24.8980   23.9480   13.9290 C.2   208  TYR208      0.2264
     55  O         25.3540   22.8340   13.6690 O.2   208  TYR208     -0.2867
     56  CB        24.3790   24.6950   16.2360 C.3   208  TYR208      0.0534
     57  CG        24.7030   25.4080   17.5270 C.ar  208  TYR208     -0.0201
     58  CD1       25.9600   25.9350   17.7920 C.ar  208  TYR208     -0.0009
     59  CD2       23.7200   25.5500   18.4930 C.ar  208  TYR208     -0.0009
     60  CE1       26.2130   26.5980   18.9970 C.ar  208  TYR208      0.0417
     61  CE2       23.9550   26.2080   19.6690 C.ar  208  TYR208      0.0417
     62  CZ        25.1950   26.7350   19.9250 C.ar  208  TYR208      0.1957
     63  OH        25.3890   27.3840   21.1160 O.3   208  TYR208     -0.2866
     64  N         34.6060   27.6270   26.6450 N.3   263  VAL263     -0.1245
     65  CA        33.3890   26.9110   27.0300 C.3   263  VAL263      0.1561
     66  C         32.2080   27.2030   26.1110 C.2   263  VAL263      0.2260
     67  O         31.2020   26.5030   26.1390 O.2   263  VAL263     -0.2867
     68  CB        32.9830   27.2120   28.4840 C.3   263  VAL263      0.0252
     69  CG1       34.0660   26.7070   29.4250 C.3   263  VAL263      0.0019
     70  CG2       32.7130   28.6980   28.6870 C.3   263  VAL263      0.0019
     71  N         30.0850   26.9100   22.9850 N.3   265  ARG265     -0.1245
     72  CA        29.9140   25.9120   21.9410 C.3   265  ARG265      0.1563
     73  C         30.3050   26.4860   20.5690 C.2   265  ARG265      0.2260
     74  O         31.1790   25.9590   19.8740 O.2   265  ARG265     -0.2867
     75  CB        28.4640   25.4330   21.9300 C.3   265  ARG265      0.0307
     76  CG        28.2030   24.2840   20.9740 C.3   265  ARG265      0.0489
     77  CD        26.7220   23.9130   20.9270 C.3   265  ARG265      0.2205
     78  NE        26.2360   23.2990   22.1600 N.pl3 265  ARG265     -0.0865
     79  CZ        24.9540   23.2500   22.5060 C.cat 265  ARG265      0.5346
     80  NH1       24.5920   22.6580   23.6320 N.pl3 265  ARG265      0.1354
     81  NH2       24.0280   23.7990   21.7280 N.pl3 265  ARG265      0.1354
     82  N         34.0230   33.9160   26.4070 N.3   308  ARG308     -0.1231
     83  CA        33.5690   34.1790   27.7650 C.3   308  ARG308      0.1679
     84  C         34.2100   33.2190   28.7620 C.2   308  ARG308      0.2434
     85  O         34.6300   32.1130   28.4100 O.2   308  ARG308     -0.2733
     86  CB        32.0660   34.0780   27.8490 C.3   308  ARG308      0.0321
     87  CG        31.5340   32.7010   27.6460 C.3   308  ARG308      0.0489
     88  CD        30.0190   32.7050   27.9060 C.3   308  ARG308      0.2205
     89  NE        29.4570   31.3850   27.6800 N.pl3 308  ARG308     -0.0865
     90  CZ        29.0710   30.9460   26.4880 C.cat 308  ARG308      0.5346
     91  NH1       29.1610   31.7340   25.4090 N.pl3 308  ARG308      0.1354
     92  NH2       28.5770   29.7260   26.3800 N.pl3 308  ARG308      0.1354
     93  N         34.2920   33.6450   30.0270 N.am  309  PRO309     -0.2718
     94  CA        34.8730   32.7870   31.0650 C.3   309  PRO309      0.1535
     95  C         33.9010   31.6930   31.4840 C.2   309  PRO309      0.2599
     96  O         32.7230   31.9660   31.7490 O.2   309  PRO309     -0.2715
     97  CB        35.1150   33.7640   32.2130 C.3   309  PRO309      0.0310
     98  CG        34.0630   34.8420   32.0220 C.3   309  PRO309      0.0237
     99  CD        33.9730   34.9960   30.5290 C.3   309  PRO309      0.0939
    100  N         34.4130   30.4710   31.5950 N.am  310  GLY310     -0.1955
    101  CA        33.6130   29.3340   32.0110 C.3   310  GLY310      0.1869
    102  C         33.8950   28.8620   33.4210 C.2   310  GLY310      0.2309
    103  O         33.4170   27.8050   33.8100 O.2   310  GLY310     -0.2863
    104  N         28.4370   34.6960   31.8090 N.3   347  GLY347     -0.1210
    105  CA        29.6220   33.8630   31.9550 C.3   347  GLY347      0.1956
    106  C         29.7240   33.4510   33.4190 C.2   347  GLY347      0.2611
    107  O         28.7320   33.4640   34.1350 O.2   347  GLY347     -0.2717
    108  N         30.9130   33.0710   33.8610 N.am  348  HIS348     -0.1975
    109  CA        31.1780   32.8460   35.2820 C.3   348  HIS348      0.1656
    110  C         31.9980   34.0410   35.7480 C.2   348  HIS348      0.2291
    111  O         33.1170   34.2470   35.2690 O.2   348  HIS348     -0.2864
    112  CB        31.9820   31.5530   35.4910 C.3   348  HIS348      0.0771
    113  CG        31.2620   30.2920   35.1070 C.ar  348  HIS348      0.0820
    114  ND1       31.2650   29.1730   35.9150 N.ar  348  HIS348     -0.2267
    115  CD2       30.5760   29.9420   33.9890 C.ar  348  HIS348      0.1154
    116  CE1       30.6020   28.1950   35.3200 C.ar  348  HIS348      0.1986
    117  NE2       30.1640   28.6390   34.1520 N.ar  348  HIS348     -0.2212
    118  N         24.8610   35.5450   30.0720 N.3   373  LEU373     -0.1245
    119  CA        24.5230   34.1840   30.4680 C.3   373  LEU373      0.1561
    120  C         24.7670   34.0930   31.9780 C.2   373  LEU373      0.2260
    121  O         25.8340   33.6710   32.4280 O.2   373  LEU373     -0.2867
    122  CB        25.3640   33.1690   29.6860 C.3   373  LEU373      0.0270
    123  CG        25.0560   31.6900   29.9320 C.3   373  LEU373      0.0019
    124  CD1       23.6170   31.3570   29.5930 C.3   373  LEU373      0.0001
    125  CD2       26.0120   30.8070   29.1310 C.3   373  LEU373      0.0001
    126  N         27.0920   33.4110   36.4920 N.3   376  LEU376     -0.1245
    127  CA        27.2560   32.6220   37.7110 C.3   376  LEU376      0.1561
    128  C         28.2800   33.2730   38.6120 C.2   376  LEU376      0.2260
    129  O         29.3780   33.5900   38.1650 O.2   376  LEU376     -0.2867
    130  CB        27.7540   31.2170   37.3850 C.3   376  LEU376      0.0270
    131  CG        26.7320   30.2410   36.8200 C.3   376  LEU376      0.0019
    132  CD1       26.3410   30.5920   35.3830 C.3   376  LEU376      0.0001
    133  CD2       27.2690   28.8210   36.8930 C.3   376  LEU376      0.0001
    134  N         18.6900   32.7780   30.6250 N.3   406  TYR406     -0.1227
    135  CA        18.5210   31.9760   31.8160 C.3   406  TYR406      0.1736
    136  C         19.5800   30.8890   31.9340 C.2   406  TYR406      0.2595
    137  O         20.3090   30.5710   30.9800 O.2   406  TYR406     -0.2718
    138  CB        17.0770   31.4600   31.9710 C.3   406  TYR406      0.0548
    139  CG        16.6200   30.1920   31.2560 C.ar  406  TYR406     -0.0200
    140  CD1       17.4300   29.4630   30.3830 C.ar  406  TYR406     -0.0009
    141  CD2       15.3380   29.7300   31.4910 C.ar  406  TYR406     -0.0009
    142  CE1       16.9540   28.3070   29.7860 C.ar  406  TYR406      0.0417
    143  CE2       14.8540   28.5970   30.8910 C.ar  406  TYR406      0.0417
    144  CZ        15.6630   27.8880   30.0360 C.ar  406  TYR406      0.1957
    145  OH        15.1570   26.7590   29.4260 O.3   406  TYR406     -0.2866
    146  N         19.6720   30.3630   33.1460 N.am  407  VAL407     -0.1980
    147  CA        20.5000   29.2190   33.4700 C.3   407  VAL407      0.1595
    148  C         19.5990   28.3460   34.3290 C.2   407  VAL407      0.2287
    149  O         18.9990   28.8410   35.2860 O.2   407  VAL407     -0.2864
    150  CB        21.7600   29.6520   34.2530 C.3   407  VAL407      0.0276
    151  CG1       22.5660   28.4460   34.6900 C.3   407  VAL407      0.0022
    152  CG2       22.6020   30.6160   33.4250 C.3   407  VAL407      0.0022
    153  N         22.2720   23.2000   34.3830 N.3   411  GLU411     -0.1231
    154  CA        23.5170   23.7430   33.8470 C.3   411  GLU411      0.1699
    155  C         24.7070   22.9160   34.3250 C.2   411  GLU411      0.2592
    156  O         24.8160   22.6200   35.5180 O.2   411  GLU411     -0.2718
    157  CB        23.6900   25.1960   34.2590 C.3   411  GLU411      0.0402
    158  CG        24.8350   25.9160   33.5460 C.3   411  GLU411      0.1161
    159  CD        24.5240   26.3150   32.1060 C.2   411  GLU411      0.3649
    160  OE1       23.4160   26.0290   31.6070 O.co2 411  GLU411     -0.2457
    161  OE2       25.4100   26.9340   31.4750 O.co2 411  GLU411     -0.2457
    162  N         25.5820   22.5530   33.3870 N.am  412  HIS412     -0.1976
    163  CA        26.7980   21.7600   33.6190 C.3   412  HIS412      0.1656
    164  C         26.5320   20.2690   33.7980 C.2   412  HIS412      0.2291
    165  O         27.4710   19.4970   33.9990 O.2   412  HIS412     -0.2864
    166  CB        27.6370   22.3010   34.7940 C.3   412  HIS412      0.0771
    167  CG        27.9660   23.7530   34.6730 C.ar  412  HIS412      0.0820
    168  ND1       27.4510   24.7160   35.5150 N.ar  412  HIS412     -0.2267
    169  CD2       28.7250   24.4140   33.7670 C.ar  412  HIS412      0.1154
    170  CE1       27.8880   25.9060   35.1330 C.ar  412  HIS412      0.1986
    171  NE2       28.6610   25.7500   34.0730 N.ar  412  HIS412     -0.2212
    172  N         20.7500   18.1320   29.6000 N.3   415  LEU415     -0.1231
    173  CA        19.7530   18.9140   28.8770 C.3   415  LEU415      0.1678
    174  C         18.5590   19.2310   29.7850 C.2   415  LEU415      0.2434
    175  O         17.9780   18.3240   30.3760 O.2   415  LEU415     -0.2733
    176  CB        19.2780   18.1370   27.6400 C.3   415  LEU415      0.0284
    177  CG        18.4910   18.9440   26.6130 C.3   415  LEU415      0.0019
    178  CD1       19.4380   19.8430   25.8250 C.3   415  LEU415      0.0001
    179  CD2       17.6840   18.0450   25.6760 C.3   415  LEU415      0.0001
    180  N         18.1780   20.5170   29.8940 N.am  416  PRO416     -0.2729
    181  CA        17.0290   20.8350   30.7560 C.3   416  PRO416      0.1401
    182  C         15.7220   20.2320   30.2410 C.2   416  PRO416      0.2269
    183  O         15.4570   20.2350   29.0300 O.2   416  PRO416     -0.2865
    184  CB        16.9610   22.3700   30.7270 C.3   416  PRO416      0.0296
    185  CG        18.2940   22.8150   30.1570 C.3   416  PRO416      0.0237
    186  CD        18.7730   21.7130   29.2780 C.3   416  PRO416      0.0939
@<TRIPOS>BOND
     1    55    54    2
     2    54    53    1
     3    52    53    1
     4    53    56    1
     5    56    57    1
     6    57    58   ar
     7    57    59   ar
     8    58    60   ar
     9    28    26   am
    10    59    61   ar
    11    27    26    2
    12    60    62   ar
    13    26    25    1
    14    61    62   ar
    15    46    47    2
    16    46    45    1
    17    74    73    2
    18    62    63    1
    19    45    44    1
    20    45    48    1
    21    25    22    1
    22    73    72    1
    23    32    31    2
    24    31    30    1
    25    77    76    1
    26    77    78    1
    27    76    75    1
    28    51    49    1
    29    21    22    1
    30    21    19   am
    31    24    23    2
    32    22    23    1
    33    30    29    1
    34    30    33    1
    35    23    29   am
    36    48    49    1
    37    81    79    1
    38    18    19    1
    39    18    17    1
    40    75    72    1
    41    72    71    1
    42    16    14    1
    43    49    50    1
    44    78    79    2
    45    19    20    2
    46    79    80    1
    47    12    11    2
    48    33    34    1
    49    17    11   am
    50    11    10    1
    51    14    13    1
    52    13    10    1
    53    13    15    1
    54    10     9    1
    55     9     3   am
    56     7     6    2
    57    35    36    1
    58    91    90    1
    59   179   177    1
    60     6     5    1
    61     6     8   am
    62   178   177    1
    63    37    36    1
    64    37    38    2
    65     2     3    1
    66     2     5    1
    67     2     1    1
    68     3     4    2
    69    66    67    2
    70    66    65    1
    71    39    36    1
    72    39    40    1
    73    92    90    1
    74    82    83    1
    75    90    89    2
    76    43    42    1
    77   177   176    1
    78    64    65    1
    79    41    42    1
    80    41    40    1
    81    65    68    1
    82   176   173    1
    83    87    86    1
    84    87    88    1
    85    89    88    1
    86    83    86    1
    87    83    84    1
    88    85    84    2
    89    68    70    1
    90    68    69    1
    91    84    93   am
    92   173   172    1
    93   173   174    1
    94   183   182    2
    95   125   123    1
    96   186   180    1
    97   186   185    1
    98   145   144    1
    99   124   123    1
   100   122   123    1
   101   122   119    1
   102   174   180   am
   103   174   175    2
   104   142   144   ar
   105   142   140   ar
   106   180   181    1
   107    93    99    1
   108    93    94    1
   109   144   143   ar
   110   118   119    1
   111   185   184    1
   112   182   181    1
   113   140   139   ar
   114   119   120    1
   115    99    98    1
   116   134   135    1
   117   184   181    1
   118   143   141   ar
   119   137   136    2
   120    94    95    1
   121    94    97    1
   122   139   141   ar
   123   139   138    1
   124   161   159   ar
   125    95   100   am
   126    95    96    2
   127   100   101    1
   128   160   159   ar
   129   104   105    1
   130   135   136    1
   131   135   138    1
   132   136   146   am
   133   105   106    1
   134   120   121    2
   135   101   102    1
   136    98    97    1
   137   159   158    1
   138   146   147    1
   139   162   163    1
   140   162   155   am
   141   106   108   am
   142   106   107    2
   143   102   103    2
   144   152   150    1
   145   147   150    1
   146   147   148    1
   147   158   157    1
   148   163   164    1
   149   163   166    1
   150   169   171   ar
   151   169   167   ar
   152   164   165    2
   153   154   157    1
   154   154   155    1
   155   154   153    1
   156   108   109    1
   157   115   117   ar
   158   115   113   ar
   159   171   170   ar
   160   117   116   ar
   161   150   151    1
   162   155   156    2
   163   148   149    2
   164   167   166    1
   165   167   168   ar
   166   113   112    1
   167   113   114   ar
   168   170   168   ar
   169   111   110    2
   170   109   112    1
   171   109   110    1
   172   116   114   ar
   173   132   131    1
   174   126   127    1
   175   131   133    1
   176   131   130    1
   177   130   127    1
   178   127   128    1
   179   129   128    2
