@<TRIPOS>MOLECULE
tmp/4s28A00.pdb
 153 143 0 0 0
SMALL
GASTEIGER

@<TRIPOS>ATOM
      1  N         16.5000   29.2310   26.8420 N.3   150  ASN150     -0.1240
      2  CA        17.1180   28.3550   25.8590 C.3   150  ASN150      0.1653
      3  C         16.4790   26.9960   25.8930 C.2   150  ASN150      0.2266
      4  O         16.3200   26.4020   26.9650 O.2   150  ASN150     -0.2867
      5  CB        18.6080   28.2020   26.1350 C.3   150  ASN150      0.1155
      6  CG        19.3850   29.3940   25.6830 C.2   150  ASN150      0.2627
      7  OD1       18.9640   30.0960   24.7530 O.2   150  ASN150     -0.2716
      8  ND2       20.5200   29.6530   26.3360 N.am  150  ASN150     -0.0877
      9  N         15.5190   30.7610   22.5070 N.3   179  MET179     -0.1245
     10  CA        16.4110   30.3280   21.4430 C.3   179  MET179      0.1570
     11  C         16.2740   28.8440   21.2350 C.2   179  MET179      0.2261
     12  O         16.1630   28.0790   22.2030 O.2   179  MET179     -0.2867
     13  CB        17.8570   30.6930   21.7350 C.3   179  MET179      0.0387
     14  CG        18.0650   32.1730   21.9130 C.3   179  MET179      0.0595
     15  SD        19.7930   32.6340   22.0890 S.3   179  MET179     -0.1393
     16  CE        20.3880   32.4110   20.4060 C.3   179  MET179      0.0692
     17  N         18.2890   25.9950   20.2740 N.3   181  LEU181     -0.1245
     18  CA        19.7010   25.6190   20.2210 C.3   181  LEU181      0.1561
     19  C         19.9090   24.1670   19.8170 C.2   181  LEU181      0.2260
     20  O         20.9320   23.5590   20.1590 O.2   181  LEU181     -0.2867
     21  CB        20.3580   25.8640   21.5860 C.3   181  LEU181      0.0270
     22  CG        20.2700   27.3030   22.1130 C.3   181  LEU181      0.0019
     23  CD1       21.0790   27.4520   23.4000 C.3   181  LEU181      0.0001
     24  CD2       20.7330   28.3130   21.0660 C.3   181  LEU181      0.0001
     25  N         21.7380   29.9760   16.9730 N.3   205  VAL205     -0.1245
     26  CA        23.1720   30.0950   16.7660 C.3   205  VAL205      0.1561
     27  C         23.4630   29.3300   15.4740 C.2   205  VAL205      0.2260
     28  O         23.6330   28.1100   15.4990 O.2   205  VAL205     -0.2867
     29  CB        23.9700   29.4760   17.9320 C.3   205  VAL205      0.0252
     30  CG1       25.4250   29.8170   17.7790 C.3   205  VAL205      0.0019
     31  CG2       23.4540   29.9920   19.2810 C.3   205  VAL205      0.0019
     32  N         25.7550   26.1200   14.7000 N.3   208  TYR208     -0.1241
     33  CA        25.4240   24.7540   15.1160 C.3   208  TYR208      0.1605
     34  C         24.8980   23.9480   13.9290 C.2   208  TYR208      0.2264
     35  O         25.3540   22.8340   13.6690 O.2   208  TYR208     -0.2867
     36  CB        24.3790   24.6950   16.2360 C.3   208  TYR208      0.0534
     37  CG        24.7030   25.4080   17.5270 C.ar  208  TYR208     -0.0201
     38  CD1       25.9600   25.9350   17.7920 C.ar  208  TYR208     -0.0009
     39  CD2       23.7200   25.5500   18.4930 C.ar  208  TYR208     -0.0009
     40  CE1       26.2130   26.5980   18.9970 C.ar  208  TYR208      0.0417
     41  CE2       23.9550   26.2080   19.6690 C.ar  208  TYR208      0.0417
     42  CZ        25.1950   26.7350   19.9250 C.ar  208  TYR208      0.1957
     43  OH        25.3890   27.3840   21.1160 O.3   208  TYR208     -0.2866
     44  N         22.9470   34.5190   17.0240 N.3   242  THR242     -0.1218
     45  CA        24.2210   34.6190   17.7230 C.3   242  THR242      0.1862
     46  C         25.3170   34.2370   16.7420 C.2   242  THR242      0.2287
     47  O         25.3030   33.1310   16.1930 O.2   242  THR242     -0.2866
     48  CB        24.2870   33.6520   18.9030 C.3   242  THR242      0.1770
     49  OG1       23.2500   33.9700   19.8330 O.3   242  THR242     -0.2211
     50  CG2       25.6360   33.7410   19.6000 C.3   242  THR242      0.0375
     51  N         29.5970   34.3070   16.4000 N.3   244  HIS244     -0.1241
     52  CA        30.8240   34.4770   17.1710 C.3   244  HIS244      0.1621
     53  C         31.9380   35.0910   16.3350 C.2   244  HIS244      0.2264
     54  O         33.0430   34.5510   16.2440 O.2   244  HIS244     -0.2867
     55  CB        31.2760   33.1430   17.7780 C.3   244  HIS244      0.0745
     56  CG        30.2470   32.5010   18.6490 C.ar  244  HIS244      0.0817
     57  ND1       29.2600   31.6790   18.1520 N.ar  244  HIS244     -0.2268
     58  CD2       30.0510   32.5630   19.9880 C.ar  244  HIS244      0.1154
     59  CE1       28.4950   31.2650   19.1470 C.ar  244  HIS244      0.1986
     60  NE2       28.9580   31.7800   20.2740 N.ar  244  HIS244     -0.2212
     61  N         34.6060   27.6270   26.6450 N.3   263  VAL263     -0.1231
     62  CA        33.3890   26.9110   27.0300 C.3   263  VAL263      0.1692
     63  C         32.2080   27.2030   26.1110 C.2   263  VAL263      0.2593
     64  O         31.2020   26.5030   26.1390 O.2   263  VAL263     -0.2718
     65  CB        32.9830   27.2120   28.4840 C.3   263  VAL263      0.0266
     66  CG1       34.0660   26.7070   29.4250 C.3   263  VAL263      0.0020
     67  CG2       32.7130   28.6980   28.6870 C.3   263  VAL263      0.0020
     68  N         32.3290   28.2370   25.2980 N.am  264  SER264     -0.1938
     69  CA        31.3160   28.5310   24.3090 C.3   264  SER264      0.2055
     70  C         31.2740   27.4390   23.2500 C.2   264  SER264      0.2643
     71  O         32.3040   27.0930   22.6820 O.2   264  SER264     -0.2714
     72  CB        31.6490   29.8650   23.6620 C.3   264  SER264      0.2130
     73  OG        30.8590   30.1000   22.5190 O.3   264  SER264     -0.2179
     74  N         30.0850   26.9100   22.9850 N.am  265  ARG265     -0.1963
     75  CA        29.9140   25.9120   21.9410 C.3   265  ARG265      0.1729
     76  C         30.3050   26.4860   20.5690 C.2   265  ARG265      0.2616
     77  O         31.1790   25.9590   19.8740 O.2   265  ARG265     -0.2715
     78  CB        28.4640   25.4330   21.9300 C.3   265  ARG265      0.0348
     79  CG        28.2030   24.2840   20.9740 C.3   265  ARG265      0.0492
     80  CD        26.7220   23.9130   20.9270 C.3   265  ARG265      0.2205
     81  NE        26.2360   23.2990   22.1600 N.pl3 265  ARG265     -0.0865
     82  CZ        24.9540   23.2500   22.5060 C.cat 265  ARG265      0.5346
     83  NH1       24.5920   22.6580   23.6320 N.pl3 265  ARG265      0.1354
     84  NH2       24.0280   23.7990   21.7280 N.pl3 265  ARG265      0.1354
     85  N         29.6660   27.5790   20.1720 N.am  266  GLY266     -0.1955
     86  CA        30.0030   28.2010   18.9050 C.3   266  GLY266      0.1869
     87  C         31.4200   28.7360   18.8650 C.2   266  GLY266      0.2309
     88  O         32.1070   28.6320   17.8570 O.2   266  GLY266     -0.2863
     89  N         29.8800   35.8480   22.5510 N.3   305  ASP305     -0.1239
     90  CA        31.1210   35.9170   23.3150 C.3   305  ASP305      0.1674
     91  C         31.7260   34.5270   23.4430 C.2   305  ASP305      0.2266
     92  O         31.5980   33.8360   24.4630 O.2   305  ASP305     -0.2867
     93  CB        31.0080   36.6890   24.6520 C.3   305  ASP305      0.1410
     94  CG        30.0570   36.0590   25.6510 C.2   305  ASP305      0.3668
     95  OD1       29.1530   35.3020   25.2700 O.co2 305  ASP305     -0.2456
     96  OD2       30.2070   36.3640   26.8600 O.co2 305  ASP305     -0.2456
     97  N         34.0230   33.9160   26.4070 N.3   308  ARG308     -0.1245
     98  CA        33.5690   34.1790   27.7650 C.3   308  ARG308      0.1563
     99  C         34.2100   33.2190   28.7620 C.2   308  ARG308      0.2260
    100  O         34.6300   32.1130   28.4100 O.2   308  ARG308     -0.2867
    101  CB        32.0660   34.0780   27.8490 C.3   308  ARG308      0.0307
    102  CG        31.5340   32.7010   27.6460 C.3   308  ARG308      0.0489
    103  CD        30.0190   32.7050   27.9060 C.3   308  ARG308      0.2205
    104  NE        29.4570   31.3850   27.6800 N.pl3 308  ARG308     -0.0865
    105  CZ        29.0710   30.9460   26.4880 C.cat 308  ARG308      0.5346
    106  NH1       29.1610   31.7340   25.4090 N.pl3 308  ARG308      0.1354
    107  NH2       28.5770   29.7260   26.3800 N.pl3 308  ARG308      0.1354
    108  N         26.6130   39.7450   23.3880 N.3   344  GLU344     -0.1231
    109  CA        26.5550   38.7050   24.4100 C.3   344  GLU344      0.1699
    110  C         27.6750   38.8350   25.4160 C.2   344  GLU344      0.2592
    111  O         28.8120   39.1660   25.0660 O.2   344  GLU344     -0.2718
    112  CB        26.5390   37.3200   23.7650 C.3   344  GLU344      0.0402
    113  CG        25.3040   37.1750   22.9000 C.3   344  GLU344      0.1161
    114  CD        24.9090   35.7620   22.5440 C.2   344  GLU344      0.3649
    115  OE1       23.8350   35.5950   21.9180 O.co2 344  GLU344     -0.2457
    116  OE2       25.6390   34.8110   22.8900 O.co2 344  GLU344     -0.2457
    117  N         27.3320   38.5880   26.6790 N.am  345  GLY345     -0.1957
    118  CA        28.2580   38.7600   27.7800 C.3   345  GLY345      0.1869
    119  C         28.3650   37.5270   28.6550 C.2   345  GLY345      0.2309
    120  O         27.6780   36.5190   28.4330 O.2   345  GLY345     -0.2863
    121  N         23.6010   41.1950   26.7840 N.3   371  TYR371     -0.1227
    122  CA        22.8300   39.9610   26.8750 C.3   371  TYR371      0.1736
    123  C         23.7140   38.9090   27.5430 C.2   371  TYR371      0.2596
    124  O         24.5670   38.3000   26.8960 O.2   371  TYR371     -0.2718
    125  CB        22.4910   39.5210   25.4490 C.3   371  TYR371      0.0548
    126  CG        21.7020   38.2380   25.2670 C.ar  371  TYR371     -0.0200
    127  CD1       21.0080   37.6340   26.3220 C.ar  371  TYR371     -0.0009
    128  CD2       21.6330   37.6440   24.0080 C.ar  371  TYR371     -0.0009
    129  CE1       20.2640   36.4840   26.1090 C.ar  371  TYR371      0.0417
    130  CE2       20.9080   36.4990   23.8000 C.ar  371  TYR371      0.0417
    131  CZ        20.2130   35.9270   24.8490 C.ar  371  TYR371      0.1957
    132  OH        19.4780   34.7850   24.6650 O.3   371  TYR371     -0.2866
    133  N         23.5220   38.6970   28.8430 N.am  372  THR372     -0.1939
    134  CA        24.4530   37.8910   29.6260 C.3   372  THR372      0.2028
    135  C         23.9380   36.4850   29.9130 C.2   372  THR372      0.2642
    136  O         22.7390   36.2560   30.0040 O.2   372  THR372     -0.2714
    137  CB        24.7760   38.5800   30.9590 C.3   372  THR372      0.1808
    138  OG1       23.5590   38.8720   31.6450 O.3   372  THR372     -0.2208
    139  CG2       25.5330   39.8710   30.7040 C.3   372  THR372      0.0379
    140  N         24.8610   35.5450   30.0720 N.am  373  LEU373     -0.1977
    141  CA        24.5230   34.1840   30.4680 C.3   373  LEU373      0.1596
    142  C         24.7670   34.0930   31.9780 C.2   373  LEU373      0.2287
    143  O         25.8340   33.6710   32.4280 O.2   373  LEU373     -0.2864
    144  CB        25.3640   33.1690   29.6860 C.3   373  LEU373      0.0297
    145  CG        25.0560   31.6900   29.9320 C.3   373  LEU373      0.0022
    146  CD1       23.6170   31.3570   29.5930 C.3   373  LEU373      0.0001
    147  CD2       26.0120   30.8070   29.1310 C.3   373  LEU373      0.0001
    148  N         20.0160   35.8440   29.7720 N.3   405  CYS405     -0.1235
    149  CA        19.8230   34.4800   29.3250 C.3   405  CYS405      0.1677
    150  C         19.7440   33.5810   30.5430 C.2   405  CYS405      0.2270
    151  O         20.6310   33.6120   31.4000 O.2   405  CYS405     -0.2867
    152  CB        20.9760   34.0200   28.4410 C.3   405  CYS405      0.0956
    153  SG        20.6150   32.4670   27.6060 S.3   405  CYS405     -0.0801
@<TRIPOS>BOND
     1    35    34    2
     2    34    33    1
     3    32    33    1
     4    33    36    1
     5    27    28    2
     6    27    26    1
     7    47    46    2
     8    36    37    1
     9    54    53    2
    10    53    52    1
    11    51    52    1
    12    46    45    1
    13    26    25    1
    14    26    29    1
    15    44    45    1
    16    52    55    1
    17    37    38   ar
    18    37    39   ar
    19    45    48    1
    20    55    56    1
    21    30    29    1
    22    38    40   ar
    23    88    87    2
    24    29    31    1
    25    57    56   ar
    26    57    59   ar
    27    39    41   ar
    28    56    58   ar
    29    87    86    1
    30    48    50    1
    31    48    49    1
    32    86    85    1
    33    40    42   ar
    34    59    60   ar
    35    41    42   ar
    36    19    20    2
    37    19    18    1
    38    77    76    2
    39    42    43    1
    40    58    60   ar
    41    85    76   am
    42    18    17    1
    43    18    21    1
    44    16    15    1
    45    76    75    1
    46    80    79    1
    47    80    81    1
    48    79    78    1
    49    24    22    1
    50    11    10    1
    51    11    12    2
    52    10    13    1
    53    10     9    1
    54    21    22    1
    55    84    82    1
    56    13    14    1
    57    14    15    1
    58   115   114   ar
    59    78    75    1
    60    75    74    1
    61    22    23    1
    62    81    82    2
    63    82    83    1
    64    73    72    1
    65   114   116   ar
    66   114   113    1
    67    89    90    1
    68    71    70    2
    69   113   112    1
    70    74    70   am
    71    70    69    1
    72    90    91    1
    73    90    93    1
    74   108   109    1
    75    91    92    2
    76    72    69    1
    77   112   109    1
    78   130   128   ar
    79   130   131   ar
    80   128   126   ar
    81    69    68    1
    82   109   110    1
    83    93    94    1
    84   132   131    1
    85     7     6    2
    86   131   129   ar
    87   111   110    2
    88   126   125    1
    89   126   127   ar
    90    95    94   ar
    91    68    63   am
    92   106   105    1
    93   110   117   am
    94   125   122    1
    95    94    96   ar
    96     6     5    1
    97     6     8   am
    98     2     3    1
    99     2     5    1
   100     2     1    1
   101     3     4    2
   102   129   127   ar
   103    63    64    2
   104    63    62    1
   105   107   105    1
   106    97    98    1
   107   105   104    2
   108    61    62    1
   109   117   118    1
   110   121   122    1
   111   122   123    1
   112   124   123    2
   113    62    65    1
   114   123   133   am
   115   153   152    1
   116   102   101    1
   117   102   103    1
   118   104   103    1
   119    98   101    1
   120    98    99    1
   121   118   119    1
   122   100    99    2
   123   120   119    2
   124   152   149    1
   125    65    67    1
   126    65    66    1
   127   133   134    1
   128   147   145    1
   129   149   148    1
   130   149   150    1
   131   146   145    1
   132   134   135    1
   133   134   137    1
   134   144   145    1
   135   144   141    1
   136   135   136    2
   137   135   140   am
   138   140   141    1
   139   141   142    1
   140   150   151    2
   141   139   137    1
   142   137   138    1
   143   142   143    2
