@<TRIPOS>MOLECULE
tmp/4s2bA00.pdb
 134 126 0 0 0
SMALL
GASTEIGER

@<TRIPOS>ATOM
      1  N         30.0070  -12.2170  -14.0500 N.3    16  ASP16      -0.1239
      2  CA        29.4090  -12.0020  -15.3680 C.3    16  ASP16       0.1674
      3  C         28.0410  -12.6640  -15.4000 C.2    16  ASP16       0.2266
      4  O         27.9100  -13.8330  -15.7660 O.2    16  ASP16      -0.2867
      5  CB        30.3290  -12.5900  -16.4410 C.3    16  ASP16       0.1410
      6  CG        29.9660  -12.1610  -17.8460 C.2    16  ASP16       0.3668
      7  OD1       29.2410  -11.1660  -18.0250 O.co2  16  ASP16      -0.2456
      8  OD2       30.4680  -12.8140  -18.7790 O.co2  16  ASP16      -0.2456
      9  N         29.1630   -7.6060  -14.4260 N.3    32  THR32      -0.1203
     10  CA        28.8340   -7.2590  -15.8180 C.3    32  THR32       0.1994
     11  C         27.5280   -7.9210  -16.2250 C.2    32  THR32       0.2619
     12  O         27.2610   -9.0820  -15.8710 O.2    32  THR32      -0.2717
     13  CB        29.9400   -7.6550  -16.8220 C.3    32  THR32       0.1784
     14  OG1       30.2440   -9.0470  -16.6870 O.3    32  THR32      -0.2211
     15  CG2       31.1890   -6.8690  -16.5860 C.3    32  THR32       0.0376
     16  N         26.7360   -7.1670  -16.9920 N.am   33  THR33      -0.1938
     17  CA        25.6110   -7.7030  -17.7140 C.3    33  THR33       0.2028
     18  C         25.7960   -7.4290  -19.2190 C.2    33  THR33       0.2642
     19  O         26.7660   -6.7820  -19.6400 O.2    33  THR33      -0.2714
     20  CB        24.2560   -7.1720  -17.2020 C.3    33  THR33       0.1808
     21  OG1       24.1310   -5.7760  -17.4660 O.3    33  THR33      -0.2208
     22  CG2       24.1090   -7.4320  -15.6830 C.3    33  THR33       0.0379
     23  N         24.8870   -7.9950  -20.0030 N.am   34  ASN34      -0.1971
     24  CA        24.8360   -7.7670  -21.4330 C.3    34  ASN34       0.1688
     25  C         23.3990   -8.0820  -21.8540 C.2    34  ASN34       0.2292
     26  O         22.6140   -8.6050  -21.0490 O.2    34  ASN34      -0.2864
     27  CB        25.9080   -8.5780  -22.1750 C.3    34  ASN34       0.1181
     28  CG        25.6140  -10.0670  -22.2060 C.2    34  ASN34       0.2629
     29  OD1       24.5280  -10.4850  -22.5810 O.2    34  ASN34      -0.2716
     30  ND2       26.5850  -10.8710  -21.7940 N.am   34  ASN34      -0.0877
     31  N         22.3040  -11.6190  -21.2250 N.3    37  LEU37      -0.1245
     32  CA        22.1370  -11.8810  -19.7890 C.3    37  LEU37       0.1561
     33  C         20.9060  -11.2110  -19.2390 C.2    37  LEU37       0.2260
     34  O         20.2920  -11.7350  -18.3130 O.2    37  LEU37      -0.2867
     35  CB        23.3650  -11.4450  -18.9750 C.3    37  LEU37       0.0270
     36  CG        24.6180  -12.2820  -19.2160 C.3    37  LEU37       0.0019
     37  CD1       25.8380  -11.6690  -18.5620 C.3    37  LEU37       0.0001
     38  CD2       24.4360  -13.7060  -18.7250 C.3    37  LEU37       0.0001
     39  N         28.4530   -0.0740  -21.3460 N.3   131  LYS131     -0.1245
     40  CA        29.1500   -1.1010  -22.1120 C.3   131  LYS131      0.1561
     41  C         28.6950   -0.9820  -23.5570 C.2   131  LYS131      0.2260
     42  O         27.5060   -0.8560  -23.8450 O.2   131  LYS131     -0.2867
     43  CB        28.8420   -2.4520  -21.5030 C.3   131  LYS131      0.0271
     44  CG        29.4750   -3.6580  -22.1410 C.3   131  LYS131      0.0035
     45  CD        29.3810   -4.8620  -21.2050 C.3   131  LYS131      0.0206
     46  CE        29.7950   -6.1130  -21.9060 C.3   131  LYS131      0.1093
     47  NZ        29.8170   -7.2700  -21.0160 N.3   131  LYS131     -0.1314
     48  N         33.7660   -3.2630  -25.3550 N.3   155  THR155     -0.1218
     49  CA        33.7190   -4.6940  -25.4250 C.3   155  THR155      0.1862
     50  C         33.7280   -5.1820  -26.8840 C.2   155  THR155      0.2287
     51  O         33.8540   -4.4010  -27.8080 O.2   155  THR155     -0.2866
     52  CB        32.5440   -5.2520  -24.6040 C.3   155  THR155      0.1770
     53  OG1       32.8130   -6.6310  -24.3220 O.3   155  THR155     -0.2211
     54  CG2       31.2140   -5.0890  -25.3140 C.3   155  THR155      0.0375
     55  N         36.9170   -4.7770  -22.2110 N.3   175  SER175     -0.1217
     56  CA        36.6530   -6.1730  -21.9190 C.3   175  SER175      0.1889
     57  C         36.9380   -7.0340  -23.1490 C.2   175  SER175      0.2288
     58  O         36.0110   -7.5050  -23.8170 O.2   175  SER175     -0.2866
     59  CB        35.2650   -6.3630  -21.2970 C.3   175  SER175      0.2089
     60  OG        34.2320   -5.8090  -22.0770 O.3   175  SER175     -0.2183
     61  N         37.9230  -10.1990  -25.4230 N.3   177  TYR177     -0.1241
     62  CA        37.4610  -11.5670  -25.3240 C.3   177  TYR177      0.1605
     63  C         38.5520  -12.6040  -25.4190 C.2   177  TYR177      0.2264
     64  O         39.5430  -12.4450  -26.1380 O.2   177  TYR177     -0.2867
     65  CB        36.4660  -11.8750  -26.4310 C.3   177  TYR177      0.0534
     66  CG        35.0730  -11.3510  -26.2370 C.ar  177  TYR177     -0.0201
     67  CD1       34.6510  -10.7390  -25.0740 C.ar  177  TYR177     -0.0009
     68  CD2       34.1700  -11.5270  -27.1900 C.ar  177  TYR177     -0.0009
     69  CE1       33.3580  -10.2610  -24.9370 C.ar  177  TYR177      0.0417
     70  CE2       32.8820  -11.0760  -27.0530 C.ar  177  TYR177      0.0417
     71  CZ        32.4880  -10.4240  -25.9370 C.ar  177  TYR177      0.1957
     72  OH        31.1620  -10.0520  -25.8790 O.3   177  TYR177     -0.2866
     73  N         35.4690  -16.3980  -27.1430 N.3   180  ARG180     -0.1245
     74  CA        34.9370  -16.3320  -28.5210 C.3   180  ARG180      0.1563
     75  C         36.0270  -16.4670  -29.5490 C.2   180  ARG180      0.2260
     76  O         35.7690  -16.8890  -30.6660 O.2   180  ARG180     -0.2867
     77  CB        34.1450  -15.0630  -28.7520 C.3   180  ARG180      0.0307
     78  CG        32.9190  -15.0160  -27.8800 C.3   180  ARG180      0.0489
     79  CD        31.8680  -14.0980  -28.4170 C.3   180  ARG180      0.2205
     80  NE        30.7870  -13.9790  -27.4370 N.pl3 180  ARG180     -0.0865
     81  CZ        29.7110  -13.2270  -27.6060 C.cat 180  ARG180      0.5346
     82  NH1       29.5530  -12.5150  -28.7230 N.pl3 180  ARG180      0.1354
     83  NH2       28.7840  -13.1970  -26.6790 N.pl3 180  ARG180      0.1354
     84  N         37.2330  -11.0830  -20.5890 N.3   224  ALA224     -0.1231
     85  CA        35.8430  -11.5360  -20.6250 C.3   224  ALA224      0.1694
     86  C         35.7380  -12.6960  -21.5950 C.2   224  ALA224      0.2593
     87  O         36.6160  -12.8530  -22.4650 O.2   224  ALA224     -0.2718
     88  CB        34.9320  -10.4080  -21.0630 C.3   224  ALA224      0.0304
     89  N         34.6450  -13.4570  -21.4680 N.am  225  SER225     -0.1938
     90  CA        34.3290  -14.6070  -22.3200 C.3   225  SER225      0.2055
     91  C         35.2520  -15.7640  -22.0190 C.2   225  SER225      0.2643
     92  O         36.4440  -15.7610  -22.4100 O.2   225  SER225     -0.2714
     93  CB        34.3800  -14.2580  -23.8240 C.3   225  SER225      0.2130
     94  OG        34.0040  -15.3740  -24.6240 O.3   225  SER225     -0.2179
     95  N         34.7390  -16.7610  -21.3020 N.am  226  PHE226     -0.1959
     96  CA        35.5690  -17.8890  -20.9520 C.3   226  PHE226      0.1771
     97  C         34.8860  -19.2120  -21.2400 C.2   226  PHE226      0.2619
     98  O         33.6780  -19.3550  -21.1170 O.2   226  PHE226     -0.2715
     99  CB        36.0090  -17.7960  -19.4880 C.3   226  PHE226      0.0574
    100  CG        36.9240  -16.6550  -19.2520 C.ar  226  PHE226     -0.0200
    101  CD1       38.2400  -16.7060  -19.7110 C.ar  226  PHE226     -0.0042
    102  CD2       36.4720  -15.4980  -18.6450 C.ar  226  PHE226     -0.0042
    103  CE1       39.0990  -15.6470  -19.5310 C.ar  226  PHE226     -0.0003
    104  CE2       37.3190  -14.4210  -18.4860 C.ar  226  PHE226     -0.0003
    105  CZ        38.6330  -14.4860  -18.9440 C.ar  226  PHE226     -0.0000
    106  N         35.6900  -20.1650  -21.6500 N.am  227  ARG227     -0.1977
    107  CA        35.2160  -21.4910  -21.9570 C.3   227  ARG227      0.1597
    108  C         35.6910  -22.5360  -20.9710 C.2   227  ARG227      0.2287
    109  O         35.0900  -23.5970  -20.8740 O.2   227  ARG227     -0.2864
    110  CB        35.6670  -21.8900  -23.3640 C.3   227  ARG227      0.0334
    111  CG        35.1350  -20.9620  -24.4440 C.3   227  ARG227      0.0492
    112  CD        33.6260  -21.1040  -24.6220 C.3   227  ARG227      0.2205
    113  NE        33.1210  -20.0600  -25.5000 N.pl3 227  ARG227     -0.0865
    114  CZ        32.5650  -18.9170  -25.1050 C.cat 227  ARG227      0.5346
    115  NH1       32.3740  -18.6250  -23.8180 N.pl3 227  ARG227      0.1354
    116  NH2       32.1790  -18.0510  -26.0190 N.pl3 227  ARG227      0.1354
    117  N         36.1010  -10.8930  -15.7120 N.3   242  THR242     -0.1218
    118  CA        34.6880  -11.1140  -15.5260 C.3   242  THR242      0.1862
    119  C         34.3670  -12.5320  -15.9330 C.2   242  THR242      0.2287
    120  O         34.6800  -12.9760  -17.0330 O.2   242  THR242     -0.2866
    121  CB        33.7900  -10.0660  -16.1730 C.3   242  THR242      0.1770
    122  OG1       32.4370  -10.3180  -15.7900 O.3   242  THR242     -0.2211
    123  CG2       33.8850  -10.0650  -17.7150 C.3   242  THR242      0.0375
    124  N         23.7450   -9.7570  -29.9360 N.3   301  PHE301     -0.1241
    125  CA        23.2300   -8.8580  -28.8990 C.3   301  PHE301      0.1605
    126  C         22.0180   -8.0460  -29.3850 C.2   301  PHE301      0.2264
    127  O         21.0650   -7.7870  -28.6130 O.2   301  PHE301     -0.2867
    128  CB        24.3210   -7.9250  -28.3800 C.3   301  PHE301      0.0534
    129  CG        25.2980   -8.5560  -27.4330 C.ar  301  PHE301     -0.0203
    130  CD1       24.9750   -9.6780  -26.6650 C.ar  301  PHE301     -0.0042
    131  CD2       26.5610   -8.0150  -27.2980 C.ar  301  PHE301     -0.0042
    132  CE1       25.8830  -10.2170  -25.7870 C.ar  301  PHE301     -0.0003
    133  CE2       27.4660   -8.5490  -26.4010 C.ar  301  PHE301     -0.0003
    134  CZ        27.1370   -9.6670  -25.6700 C.ar  301  PHE301     -0.0000
@<TRIPOS>BOND
     1    76    75    2
     2   124   125    1
     3    75    74    1
     4   126   125    1
     5   126   127    2
     6   125   128    1
     7    77    74    1
     8    77    78    1
     9    82    81    1
    10    74    73    1
    11    79    78    1
    12    79    80    1
    13   128   129    1
    14    51    50    2
    15    81    80    2
    16    81    83    1
    17   129   131   ar
    18   129   130   ar
    19   131   133   ar
    20    68    70   ar
    21    68    66   ar
    22    70    71   ar
    23    50    49    1
    24   130   132   ar
    25    65    66    1
    26    65    62    1
    27   133   134   ar
    28    66    67   ar
    29    64    63    2
    30   116   114    1
    31    71    72    1
    32    71    69   ar
    33   132   134   ar
    34   113   114    2
    35   113   112    1
    36    49    48    1
    37    49    52    1
    38    61    62    1
    39    63    62    1
    40    54    52    1
    41   114   115    1
    42    67    69   ar
    43    94    93    1
    44   112   111    1
    45    52    53    1
    46   111   110    1
    47    42    41    2
    48    93    90    1
    49    58    57    2
    50    41    40    1
    51   110   107    1
    52    57    56    1
    53    29    28    2
    54    87    86    2
    55    92    91    2
    56    90    91    1
    57    90    89    1
    58    55    56    1
    59    28    27    1
    60    28    30   am
    61    27    24    1
    62    44    43    1
    63    44    45    1
    64    40    43    1
    65    40    39    1
    66    60    59    1
    67    91    95   am
    68   107   106    1
    69   107   108    1
    70    56    59    1
    71    46    45    1
    72    46    47    1
    73    25    24    1
    74    25    26    2
    75   106    97   am
    76    86    89   am
    77    86    85    1
    78    24    23    1
    79    95    96    1
    80    97    98    2
    81    97    96    1
    82    31    32    1
    83    88    85    1
    84   108   109    2
    85    96    99    1
    86    85    84    1
    87    23    18   am
    88    32    33    1
    89    32    35    1
    90   101   103   ar
    91   101   100   ar
    92    19    18    2
    93   103   105   ar
    94    99   100    1
    95   100   102   ar
    96    33    34    2
    97    18    17    1
    98    36    35    1
    99    36    38    1
   100    36    37    1
   101   105   104   ar
   102     8     6   ar
   103   102   104   ar
   104     7     6   ar
   105     6     5    1
   106   123   121    1
   107    17    20    1
   108    17    16    1
   109    21    20    1
   110    20    22    1
   111   120   119    2
   112    16    11   am
   113    13    14    1
   114    13    15    1
   115    13    10    1
   116     5     2    1
   117    11    12    2
   118    11    10    1
   119   121   122    1
   120   121   118    1
   121   119   118    1
   122    10     9    1
   123     4     3    2
   124   117   118    1
   125     3     2    1
   126     2     1    1
