@<TRIPOS>MOLECULE
tmp/4s2cA00.pdb
 149 139 0 0 0
SMALL
GASTEIGER

@<TRIPOS>ATOM
      1  N         30.6900   11.3000  127.2560 N.3    16  ASP16      -0.1239
      2  CA        30.0240   11.1870  128.5430 C.3    16  ASP16       0.1674
      3  C         28.6390   11.8400  128.4730 C.2    16  ASP16       0.2266
      4  O         28.4590   12.9930  128.8820 O.2    16  ASP16      -0.2867
      5  CB        30.8920   11.8480  129.6350 C.3    16  ASP16       0.1410
      6  CG        30.4510   11.4850  131.0550 C.2    16  ASP16       0.3668
      7  OD1       29.5960   10.5870  131.2270 O.co2  16  ASP16      -0.2456
      8  OD2       30.9800   12.0990  132.0120 O.co2  16  ASP16      -0.2456
      9  N         29.7650    6.6810  127.6850 N.3    32  THR32      -0.1203
     10  CA        29.4170    6.3770  129.0710 C.3    32  THR32       0.1994
     11  C         28.1240    7.0730  129.4520 C.2    32  THR32       0.2619
     12  O         27.9080    8.2530  129.1170 O.2    32  THR32      -0.2717
     13  CB        30.5110    6.7940  130.1080 C.3    32  THR32       0.1784
     14  OG1       30.8060    8.1880  130.0160 O.3    32  THR32      -0.2211
     15  CG2       31.8070    6.0320  129.8910 C.3    32  THR32       0.0376
     16  N         27.2650    6.3260  130.1430 N.am   33  THR33      -0.1938
     17  CA        26.1540    6.8940  130.8780 C.3    33  THR33       0.2028
     18  C         26.3270    6.6000  132.3590 C.2    33  THR33       0.2642
     19  O         27.2300    5.8890  132.7770 O.2    33  THR33      -0.2714
     20  CB        24.7950    6.3580  130.4010 C.3    33  THR33       0.1808
     21  OG1       24.7210    4.9510  130.6390 O.3    33  THR33      -0.2208
     22  CG2       24.5890    6.6480  128.8900 C.3    33  THR33       0.0379
     23  N         25.4800    7.2310  133.1440 N.am   34  ASN34      -0.1971
     24  CA        25.3410    6.9550  134.5460 C.3    34  ASN34       0.1688
     25  C         23.9030    7.3370  134.8310 C.2    34  ASN34       0.2292
     26  O         23.2300    7.8440  133.9410 O.2    34  ASN34      -0.2864
     27  CB        26.3770    7.7410  135.3630 C.3    34  ASN34       0.1181
     28  CG        26.1460    9.2360  135.3380 C.2    34  ASN34       0.2629
     29  OD1       25.0160    9.7060  135.4460 O.2    34  ASN34      -0.2716
     30  ND2       27.2200    9.9920  135.1960 N.am   34  ASN34      -0.0877
     31  N         22.8000   10.9730  134.0630 N.3    37  LEU37      -0.1245
     32  CA        22.7200   11.1670  132.6250 C.3    37  LEU37       0.1561
     33  C         21.5280   10.4340  132.0340 C.2    37  LEU37       0.2260
     34  O         20.9260   10.9180  131.0780 O.2    37  LEU37      -0.2867
     35  CB        23.9980   10.7110  131.9400 C.3    37  LEU37       0.0270
     36  CG        25.2340   11.5320  132.2890 C.3    37  LEU37       0.0019
     37  CD1       26.4730   10.8850  131.6860 C.3    37  LEU37       0.0001
     38  CD2       25.0850   12.9710  131.8040 C.3    37  LEU37       0.0001
     39  N         28.9290   -0.6340  134.8060 N.3   131  LYS131     -0.1245
     40  CA        29.5350    0.3420  135.7050 C.3   131  LYS131      0.1561
     41  C         29.1520    0.0070  137.1310 C.2   131  LYS131      0.2260
     42  O         27.9850   -0.1770  137.4340 O.2   131  LYS131     -0.2867
     43  CB        29.0310    1.7590  135.3820 C.3   131  LYS131      0.0271
     44  CG        30.0160    2.6880  134.7220 C.3   131  LYS131      0.0035
     45  CD        29.4520    4.1080  134.6080 C.3   131  LYS131      0.0206
     46  CE        30.5800    5.0340  134.1860 C.3   131  LYS131      0.1093
     47  NZ        30.2230    6.4520  134.0590 N.3   131  LYS131     -0.1314
     48  N         33.2830   -1.4570  134.2860 N.3   153  ASN153     -0.1240
     49  CA        33.8690   -0.1300  134.3610 C.3   153  ASN153      0.1653
     50  C         33.7640    0.3040  135.8250 C.2   153  ASN153      0.2266
     51  O         32.6710    0.5280  136.3480 O.2   153  ASN153     -0.2867
     52  CB        33.0980    0.8070  133.4140 C.3   153  ASN153      0.1155
     53  CG        33.4840    2.2790  133.5620 C.2   153  ASN153      0.2627
     54  OD1       34.1560    2.6780  134.5140 O.2   153  ASN153     -0.2716
     55  ND2       33.0400    3.0960  132.6100 N.am  153  ASN153     -0.0877
     56  N         33.8540    2.6730  138.6490 N.3   155  THR155     -0.1218
     57  CA        33.6900    4.1080  138.7070 C.3   155  THR155      0.1862
     58  C         33.7870    4.7000  140.1280 C.2   155  THR155      0.2287
     59  O         34.0040    3.9890  141.1190 O.2   155  THR155     -0.2866
     60  CB        32.3830    4.5260  137.9930 C.3   155  THR155      0.1770
     61  OG1       32.3990    5.9380  137.7910 O.3   155  THR155     -0.2211
     62  CG2       31.1300    4.1430  138.7770 C.3   155  THR155      0.0375
     63  N         37.5310    4.1440  135.9660 N.3   175  SER175     -0.1217
     64  CA        37.1770    5.5330  135.6900 C.3   175  SER175      0.1889
     65  C         37.5660    6.3930  136.8880 C.2   175  SER175      0.2288
     66  O         36.7080    6.7680  137.6930 O.2   175  SER175     -0.2866
     67  CB        35.6810    5.6760  135.4460 C.3   175  SER175      0.2089
     68  OG        35.2980    5.0420  134.2650 O.3   175  SER175     -0.2183
     69  N         38.2430    9.6450  138.7330 N.3   177  PHE177     -0.1241
     70  CA        37.5610   10.9330  138.5900 C.3   177  PHE177      0.1605
     71  C         38.5710   12.0730  138.7240 C.2   177  PHE177      0.2264
     72  O         39.5570   11.9650  139.4460 O.2   177  PHE177     -0.2867
     73  CB        36.4440   11.0830  139.6340 C.3   177  PHE177      0.0534
     74  CG        35.1470   10.4690  139.2100 C.ar  177  PHE177     -0.0203
     75  CD1       35.1140    9.3170  138.4220 C.ar  177  PHE177     -0.0042
     76  CD2       33.9650   11.0570  139.5460 C.ar  177  PHE177     -0.0042
     77  CE1       33.9150    8.7680  138.0030 C.ar  177  PHE177     -0.0003
     78  CE2       32.7600   10.5090  139.1410 C.ar  177  PHE177     -0.0003
     79  CZ        32.7300    9.3560  138.3760 C.ar  177  PHE177     -0.0000
     80  N         35.5910   15.9900  140.2340 N.3   180  ARG180     -0.1245
     81  CA        35.0700   15.9100  141.5880 C.3   180  ARG180      0.1563
     82  C         36.1680   16.0160  142.6050 C.2   180  ARG180      0.2260
     83  O         35.9390   16.5100  143.6980 O.2   180  ARG180     -0.2867
     84  CB        34.2940   14.6420  141.7880 C.3   180  ARG180      0.0307
     85  CG        33.0570   14.6230  140.9130 C.3   180  ARG180      0.0489
     86  CD        31.9790   13.7140  141.4620 C.3   180  ARG180      0.2205
     87  NE        30.9630   13.4750  140.4520 N.pl3 180  ARG180     -0.0865
     88  CZ        29.8780   12.7450  140.6360 C.cat 180  ARG180      0.5346
     89  NH1       29.6540   12.1330  141.7880 N.pl3 180  ARG180      0.1354
     90  NH2       29.0220   12.6100  139.6460 N.pl3 180  ARG180      0.1354
     91  N         40.6410    5.1310  132.1970 N.3   222  MET222     -0.1245
     92  CA        39.8050    6.1450  131.5690 C.3   222  MET222      0.1570
     93  C         39.4960    7.2870  132.5350 C.2   222  MET222      0.2261
     94  O         38.5760    7.1890  133.3430 O.2   222  MET222     -0.2867
     95  CB        38.4830    5.5410  131.0880 C.3   222  MET222      0.0387
     96  CG        37.5870    6.5560  130.3850 C.3   222  MET222      0.0595
     97  SD        36.2290    5.8370  129.4220 S.3   222  MET222     -0.1393
     98  CE        35.0990    5.3420  130.7160 C.3   222  MET222      0.0692
     99  N         37.7070   10.3890  133.9640 N.3   224  ALA224     -0.1231
    100  CA        36.3180   10.8360  133.8390 C.3   224  ALA224      0.1694
    101  C         36.0990   12.0240  134.7350 C.2   224  ALA224      0.2593
    102  O         36.9290   12.2830  135.6010 O.2   224  ALA224     -0.2718
    103  CB        35.3620    9.7280  134.2300 C.3   224  ALA224      0.0304
    104  N         34.9740   12.7190  134.5340 N.am  225  SER225     -0.1938
    105  CA        34.5870   13.8970  135.3310 C.3   225  SER225      0.2055
    106  C         35.5430   15.0460  135.0450 C.2   225  SER225      0.2643
    107  O         36.6610   15.0400  135.5100 O.2   225  SER225     -0.2714
    108  CB        34.5880   13.5830  136.8240 C.3   225  SER225      0.2130
    109  OG        34.2280   14.7050  137.6000 O.3   225  SER225     -0.2179
    110  N         35.1140   16.0230  134.2720 N.am  226  PHE226     -0.1959
    111  CA        36.0050   17.1270  133.9040 C.3   226  PHE226      0.1771
    112  C         35.3090   18.4350  134.1190 C.2   226  PHE226      0.2619
    113  O         34.1120   18.5340  133.8970 O.2   226  PHE226     -0.2715
    114  CB        36.4830   16.9890  132.4570 C.3   226  PHE226      0.0574
    115  CG        37.4350   15.8570  132.2800 C.ar  226  PHE226     -0.0200
    116  CD1       38.7120   15.9480  132.7790 C.ar  226  PHE226     -0.0042
    117  CD2       37.0240   14.6730  131.6910 C.ar  226  PHE226     -0.0042
    118  CE1       39.5940   14.8940  132.6540 C.ar  226  PHE226     -0.0003
    119  CE2       37.8920   13.6120  131.5690 C.ar  226  PHE226     -0.0003
    120  CZ        39.1790   13.7190  132.0550 C.ar  226  PHE226     -0.0000
    121  N         36.0670   19.4270  134.5740 N.am  227  ARG227     -0.1977
    122  CA        35.5480   20.7680  134.7690 C.3   227  ARG227      0.1597
    123  C         36.0910   21.7760  133.7520 C.2   227  ARG227      0.2287
    124  O         35.5260   22.8410  133.6050 O.2   227  ARG227     -0.2864
    125  CB        35.8710   21.2420  136.1800 C.3   227  ARG227      0.0334
    126  CG        35.2340   20.4240  137.2900 C.3   227  ARG227      0.0492
    127  CD        33.7180   20.5150  137.3170 C.3   227  ARG227      0.2205
    128  NE        33.1950   19.5250  138.2550 N.pl3 227  ARG227     -0.0865
    129  CZ        32.7300   18.3150  137.9430 C.cat 227  ARG227      0.5346
    130  NH1       32.6580   17.8740  136.6920 N.pl3 227  ARG227      0.1354
    131  NH2       32.3040   17.5310  138.9230 N.pl3 227  ARG227      0.1354
    132  N         36.7020   10.1150  129.0640 N.3   242  THR242     -0.1218
    133  CA        35.3020   10.3420  128.7910 C.3   242  THR242      0.1862
    134  C         34.9420   11.7690  129.1350 C.2   242  THR242      0.2287
    135  O         35.2350   12.2450  130.2250 O.2   242  THR242     -0.2866
    136  CB        34.3660    9.3520  129.5070 C.3   242  THR242      0.1770
    137  OG1       33.0350    9.5940  129.0670 O.3   242  THR242     -0.2211
    138  CG2       34.4090    9.4810  131.0020 C.3   242  THR242      0.0375
    139  N         23.8390    9.3000  142.9770 N.3   301  PHE301     -0.1241
    140  CA        23.3760    8.4040  141.9170 C.3   301  PHE301      0.1605
    141  C         22.1190    7.6460  142.3370 C.2   301  PHE301      0.2264
    142  O         21.2920    7.3360  141.5060 O.2   301  PHE301     -0.2867
    143  CB        24.4740    7.4150  141.4910 C.3   301  PHE301      0.0534
    144  CG        25.5480    8.0050  140.5960 C.ar  301  PHE301     -0.0203
    145  CD1       25.2590    9.0090  139.6600 C.ar  301  PHE301     -0.0042
    146  CD2       26.8390    7.5010  140.6390 C.ar  301  PHE301     -0.0042
    147  CE1       26.2420    9.5020  138.8210 C.ar  301  PHE301     -0.0003
    148  CE2       27.8160    7.9830  139.8040 C.ar  301  PHE301     -0.0003
    149  CZ        27.5250    8.9860  138.8980 C.ar  301  PHE301     -0.0000
@<TRIPOS>BOND
     1     1     2    1
     2     9    10    1
     3     3     2    1
     4     3     4    2
     5     2     5    1
     6   133   132    1
     7   133   134    1
     8   133   136    1
     9    22    20    1
    10   137   136    1
    11    10    11    1
    12    10    13    1
    13    12    11    2
    14   134   135    2
    15    97    96    1
    16    97    98    1
    17    11    16   am
    18   136   138    1
    19     5     6    1
    20    15    13    1
    21    14    13    1
    22    16    17    1
    23    96    95    1
    24    20    21    1
    25    20    17    1
    26    17    18    1
    27     6     7   ar
    28     6     8   ar
    29    34    33    2
    30    95    92    1
    31   119   117   ar
    32   119   120   ar
    33    92    91    1
    34    92    93    1
    35    37    36    1
    36   117   115   ar
    37    38    36    1
    38    35    36    1
    39    35    32    1
    40    33    32    1
    41   120   118   ar
    42   115   114    1
    43   115   116   ar
    44    18    19    2
    45    18    23   am
    46   114   111    1
    47    93    94    2
    48    55    53   am
    49    32    31    1
    50   118   116   ar
    51    23    24    1
    52    52    53    1
    53    52    49    1
    54    53    54    2
    55   124   123    2
    56   123   122    1
    57   100    99    1
    58   100   103    1
    59   100   101    1
    60   113   112    2
    61   111   112    1
    62   111   110    1
    63    26    25    2
    64    47    46    1
    65   112   121   am
    66    46    45    1
    67    68    67    1
    68   110   106   am
    69    48    49    1
    70    49    50    1
    71   104   101   am
    72   104   105    1
    73    24    25    1
    74    24    27    1
    75   121   122    1
    76    45    44    1
    77    44    43    1
    78   101   102    2
    79   122   125    1
    80    39    40    1
    81   106   105    1
    82   106   107    2
    83    30    28   am
    84   105   108    1
    85    28    27    1
    86    28    29    2
    87    43    40    1
    88    67    64    1
    89    64    63    1
    90    64    65    1
    91    40    41    1
    92    50    51    2
    93   125   126    1
    94   130   129    1
    95   108   109    1
    96    65    66    2
    97    41    42    2
    98   126   127    1
    99   127   128    1
   100    61    60    1
   101   129   128    2
   102   129   131    1
   103    60    57    1
   104    60    62    1
   105    77    79   ar
   106    77    75   ar
   107    79    78   ar
   108    75    74   ar
   109    70    71    1
   110    70    69    1
   111    70    73    1
   112    56    57    1
   113    57    58    1
   114    71    72    2
   115   147   149   ar
   116   147   145   ar
   117   149   148   ar
   118    78    76   ar
   119    74    76   ar
   120    74    73    1
   121    90    88    1
   122   145   144   ar
   123   148   146   ar
   124    58    59    2
   125    80    81    1
   126    87    88    2
   127    87    86    1
   128   144   146   ar
   129   144   143    1
   130    88    89    1
   131    85    86    1
   132    85    84    1
   133   143   140    1
   134   142   141    2
   135    81    84    1
   136    81    82    1
   137   140   141    1
   138   140   139    1
   139    82    83    2
