@<TRIPOS>MOLECULE
tmp/4s2kC00.pdb
 124 118 0 0 0
SMALL
GASTEIGER

@<TRIPOS>ATOM
      1  N         11.7010  -39.4530   23.6800 N.3    49  ALA49      -0.1231
      2  CA        12.2600  -40.4290   24.6260 C.3    49  ALA49       0.1694
      3  C         13.7650  -40.1720   24.7870 C.2    49  ALA49       0.2592
      4  O         14.1340  -39.0150   24.9330 O.2    49  ALA49      -0.2718
      5  CB        11.9790  -41.8550   24.1790 C.3    49  ALA49       0.0304
      6  N         14.6300  -41.2100   24.7000 N.am   50  SER50      -0.1952
      7  CA        16.0760  -41.0460   24.8640 C.3    50  SER50       0.1924
      8  C         16.8000  -40.1980   23.8220 C.2    50  SER50       0.2314
      9  O         17.9560  -39.8710   24.0420 O.2    50  SER50      -0.2863
     10  CB        16.7660  -42.3910   25.0460 C.3    50  SER50       0.2116
     11  OG        16.2930  -43.0470   26.2100 O.3    50  SER50      -0.2180
     12  N         18.2090  -52.1770   33.7500 N.3    82  ILE82      -0.1245
     13  CA        19.3290  -52.1170   32.8150 C.3    82  ILE82       0.1561
     14  C         20.6270  -52.0240   33.6250 C.2    82  ILE82       0.2260
     15  O         20.9200  -50.9790   34.2050 O.2    82  ILE82      -0.2867
     16  CB        19.1040  -51.0280   31.7340 C.3    82  ILE82       0.0252
     17  CG1       17.7950  -51.3460   30.9550 C.3    82  ILE82       0.0019
     18  CG2       20.3190  -50.9280   30.7760 C.3    82  ILE82       0.0019
     19  CD1       17.1600  -50.2020   30.1070 C.3    82  ILE82       0.0001
     20  N         23.3090  -49.2010   33.9750 N.3    85  TRP85      -0.1241
     21  CA        22.9060  -47.9880   34.6840 C.3    85  TRP85       0.1605
     22  C         23.3070  -48.0260   36.1490 C.2    85  TRP85       0.2264
     23  O         23.3490  -46.9750   36.7930 O.2    85  TRP85      -0.2867
     24  CB        21.3870  -47.8100   34.6390 C.3    85  TRP85       0.0550
     25  CG        20.7620  -47.5900   33.2940 C.ar   85  TRP85       0.0003
     26  CD1       21.3600  -47.6590   32.0660 C.ar   85  TRP85       0.0946
     27  CD2       19.3910  -47.2770   33.0570 C.ar   85  TRP85       0.0152
     28  NE1       20.4410  -47.3960   31.0780 N.ar   85  TRP85      -0.2442
     29  CE2       19.2190  -47.1730   31.6580 C.ar   85  TRP85       0.0810
     30  CE3       18.2810  -47.0630   33.8960 C.ar   85  TRP85       0.0012
     31  CZ2       17.9810  -46.8850   31.0800 C.ar   85  TRP85       0.0191
     32  CZ3       17.0580  -46.7660   33.3210 C.ar   85  TRP85       0.0001
     33  CH2       16.9110  -46.7050   31.9300 C.ar   85  TRP85       0.0015
     34  N         25.0410  -45.8610   27.0860 N.3    97  TYR97      -0.1227
     35  CA        24.1210  -46.7910   27.7270 C.3    97  TYR97       0.1736
     36  C         22.7730  -46.1860   28.0400 C.2    97  TYR97       0.2596
     37  O         21.9550  -46.8330   28.6970 O.2    97  TYR97      -0.2718
     38  CB        24.7800  -47.4290   28.9610 C.3    97  TYR97       0.0548
     39  CG        26.0440  -48.1660   28.5890 C.ar   97  TYR97      -0.0200
     40  CD1       25.9940  -49.3250   27.8220 C.ar   97  TYR97      -0.0009
     41  CD2       27.2990  -47.6480   28.9090 C.ar   97  TYR97      -0.0009
     42  CE1       27.1530  -49.9970   27.4500 C.ar   97  TYR97       0.0417
     43  CE2       28.4680  -48.3150   28.5430 C.ar   97  TYR97       0.0417
     44  CZ        28.3870  -49.4900   27.8100 C.ar   97  TYR97       0.1957
     45  OH        29.5020  -50.1920   27.4390 O.3    97  TYR97      -0.2866
     46  N         22.5340  -44.9470   27.5450 N.am   98  SER98      -0.1952
     47  CA        21.2880  -44.1930   27.6700 C.3    98  SER98       0.1924
     48  C         20.7980  -44.2230   29.1220 C.2    98  SER98       0.2314
     49  O         19.6780  -44.6560   29.4220 O.2    98  SER98      -0.2863
     50  CB        20.2570  -44.7510   26.6970 C.3    98  SER98       0.2116
     51  OG        19.3930  -43.7380   26.2180 O.3    98  SER98      -0.2180
     52  N         19.1950  -43.1510   31.9300 N.3   100  VAL100     -0.1245
     53  CA        18.0430  -42.3200   32.3110 C.3   100  VAL100      0.1561
     54  C         18.2390  -41.5330   33.6210 C.2   100  VAL100      0.2260
     55  O         18.0510  -40.3180   33.5760 O.2   100  VAL100     -0.2867
     56  CB        16.7050  -43.1190   32.2630 C.3   100  VAL100      0.0252
     57  CG1       15.5950  -42.4430   33.0660 C.3   100  VAL100      0.0019
     58  CG2       16.2500  -43.3380   30.8360 C.3   100  VAL100      0.0019
     59  N          9.5490  -38.3580   27.9460 N.3   138  LEU138     -0.1245
     60  CA         9.0690  -39.7380   27.9180 C.3   138  LEU138      0.1561
     61  C          7.5470  -39.8370   28.1260 C.2   138  LEU138      0.2260
     62  O          6.9130  -40.7170   27.5420 O.2   138  LEU138     -0.2867
     63  CB         9.8360  -40.5780   28.9550 C.3   138  LEU138      0.0270
     64  CG         9.7330  -42.1110   28.8350 C.3   138  LEU138      0.0019
     65  CD1       10.1320  -42.6130   27.4470 C.3   138  LEU138      0.0001
     66  CD2       10.6050  -42.7770   29.8490 C.3   138  LEU138      0.0001
     67  N         21.7920  -41.1530   18.2750 N.3   188  LYS188     -0.1231
     68  CA        21.1620  -41.4850   19.5370 C.3   188  LYS188      0.1693
     69  C         19.8920  -42.3000   19.3070 C.2   188  LYS188      0.2593
     70  O         19.0310  -41.9230   18.5000 O.2   188  LYS188     -0.2718
     71  CB        20.8770  -40.2330   20.3900 C.3   188  LYS188      0.0285
     72  CG        20.4000  -40.5240   21.8110 C.3   188  LYS188      0.0035
     73  CD        21.5120  -41.1240   22.6990 C.3   188  LYS188      0.0206
     74  CE        20.9820  -41.7450   23.9680 C.3   188  LYS188      0.1093
     75  NZ        20.2500  -43.0040   23.7010 N.3   188  LYS188     -0.1314
     76  N         19.8010  -43.4270   20.0210 N.am  189  THR189     -0.1939
     77  CA        18.6510  -44.3250   19.9940 C.3   189  THR189      0.2028
     78  C         17.6400  -43.8350   21.0180 C.2   189  THR189      0.2643
     79  O         17.9900  -43.1060   21.9440 O.2   189  THR189     -0.2714
     80  CB        19.0610  -45.7630   20.3440 C.3   189  THR189      0.1808
     81  OG1       19.9720  -45.7340   21.4450 O.3   189  THR189     -0.2208
     82  CG2       19.6480  -46.5120   19.1690 C.3   189  THR189      0.0379
     83  N         16.4030  -44.2700   20.8540 N.am  190  GLY190     -0.1939
     84  CA        15.3140  -43.9350   21.7520 C.3   190  GLY190      0.2014
     85  C         14.2590  -45.0110   21.7410 C.2   190  GLY190      0.2638
     86  O         14.0940  -45.7320   20.7520 O.2   190  GLY190     -0.2714
     87  N         13.5460  -45.1250   22.8520 N.am  191  TYR191     -0.1973
     88  CA        12.4750  -46.0850   23.0090 C.3   191  TYR191      0.1639
     89  C         11.4120  -45.4620   23.9090 C.2   191  TYR191      0.2290
     90  O         11.5470  -45.4580   25.1290 O.2   191  TYR191     -0.2864
     91  CB        13.0340  -47.4230   23.5500 C.3   191  TYR191      0.0560
     92  CG        12.0480  -48.5670   23.7040 C.ar  191  TYR191     -0.0198
     93  CD1       12.3430  -49.6590   24.5160 C.ar  191  TYR191     -0.0009
     94  CD2       10.8440  -48.5820   23.0000 C.ar  191  TYR191     -0.0009
     95  CE1       11.4570  -50.7340   24.6360 C.ar  191  TYR191      0.0417
     96  CE2        9.9330  -49.6300   23.1470 C.ar  191  TYR191      0.0417
     97  CZ        10.2600  -50.7210   23.9410 C.ar  191  TYR191      0.1957
     98  OH         9.3910  -51.7800   24.0630 O.3   191  TYR191     -0.2866
     99  N          8.3310  -45.7420   25.6620 N.3   193  THR193     -0.1218
    100  CA         7.6240  -46.8840   26.2640 C.3   193  THR193      0.1862
    101  C          6.3910  -46.5280   27.0960 C.2   193  THR193      0.2287
    102  O          5.6250  -47.4270   27.4530 O.2   193  THR193     -0.2866
    103  CB         8.5850  -47.5850   27.2420 C.3   193  THR193      0.1770
    104  OG1        8.9930  -46.6420   28.2340 O.3   193  THR193     -0.2211
    105  CG2        9.8090  -48.1680   26.5680 C.3   193  THR193      0.0375
    106  N         14.0120  -53.9870   19.0560 N.3   227  LEU227     -0.1245
    107  CA        14.9240  -52.8780   19.3470 C.3   227  LEU227      0.1561
    108  C         16.1240  -52.7420   18.3990 C.2   227  LEU227      0.2260
    109  O         16.4280  -51.6270   17.9750 O.2   227  LEU227     -0.2867
    110  CB        15.3460  -52.7970   20.8260 C.3   227  LEU227      0.0270
    111  CG        14.2870  -52.2370   21.7870 C.3   227  LEU227      0.0019
    112  CD1       14.7390  -52.3760   23.2170 C.3   227  LEU227      0.0001
    113  CD2       13.9570  -50.7640   21.4830 C.3   227  LEU227      0.0001
    114  N         15.9190  -50.7700   14.8920 N.3   230  ARG230     -0.1245
    115  CA        16.1240  -49.3180   14.8080 C.3   230  ARG230      0.1563
    116  C         17.3570  -49.0500   13.9870 C.2   230  ARG230      0.2260
    117  O         17.2450  -48.3970   12.9640 O.2   230  ARG230     -0.2867
    118  CB        16.2340  -48.6650   16.1950 C.3   230  ARG230      0.0307
    119  CG        14.9540  -48.7850   17.0120 C.3   230  ARG230      0.0489
    120  CD        15.1690  -48.3320   18.4350 C.3   230  ARG230      0.2205
    121  NE        16.1870  -49.1300   19.1200 N.pl3 230  ARG230     -0.0865
    122  CZ        16.6780  -48.8480   20.3210 C.cat 230  ARG230      0.5346
    123  NH1       17.6020  -49.6270   20.8640 N.pl3 230  ARG230      0.1354
    124  NH2       16.2190  -47.8100   21.0050 N.pl3 230  ARG230      0.1354
@<TRIPOS>BOND
     1   117   116    2
     2   116   115    1
     3   115   114    1
     4   115   118    1
     5   118   119    1
     6   119   120    1
     7   109   108    2
     8    67    68    1
     9   108   107    1
    10   120   121    1
    11    70    69    2
    12   106   107    1
    13   121   122    2
    14    82    80    1
    15    69    68    1
    16    69    76   am
    17   107   110    1
    18    68    71    1
    19    77    76    1
    20    77    80    1
    21    77    78    1
    22   122   123    1
    23   122   124    1
    24    80    81    1
    25    71    72    1
    26    86    85    2
    27   110   111    1
    28    83    78   am
    29    83    84    1
    30    78    79    2
    31   113   111    1
    32    85    84    1
    33    85    87   am
    34   111   112    1
    35    72    73    1
    36    73    74    1
    37    87    88    1
    38    94    96   ar
    39    94    92   ar
    40    88    91    1
    41    88    89    1
    42    96    97   ar
    43    91    92    1
    44     1     2    1
    45    75    74    1
    46    92    93   ar
    47     8     9    2
    48     8     7    1
    49    89    90    2
    50    97    98    1
    51    97    95   ar
    52     5     2    1
    53    93    95   ar
    54     2     3    1
    55     6     3   am
    56     6     7    1
    57     3     4    2
    58     7    10    1
    59    10    11    1
    60    99   100    1
    61    51    50    1
    62   100   101    1
    63   100   103    1
    64   105   103    1
    65    50    47    1
    66    34    35    1
    67   101   102    2
    68   103   104    1
    69    45    44    1
    70    65    64    1
    71    42    44   ar
    72    42    40   ar
    73    62    61    2
    74    46    47    1
    75    46    36   am
    76    47    48    1
    77    35    36    1
    78    35    38    1
    79    44    43   ar
    80    40    39   ar
    81    60    59    1
    82    60    61    1
    83    60    63    1
    84    36    37    2
    85    43    41   ar
    86    39    41   ar
    87    39    38    1
    88    64    63    1
    89    64    66    1
    90    48    49    2
    91    19    17    1
    92    18    16    1
    93    58    56    1
    94    17    16    1
    95    28    29   ar
    96    28    26   ar
    97    31    29   ar
    98    31    33   ar
    99    29    27   ar
   100    16    13    1
   101    33    32   ar
   102    52    53    1
   103    26    25   ar
   104    56    53    1
   105    56    57    1
   106    53    54    1
   107    13    14    1
   108    13    12    1
   109    27    25   ar
   110    27    30   ar
   111    25    24    1
   112    32    30   ar
   113    55    54    2
   114    14    15    2
   115    20    21    1
   116    24    21    1
   117    21    22    1
   118    22    23    2
