@<TRIPOS>MOLECULE
tmp/4s2xA00.pdb
 217 203 0 0 0
SMALL
GASTEIGER

@<TRIPOS>ATOM
      1  N         28.4920   11.8590   18.8400 N.3     3  ILE3       -0.1245
      2  CA        28.1040   11.3410   20.1470 C.3     3  ILE3        0.1561
      3  C         27.7230   12.4980   21.0740 C.2     3  ILE3        0.2260
      4  O         28.3970   13.5290   21.0860 O.2     3  ILE3       -0.2867
      5  CB        29.2680   10.5190   20.7620 C.3     3  ILE3        0.0252
      6  CG1       29.8030    9.4730   19.7640 C.3     3  ILE3        0.0019
      7  CG2       28.8670    9.8740   22.0790 C.3     3  ILE3        0.0019
      8  CD1       28.7600    8.5920   19.1240 C.3     3  ILE3        0.0001
      9  N         24.6010    7.9840   20.7980 N.3     9  ARG9       -0.1245
     10  CA        24.5720    8.4260   19.4150 C.3     9  ARG9        0.1563
     11  C         23.1120    8.5270   18.9690 C.2     9  ARG9        0.2260
     12  O         22.3770    7.5470   19.0690 O.2     9  ARG9       -0.2867
     13  CB        25.3260    7.4050   18.5600 C.3     9  ARG9        0.0307
     14  CG        25.5990    7.8050   17.1240 C.3     9  ARG9        0.0489
     15  CD        25.9190    6.5670   16.3010 C.3     9  ARG9        0.2205
     16  NE        26.1210    6.8550   14.8830 N.pl3   9  ARG9       -0.0865
     17  CZ        25.8040    6.0250   13.8920 C.cat   9  ARG9        0.5346
     18  NH1       25.2410    4.8470   14.1450 N.pl3   9  ARG9        0.1354
     19  NH2       26.0370    6.3820   12.6360 N.pl3   9  ARG9        0.1354
     20  N         20.0140    8.2830   16.7220 N.3    11  ASN11      -0.1240
     21  CA        19.7940    7.1740   15.7950 C.3    11  ASN11       0.1653
     22  C         18.3200    7.0040   15.4020 C.2    11  ASN11       0.2266
     23  O         17.4310    7.2140   16.2260 O.2    11  ASN11      -0.2867
     24  CB        20.3220    5.8910   16.4510 C.3    11  ASN11       0.1155
     25  CG        20.1520    4.6610   15.5830 C.2    11  ASN11       0.2627
     26  OD1       19.0380    4.1740   15.3800 O.2    11  ASN11      -0.2716
     27  ND2       21.2650    4.1290   15.0940 N.am   11  ASN11      -0.0877
     28  N         22.1660   -8.9230    9.1270 N.3    28  ARG28      -0.1245
     29  CA        23.3970   -8.1380    9.2170 C.3    28  ARG28       0.1563
     30  C         24.4780   -8.7320    8.3240 C.2    28  ARG28       0.2260
     31  O         24.7080   -9.9420    8.3310 O.2    28  ARG28      -0.2867
     32  CB        23.8950   -8.0630   10.6620 C.3    28  ARG28       0.0307
     33  CG        22.9820   -7.2790   11.5940 C.3    28  ARG28       0.0489
     34  CD        23.4720   -7.3400   13.0350 C.3    28  ARG28       0.2205
     35  NE        24.8690   -6.9210   13.1670 N.pl3  28  ARG28      -0.0865
     36  CZ        25.2770   -5.6630   13.3300 C.cat  28  ARG28       0.5346
     37  NH1       26.5730   -5.4000   13.4310 N.pl3  28  ARG28       0.1354
     38  NH2       24.4040   -4.6650   13.3970 N.pl3  28  ARG28       0.1354
     39  N         26.8080  -11.9590    8.7960 N.3    31  GLN31      -0.1245
     40  CA        26.4640  -12.5330   10.0980 C.3    31  GLN31       0.1566
     41  C         25.2080  -13.4000   10.0000 C.2    31  GLN31       0.2260
     42  O         24.5790  -13.4770    8.9410 O.2    31  GLN31      -0.2867
     43  CB        26.2430  -11.4210   11.1270 C.3    31  GLN31       0.0367
     44  CG        27.4660  -10.5550   11.3930 C.3    31  GLN31       0.0905
     45  CD        27.2430   -9.5570   12.5120 C.2    31  GLN31       0.2608
     46  OE1       27.1000   -8.3610   12.2700 O.2    31  GLN31      -0.2717
     47  NE2       27.2050  -10.0470   13.7470 N.am   31  GLN31      -0.0878
     48  N         22.9350  -12.8320   12.4640 N.3    33  SER33      -0.1202
     49  CA        22.1370  -12.0100   13.3650 C.3    33  SER33       0.2020
     50  C         21.3230  -11.0120   12.5480 C.2    33  SER33       0.2619
     51  O         21.8420  -10.4070   11.6100 O.2    33  SER33      -0.2717
     52  CB        23.0500  -11.2710   14.3450 C.3    33  SER33       0.2103
     53  OG        22.3050  -10.4680   15.2410 O.3    33  SER33      -0.2182
     54  N         20.0510  -10.8480   12.9070 N.am   34  TRP34      -0.1961
     55  CA        19.1120  -10.0300   12.1350 C.3    34  TRP34       0.1771
     56  C         18.6140   -8.8490   12.9260 C.2    34  TRP34       0.2619
     57  O         18.5960   -8.8800   14.1590 O.2    34  TRP34      -0.2715
     58  CB        17.9250  -10.8830   11.7080 C.3    34  TRP34       0.0590
     59  CG        18.2450  -12.0500   10.7990 C.ar   34  TRP34       0.0006
     60  CD1       19.0280  -13.1690   11.0830 C.ar   34  TRP34       0.0946
     61  CD2       17.7520  -12.2690    9.4340 C.ar   34  TRP34       0.0152
     62  NE1       19.0670  -14.0240   10.0120 N.ar   34  TRP34      -0.2442
     63  CE2       18.3200  -13.5490    8.9910 C.ar   34  TRP34       0.0810
     64  CE3       16.9290  -11.5580    8.5630 C.ar   34  TRP34       0.0012
     65  CZ2       18.0720  -14.0650    7.7270 C.ar   34  TRP34       0.0191
     66  CZ3       16.6880  -12.0890    7.2890 C.ar   34  TRP34       0.0001
     67  CH2       17.2390  -13.3230    6.8880 C.ar   34  TRP34       0.0015
     68  N         18.1820   -7.8040   12.2250 N.am   35  GLN35      -0.1977
     69  CA        17.6850   -6.5840   12.8700 C.3    35  GLN35       0.1601
     70  C         16.8380   -5.7590   11.9080 C.2    35  GLN35       0.2287
     71  O         16.7620   -6.0650   10.7130 O.2    35  GLN35      -0.2864
     72  CB        18.8540   -5.7350   13.3880 C.3    35  GLN35       0.0394
     73  CG        19.7250   -5.1550   12.2850 C.3    35  GLN35       0.0908
     74  CD        20.7620   -4.1820   12.7970 C.2    35  GLN35       0.2608
     75  OE1       21.7090   -4.5680   13.4750 O.2    35  GLN35      -0.2717
     76  NE2       20.5940   -2.9100   12.4630 N.am   35  GLN35      -0.0878
     77  N         18.6520    0.5680   10.9200 N.3    38  GLN38      -0.1231
     78  CA        18.8560    1.7430   11.7560 C.3    38  GLN38       0.1698
     79  C         20.0670    2.5260   11.2820 C.2    38  GLN38       0.2593
     80  O         20.9980    1.9690   10.7020 O.2    38  GLN38      -0.2718
     81  CB        18.9820    1.3670   13.2360 C.3    38  GLN38       0.0381
     82  CG        20.1520    0.4590   13.5680 C.3    38  GLN38       0.0905
     83  CD        20.2760    0.2050   15.0570 C.2    38  GLN38       0.2608
     84  OE1       19.3830   -0.3740   15.6770 O.2    38  GLN38      -0.2717
     85  NE2       21.3840    0.6410   15.6400 N.am   38  GLN38      -0.0878
     86  N         20.0450    3.8300   11.5070 N.am   39  GLY39      -0.1942
     87  CA        21.1510    4.6600   11.0760 C.3    39  GLY39       0.2014
     88  C         21.3310    5.8950   11.9170 C.2    39  GLY39       0.2639
     89  O         20.4320    6.2820   12.6600 O.2    39  GLY39      -0.2714
     90  N         22.5000    6.5160   11.7840 N.am   40  GLY40      -0.1954
     91  CA        22.8330    7.7150   12.5260 C.3    40  GLY40       0.1869
     92  C         22.1260    8.9390   11.9900 C.2    40  GLY40       0.2309
     93  O         21.7130    8.9860   10.8270 O.2    40  GLY40      -0.2863
     94  N         18.6530    6.7590    5.5100 N.3    54  GLU54      -0.1245
     95  CA        18.9780    5.3660    5.8080 C.3    54  GLU54       0.1567
     96  C         18.0820    4.4120    5.0170 C.2    54  GLU54       0.2260
     97  O         18.5100    3.3210    4.6490 O.2    54  GLU54      -0.2867
     98  CB        18.9040    5.0860    7.3140 C.3    54  GLU54       0.0388
     99  CG        19.7470    6.0190    8.1790 C.3    54  GLU54       0.1160
    100  CD        21.2510    5.8670    7.9910 C.2    54  GLU54       0.3649
    101  OE1       21.7290    4.7700    7.6350 O.co2  54  GLU54      -0.2457
    102  OE2       21.9680    6.8570    8.2300 O.co2  54  GLU54      -0.2457
    103  N         19.7720    4.4760    1.6050 N.3    57  GLU57      -0.1231
    104  CA        21.0910    3.8580    1.7480 C.3    57  GLU57       0.1699
    105  C         21.0310    2.3540    2.0010 C.2    57  GLU57       0.2592
    106  O         21.7190    1.5770    1.3400 O.2    57  GLU57      -0.2718
    107  CB        21.8610    4.5300    2.8880 C.3    57  GLU57       0.0402
    108  CG        23.1400    3.8130    3.2910 C.3    57  GLU57       0.1161
    109  CD        23.6110    4.1980    4.6800 C.2    57  GLU57       0.3649
    110  OE1       23.5440    3.3390    5.5850 O.co2  57  GLU57      -0.2457
    111  OE2       24.0420    5.3560    4.8750 O.co2  57  GLU57      -0.2457
    112  N         20.2150    1.9460    2.9650 N.am   58  GLU58      -0.1979
    113  CA        20.2100    0.5490    3.3890 C.3    58  GLU58       0.1602
    114  C         19.1790   -0.3220    2.6640 C.2    58  GLU58       0.2287
    115  O         19.3930   -1.5190    2.5030 O.2    58  GLU58      -0.2864
    116  CB        20.0420    0.4640    4.9110 C.3    58  GLU58       0.0415
    117  CG        20.9520    1.4360    5.6590 C.3    58  GLU58       0.1163
    118  CD        20.8080    1.3560    7.1710 C.2    58  GLU58       0.3649
    119  OE1       19.8120    0.7670    7.6510 O.co2  58  GLU58      -0.2457
    120  OE2       21.7120    1.8560    7.8840 O.co2  58  GLU58      -0.2457
    121  N         19.4160    2.2110   24.2250 N.3    78  TYR78      -0.1241
    122  CA        20.0770    0.9680   24.6160 C.3    78  TYR78       0.1605
    123  C         21.5720    1.2000   24.7990 C.2    78  TYR78       0.2264
    124  O         22.1660    2.0320   24.1120 O.2    78  TYR78      -0.2867
    125  CB        19.7930   -0.1810   23.6320 C.3    78  TYR78       0.0534
    126  CG        20.4570   -0.1030   22.2640 C.ar   78  TYR78      -0.0201
    127  CD1       21.8020   -0.4440   22.0910 C.ar   78  TYR78      -0.0009
    128  CD2       19.7240    0.2600   21.1340 C.ar   78  TYR78      -0.0009
    129  CE1       22.4010   -0.3890   20.8410 C.ar   78  TYR78       0.0417
    130  CE2       20.3150    0.3140   19.8790 C.ar   78  TYR78       0.0417
    131  CZ        21.6500   -0.0150   19.7370 C.ar   78  TYR78       0.1957
    132  OH        22.2390    0.0340   18.4930 O.3    78  TYR78      -0.2866
    133  N         25.4620   -0.5170   24.8360 N.3    80  LEU80      -0.1245
    134  CA        26.2470   -1.6320   24.3170 C.3    80  LEU80       0.1561
    135  C         26.8290   -2.4520   25.4630 C.2    80  LEU80       0.2260
    136  O         27.0730   -1.9120   26.5440 O.2    80  LEU80      -0.2867
    137  CB        27.3880   -1.1260   23.4290 C.3    80  LEU80       0.0270
    138  CG        27.0690   -0.4290   22.1040 C.3    80  LEU80       0.0019
    139  CD1       28.3450    0.1440   21.5060 C.3    80  LEU80       0.0001
    140  CD2       26.3950   -1.3770   21.1210 C.3    80  LEU80       0.0001
    141  N         31.7860   -4.5690   23.6140 N.3    84  LEU84      -0.1245
    142  CA        31.6150   -3.9950   22.2770 C.3    84  LEU84       0.1561
    143  C         31.9050   -2.4950   22.2030 C.2    84  LEU84       0.2260
    144  O         31.9170   -1.9120   21.1150 O.2    84  LEU84      -0.2867
    145  CB        30.2110   -4.2970   21.7350 C.3    84  LEU84       0.0270
    146  CG        29.7560   -5.7610   21.6640 C.3    84  LEU84       0.0019
    147  CD1       28.3560   -5.8490   21.0770 C.3    84  LEU84       0.0001
    148  CD2       30.7230   -6.6290   20.8660 C.3    84  LEU84       0.0001
    149  N         34.0900    0.3800   21.8050 N.3    86  ARG86      -0.1245
    150  CA        35.4070    0.5720   21.1930 C.3    86  ARG86       0.1563
    151  C         36.1620    1.7400   21.8210 C.2    86  ARG86       0.2260
    152  O         35.6020    2.8150   22.0340 O.2    86  ARG86      -0.2867
    153  CB        35.2790    0.7740   19.6790 C.3    86  ARG86       0.0307
    154  CG        34.7850   -0.4440   18.8850 C.3    86  ARG86       0.0489
    155  CD        35.8350   -1.5170   18.9260 C.3    86  ARG86       0.2205
    156  NE        35.4230   -2.6960   18.1530 N.pl3  86  ARG86      -0.0865
    157  CZ        34.9960   -3.8140   18.7590 C.cat  86  ARG86       0.5346
    158  NH1       34.9750   -3.9800   20.1080 N.pl3  86  ARG86       0.1354
    159  NH2       34.6550   -4.8330   17.9730 N.pl3  86  ARG86       0.1354
    160  N         31.4420    6.0530   22.3230 N.3    90  CYS90      -0.1235
    161  CA        30.0200    5.7470   22.2140 C.3    90  CYS90       0.1677
    162  C         29.6810    4.5080   23.0330 C.2    90  CYS90       0.2270
    163  O         30.2580    3.4370   22.8240 O.2    90  CYS90      -0.2867
    164  CB        29.6200    5.5360   20.7530 C.3    90  CYS90       0.0956
    165  SG        27.8530    5.2430   20.5070 S.3    90  CYS90      -0.0801
    166  N         23.0350    3.8280   21.7910 N.3    93  GLN93      -0.1245
    167  CA        22.2460    4.6280   20.8540 C.3    93  GLN93       0.1566
    168  C         20.9740    5.1550   21.5080 C.2    93  GLN93       0.2260
    169  O         20.3520    4.4620   22.3150 O.2    93  GLN93      -0.2867
    170  CB        21.8740    3.7970   19.6180 C.3    93  GLN93       0.0367
    171  CG        23.0440    3.1160   18.9180 C.3    93  GLN93       0.0905
    172  CD        23.9220    4.0770   18.1410 C.2    93  GLN93       0.2608
    173  OE1       23.4290    4.9490   17.4310 O.2    93  GLN93      -0.2717
    174  NE2       25.2330    3.9150   18.2680 N.am   93  GLN93      -0.0878
    175  N         24.9550   -2.7770    5.0030 N.3   118  GLU118     -0.1245
    176  CA        24.6980   -3.1090    6.3950 C.3   118  GLU118      0.1567
    177  C         23.8220   -4.3460    6.5130 C.2   118  GLU118      0.2260
    178  O         23.5920   -4.8450    7.6140 O.2   118  GLU118     -0.2867
    179  CB        24.1120   -1.9150    7.1310 C.3   118  GLU118      0.0388
    180  CG        25.0320   -0.7120    7.0670 C.3   118  GLU118      0.1160
    181  CD        24.5510    0.4210    7.9350 C.2   118  GLU118      0.3649
    182  OE1       24.1030    0.1420    9.0650 O.co2 118  GLU118     -0.2457
    183  OE2       24.6230    1.5830    7.4830 O.co2 118  GLU118     -0.2457
    184  N         16.1110  -10.5560   17.9170 N.3   134  VAL134     -0.1231
    185  CA        17.1610   -9.5410   17.9310 C.3   134  VAL134      0.1692
    186  C         18.1620   -9.8240   19.0570 C.2   134  VAL134      0.2591
    187  O         17.8050  -10.4320   20.0710 O.2   134  VAL134     -0.2718
    188  CB        16.5740   -8.1130   18.0450 C.3   134  VAL134      0.0266
    189  CG1       16.0490   -7.8370   19.4530 C.3   134  VAL134      0.0020
    190  CG2       17.6050   -7.0740   17.6300 C.3   134  VAL134      0.0020
    191  N         19.4100   -9.3970   18.8640 N.am  135  VAL135     -0.1980
    192  CA        20.4430   -9.5080   19.8980 C.3   135  VAL135      0.1595
    193  C         19.8960   -8.9900   21.2350 C.2   135  VAL135      0.2287
    194  O         19.1590   -8.0000   21.2670 O.2   135  VAL135     -0.2864
    195  CB        21.7450   -8.7760   19.4820 C.3   135  VAL135      0.0276
    196  CG1       21.5480   -7.2630   19.4470 C.3   135  VAL135      0.0022
    197  CG2       22.9070   -9.1620   20.3910 C.3   135  VAL135      0.0022
    198  N         20.7570   -7.2650   23.8600 N.3   137  PHE137     -0.1227
    199  CA        20.8880   -5.8900   24.3650 C.3   137  PHE137      0.1736
    200  C         19.9390   -4.8820   23.7060 C.2   137  PHE137      0.2595
    201  O         19.7830   -3.7620   24.1990 O.2   137  PHE137     -0.2718
    202  CB        22.3520   -5.3990   24.3690 C.3   137  PHE137      0.0547
    203  CG        22.9460   -5.1660   23.0020 C.ar  137  PHE137     -0.0202
    204  CD1       22.7440   -3.9640   22.3270 C.ar  137  PHE137     -0.0042
    205  CD2       23.7540   -6.1330   22.4100 C.ar  137  PHE137     -0.0042
    206  CE1       23.3070   -3.7460   21.0770 C.ar  137  PHE137     -0.0003
    207  CE2       24.3250   -5.9160   21.1630 C.ar  137  PHE137     -0.0003
    208  CZ        24.0990   -4.7230   20.4960 C.ar  137  PHE137     -0.0000
    209  N         19.3030   -5.2880   22.6060 N.am  138  LYS138     -0.1980
    210  CA        18.3220   -4.4520   21.9060 C.3   138  LYS138      0.1596
    211  C         16.8760   -4.8620   22.1990 C.2   138  LYS138      0.2287
    212  O         15.9360   -4.1760   21.7820 O.2   138  LYS138     -0.2864
    213  CB        18.5450   -4.5210   20.3960 C.3   138  LYS138      0.0298
    214  CG        19.7060   -3.6990   19.8680 C.3   138  LYS138      0.0038
    215  CD        19.5860   -3.5880   18.3570 C.3   138  LYS138      0.0206
    216  CE        20.8140   -2.9570   17.7380 C.3   138  LYS138      0.1093
    217  NZ        20.8020   -3.1780   16.2670 N.3   138  LYS138     -0.1314
@<TRIPOS>BOND
     1   106   105    2
     2   103   104    1
     3   104   105    1
     4   104   107    1
     5   105   112   am
     6   115   114    2
     7   114   113    1
     8   107   108    1
     9   112   113    1
    10   108   109    1
    11   113   116    1
    12    97    96    2
    13   109   111   ar
    14   109   110   ar
    15   116   117    1
    16   175   176    1
    17    96    95    1
    18    94    95    1
    19   117   118    1
    20    95    98    1
    21   176   177    1
    22   176   179    1
    23   177   178    2
    24    67    66   ar
    25    67    65   ar
    26   180   179    1
    27   180   181    1
    28   118   119   ar
    29   118   120   ar
    30    66    64   ar
    31    98    99    1
    32   183   181   ar
    33   101   100   ar
    34    65    63   ar
    35   181   182   ar
    36   100    99    1
    37   100   102   ar
    38    30    31    2
    39    30    29    1
    40    64    61   ar
    41    39    40    1
    42    42    41    2
    43    63    61   ar
    44    63    62   ar
    45    28    29    1
    46    29    32    1
    47    61    59   ar
    48    41    40    1
    49    62    60   ar
    50    40    43    1
    51    32    33    1
    52    80    79    2
    53    71    70    2
    54    59    60   ar
    55    59    58    1
    56    93    92    2
    57    77    78    1
    58    87    86    1
    59    87    88    1
    60    43    44    1
    61    79    86   am
    62    79    78    1
    63    44    45    1
    64    33    34    1
    65    51    50    2
    66    58    55    1
    67    78    81    1
    68    90    88   am
    69    90    91    1
    70    70    69    1
    71    88    89    2
    72    92    91    1
    73    55    54    1
    74    55    56    1
    75    68    69    1
    76    68    56   am
    77    46    45    2
    78    73    74    1
    79    73    72    1
    80    76    74   am
    81    48    49    1
    82    45    47   am
    83    50    54   am
    84    50    49    1
    85    19    17    1
    86    74    75    2
    87    69    72    1
    88    56    57    2
    89    34    35    1
    90    35    36    2
    91    81    82    1
    92    36    38    1
    93    36    37    1
    94    49    52    1
    95    82    83    1
    96    17    18    1
    97    17    16    2
    98    52    53    1
    99    16    15    1
   100    83    85   am
   101    83    84    2
   102    27    25   am
   103    26    25    2
   104    22    21    1
   105    22    23    2
   106    25    24    1
   107    21    24    1
   108    21    20    1
   109   217   216    1
   110    15    14    1
   111    14    13    1
   112   173   172    2
   113   190   188    1
   114   216   215    1
   115   184   185    1
   116   185   188    1
   117   185   186    1
   118   159   157    1
   119   188   189    1
   120   172   174   am
   121   172   171    1
   122   156   157    2
   123   156   155    1
   124   215   214    1
   125   132   131    1
   126    13    10    1
   127   157   158    1
   128     1     2    1
   129   191   186   am
   130   191   192    1
   131   154   155    1
   132   154   153    1
   133   171   170    1
   134    11    12    2
   135    11    10    1
   136   186   187    2
   137     8     6    1
   138    10     9    1
   139   196   195    1
   140   195   192    1
   141   195   197    1
   142   170   167    1
   143   153   150    1
   144   131   130   ar
   145   131   129   ar
   146     6     5    1
   147   214   213    1
   148   130   128   ar
   149   192   193    1
   150     2     5    1
   151     2     3    1
   152   213   210    1
   153   208   206   ar
   154   208   207   ar
   155   165   164    1
   156   164   161    1
   157     5     7    1
   158   129   127   ar
   159   167   168    1
   160   167   166    1
   161   148   146    1
   162     3     4    2
   163   147   146    1
   164   206   204   ar
   165   144   143    2
   166   140   138    1
   167   128   126   ar
   168   207   205   ar
   169   150   149    1
   170   150   151    1
   171   193   194    2
   172   139   138    1
   173   168   169    2
   174   146   145    1
   175   145   142    1
   176   212   211    2
   177   151   152    2
   178   210   211    1
   179   210   209    1
   180   127   126   ar
   181   138   137    1
   182   143   142    1
   183   161   160    1
   184   161   162    1
   185   126   125    1
   186   142   141    1
   187   204   203   ar
   188   205   203   ar
   189   209   200   am
   190   163   162    2
   191   203   202    1
   192   137   134    1
   193   125   122    1
   194   200   201    2
   195   200   199    1
   196   198   199    1
   197   124   123    2
   198   121   122    1
   199   134   133    1
   200   134   135    1
   201   199   202    1
   202   122   123    1
   203   135   136    2
