@<TRIPOS>MOLECULE
tmp/4s2yA00.pdb
 193 180 0 0 0
SMALL
GASTEIGER

@<TRIPOS>ATOM
      1  N         23.3850    8.2280   21.5220 N.3     8  ARG8       -0.1245
      2  CA        23.3320    8.7110   20.1570 C.3     8  ARG8        0.1563
      3  C         21.8750    8.7610   19.7310 C.2     8  ARG8        0.2260
      4  O         21.1720    7.7630   19.8690 O.2     8  ARG8       -0.2867
      5  CB        24.1380    7.7950   19.2390 C.3     8  ARG8        0.0307
      6  CG        24.3520    8.3090   17.8280 C.3     8  ARG8        0.0489
      7  CD        25.5280    7.5750   17.2090 C.3     8  ARG8        0.2205
      8  NE        25.6030    7.7160   15.7600 N.pl3   8  ARG8       -0.0865
      9  CZ        25.0400    6.8690   14.9070 C.cat   8  ARG8        0.5346
     10  NH1       25.1580    7.0590   13.5990 N.pl3   8  ARG8        0.1354
     11  NH2       24.3520    5.8300   15.3650 N.pl3   8  ARG8        0.1354
     12  N         18.9240    8.3030   17.3460 N.3    10  ASN10      -0.1240
     13  CA        18.8790    7.2250   16.3780 C.3    10  ASN10       0.1653
     14  C         17.4390    7.0200   15.9190 C.2    10  ASN10       0.2266
     15  O         16.5140    7.2660   16.6980 O.2    10  ASN10      -0.2867
     16  CB        19.4520    5.9590   17.0300 C.3    10  ASN10       0.1155
     17  CG        19.6390    4.8240   16.0620 C.2    10  ASN10       0.2627
     18  OD1       18.6790    4.1430   15.6970 O.2    10  ASN10      -0.2716
     19  ND2       20.8900    4.5880   15.6580 N.am   10  ASN10      -0.0877
     20  N         22.4480   -8.4960    8.8570 N.3    27  ARG27      -0.1245
     21  CA        23.6240   -7.6580    9.0220 C.3    27  ARG27       0.1563
     22  C         24.7540   -8.0860    8.0940 C.2    27  ARG27       0.2260
     23  O         25.0870   -9.2640    8.0290 O.2    27  ARG27      -0.2867
     24  CB        24.0930   -7.6960   10.4810 C.3    27  ARG27       0.0307
     25  CG        23.1380   -6.9350   11.4250 C.3    27  ARG27       0.0489
     26  CD        23.5820   -7.0630   12.8670 C.3    27  ARG27       0.2205
     27  NE        24.9580   -6.6040   13.0240 N.pl3  27  ARG27      -0.0865
     28  CZ        25.2910   -5.3430   13.2690 C.cat  27  ARG27       0.5346
     29  NH1       26.5660   -4.9990   13.3840 N.pl3  27  ARG27       0.1354
     30  NH2       24.3430   -4.4260   13.4030 N.pl3  27  ARG27       0.1354
     31  N         27.5300  -10.8680    8.5500 N.3    30  GLN30      -0.1245
     32  CA        27.3000  -11.4990    9.8420 C.3    30  GLN30       0.1566
     33  C         26.1820  -12.5320    9.7660 C.2    30  GLN30       0.2260
     34  O         25.6630  -12.8080    8.6850 O.2    30  GLN30      -0.2867
     35  CB        26.9660  -10.4470   10.8960 C.3    30  GLN30       0.0367
     36  CG        28.0940   -9.4750   11.1870 C.3    30  GLN30       0.0905
     37  CD        27.6920   -8.4290   12.2140 C.2    30  GLN30       0.2608
     38  OE1       27.7390   -7.2320   11.9420 O.2    30  GLN30      -0.2717
     39  NE2       27.2780   -8.8810   13.3930 N.am   30  GLN30      -0.0878
     40  N         23.5670  -12.3210   12.1620 N.3    32  SER32      -0.1202
     41  CA        22.4720  -11.7850   12.9450 C.3    32  SER32       0.2020
     42  C         21.5830  -10.8790   12.1040 C.2    32  SER32       0.2619
     43  O         22.0260  -10.2620   11.1320 O.2    32  SER32      -0.2717
     44  CB        23.0040  -11.0430   14.1720 C.3    32  SER32       0.2103
     45  OG        23.8640   -9.9810   13.8050 O.3    32  SER32      -0.2182
     46  N         20.3150  -10.8340   12.4770 N.am   33  TRP33      -0.1961
     47  CA        19.3280  -10.0660   11.7430 C.3    33  TRP33       0.1771
     48  C         18.7270   -8.9750   12.6320 C.2    33  TRP33       0.2619
     49  O         18.7760   -9.0700   13.8610 O.2    33  TRP33      -0.2715
     50  CB        18.2160  -10.9710   11.2170 C.3    33  TRP33       0.0590
     51  CG        18.6480  -12.0580   10.2520 C.ar   33  TRP33       0.0006
     52  CD1       19.4860  -13.1010   10.5080 C.ar   33  TRP33       0.0946
     53  CD2       18.1900  -12.2330    8.9010 C.ar   33  TRP33       0.0152
     54  NE1       19.6090  -13.8990    9.3930 N.ar   33  TRP33      -0.2442
     55  CE2       18.8080  -13.3980    8.3990 C.ar   33  TRP33       0.0810
     56  CE3       17.3090  -11.5270    8.0780 C.ar   33  TRP33       0.0012
     57  CZ2       18.6060  -13.8490    7.0930 C.ar   33  TRP33       0.0191
     58  CZ3       17.0970  -11.9800    6.7840 C.ar   33  TRP33       0.0001
     59  CH2       17.7410  -13.1360    6.3080 C.ar   33  TRP33       0.0015
     60  N         18.1730   -7.9450   12.0050 N.am   34  GLN34      -0.1977
     61  CA        17.6200   -6.8100   12.7520 C.3    34  GLN34       0.1601
     62  C         16.7610   -5.9400   11.8540 C.2    34  GLN34       0.2287
     63  O         16.6950   -6.1690   10.6540 O.2    34  GLN34      -0.2864
     64  CB        18.7370   -5.9590   13.3370 C.3    34  GLN34       0.0394
     65  CG        19.5550   -5.2600   12.2500 C.3    34  GLN34       0.0908
     66  CD        20.5630   -4.2700   12.8090 C.2    34  GLN34       0.2608
     67  OE1       21.6130   -4.6540   13.3170 O.2    34  GLN34      -0.2717
     68  NE2       20.2470   -2.9840   12.7070 N.am   34  GLN34      -0.0878
     69  N         18.2600    0.6080   11.3550 N.3    37  GLN37      -0.1231
     70  CA        18.3330    1.7530   12.2610 C.3    37  GLN37       0.1698
     71  C         19.5210    2.6280   11.8880 C.2    37  GLN37       0.2593
     72  O         20.5150    2.1550   11.3350 O.2    37  GLN37      -0.2718
     73  CB        18.4170    1.3020   13.7140 C.3    37  GLN37       0.0381
     74  CG        19.5870    0.4190   14.0150 C.3    37  GLN37       0.0905
     75  CD        19.6890    0.0920   15.4880 C.2    37  GLN37       0.2608
     76  OE1       18.8250   -0.5860   16.0510 O.2    37  GLN37      -0.2717
     77  NE2       20.7440    0.5890   16.1270 N.am   37  GLN37      -0.0878
     78  N         19.4100    3.9200   12.1610 N.am   38  GLY38      -0.1942
     79  CA        20.4550    4.8320   11.7610 C.3    38  GLY38       0.2014
     80  C         20.5370    6.0610   12.6320 C.2    38  GLY38       0.2639
     81  O         19.5570    6.4460   13.2820 O.2    38  GLY38      -0.2714
     82  N         21.7060    6.6880   12.6260 N.am   39  GLY39      -0.1954
     83  CA        21.9290    7.8640   13.4390 C.3    39  GLY39       0.1869
     84  C         21.2530    9.0730   12.8240 C.2    39  GLY39       0.2309
     85  O         21.1910    9.2030   11.6080 O.2    39  GLY39      -0.2863
     86  N         18.0670    7.2030    5.9400 N.3    53  GLU53      -0.1245
     87  CA        18.5940    5.8840    6.2640 C.3    53  GLU53       0.1567
     88  C         17.7760    4.8020    5.5750 C.2    53  GLU53       0.2260
     89  O         18.3100    3.7410    5.2300 O.2    53  GLU53      -0.2867
     90  CB        18.6230    5.6800    7.7820 C.3    53  GLU53       0.0388
     91  CG        19.6520    6.5670    8.5030 C.3    53  GLU53       0.1160
     92  CD        21.0800    5.9970    8.5260 C.2    53  GLU53       0.3649
     93  OE1       21.2660    4.7950    8.2230 O.co2  53  GLU53      -0.2457
     94  OE2       22.0120    6.7580    8.8730 O.co2  53  GLU53      -0.2457
     95  N         19.9990    2.2530    3.5440 N.3    57  GLU57      -0.1245
     96  CA        20.0870    0.8600    3.9920 C.3    57  GLU57       0.1567
     97  C         19.2000   -0.1060    3.2040 C.2    57  GLU57       0.2260
     98  O         19.5890   -1.2610    3.0490 O.2    57  GLU57      -0.2867
     99  CB        19.7570    0.7610    5.4910 C.3    57  GLU57       0.0388
    100  CG        20.6440    1.6490    6.3330 C.3    57  GLU57       0.1160
    101  CD        20.6120    1.3160    7.8090 C.2    57  GLU57       0.3649
    102  OE1       19.8060    0.4550    8.2270 O.co2  57  GLU57      -0.2457
    103  OE2       21.4470    1.9140    8.5410 O.co2  57  GLU57      -0.2457
    104  N         18.5390    2.0300   24.7360 N.3    77  TYR77      -0.1241
    105  CA        19.2790    0.8440   25.1510 C.3    77  TYR77       0.1605
    106  C         20.7550    1.1890   25.3040 C.2    77  TYR77       0.2264
    107  O         21.2710    2.0760   24.6240 O.2    77  TYR77      -0.2867
    108  CB        19.0950   -0.3260   24.1680 C.3    77  TYR77       0.0534
    109  CG        19.7520   -0.1930   22.8040 C.ar   77  TYR77      -0.0201
    110  CD1       21.1000   -0.4860   22.6200 C.ar   77  TYR77      -0.0009
    111  CD2       19.0110    0.1830   21.6960 C.ar   77  TYR77      -0.0009
    112  CE1       21.6930   -0.3850   21.3630 C.ar   77  TYR77       0.0417
    113  CE2       19.5870    0.2830   20.4400 C.ar   77  TYR77       0.0417
    114  CZ        20.9240    0.0000   20.2750 C.ar   77  TYR77       0.1957
    115  OH        21.4900    0.1050   19.0190 O.3    77  TYR77      -0.2866
    116  N         24.7920   -0.1380   25.2100 N.3    79  LEU79      -0.1245
    117  CA        25.6690   -1.1560   24.6530 C.3    79  LEU79       0.1561
    118  C         26.3040   -1.9940   25.7540 C.2    79  LEU79       0.2260
    119  O         26.5790   -1.4870   26.8430 O.2    79  LEU79      -0.2867
    120  CB        26.7660   -0.5140   23.8060 C.3    79  LEU79       0.0270
    121  CG        26.3050    0.3410   22.6320 C.3    79  LEU79       0.0019
    122  CD1       27.5110    0.8270   21.8430 C.3    79  LEU79       0.0001
    123  CD2       25.3540   -0.4560   21.7570 C.3    79  LEU79       0.0001
    124  N         31.3640   -3.9130   24.0640 N.3    83  LEU83      -0.1245
    125  CA        31.1580   -3.3780   22.7220 C.3    83  LEU83       0.1561
    126  C         31.2750   -1.8570   22.6640 C.2    83  LEU83       0.2260
    127  O         31.0390   -1.2520   21.6200 O.2    83  LEU83      -0.2867
    128  CB        29.7920   -3.8120   22.1830 C.3    83  LEU83       0.0270
    129  CG        29.6310   -5.3170   21.9580 C.3    83  LEU83       0.0019
    130  CD1       28.2340   -5.6560   21.4510 C.3    83  LEU83       0.0001
    131  CD2       30.6950   -5.8290   20.9980 C.3    83  LEU83       0.0001
    132  N         33.0210    1.6370   22.2650 N.3    85  ARG85      -0.1245
    133  CA        34.1930    2.1200   21.5410 C.3    85  ARG85       0.1563
    134  C         34.4750    3.5900   21.8490 C.2    85  ARG85       0.2260
    135  O         35.2590    3.9100   22.7470 O.2    85  ARG85      -0.2867
    136  CB        34.0080    1.9240   20.0350 C.3    85  ARG85       0.0307
    137  CG        33.9040    0.4480   19.6010 C.3    85  ARG85       0.0489
    138  CD        35.2850   -0.1230   19.5730 C.3    85  ARG85       0.2205
    139  NE        35.4200   -1.5250   19.1840 N.pl3  85  ARG85      -0.0865
    140  CZ        35.0380   -2.5600   19.9350 C.cat  85  ARG85       0.5346
    141  NH1       34.4910   -2.4040   21.1490 N.pl3  85  ARG85       0.1354
    142  NH2       35.2250   -3.7850   19.4460 N.pl3  85  ARG85       0.1354
    143  N         30.1300    7.0380   23.2750 N.3    87  CYS87      -0.1235
    144  CA        28.7610    6.5730   23.0820 C.3    87  CYS87       0.1677
    145  C         28.4720    5.2680   23.8190 C.2    87  CYS87       0.2270
    146  O         29.0140    4.2180   23.4750 O.2    87  CYS87      -0.2867
    147  CB        28.4790    6.3970   21.5920 C.3    87  CYS87       0.0956
    148  SG        26.8680    5.6900   21.2350 S.3    87  CYS87      -0.0801
    149  N         22.1100    3.9960   22.4340 N.3    90  GLN90      -0.1245
    150  CA        21.3250    4.7870   21.4980 C.3    90  GLN90       0.1566
    151  C         19.9740    5.1490   22.0980 C.2    90  GLN90       0.2260
    152  O         19.4060    4.3900   22.8870 O.2    90  GLN90      -0.2867
    153  CB        21.1540    4.0370   20.1740 C.3    90  GLN90       0.0367
    154  CG        22.4520    3.4690   19.6200 C.3    90  GLN90       0.0905
    155  CD        22.6610    3.7920   18.1520 C.2    90  GLN90       0.2608
    156  OE1       22.5750    4.9510   17.7400 O.2    90  GLN90      -0.2717
    157  NE2       22.9410    2.7680   17.3560 N.am   90  GLN90      -0.0878
    158  N         24.8240   -1.9390    4.8340 N.3   115  GLU115     -0.1245
    159  CA        24.7270   -2.4180    6.2030 C.3   115  GLU115      0.1567
    160  C         24.0860   -3.7950    6.2760 C.2   115  GLU115      0.2260
    161  O         24.2250   -4.4880    7.2800 O.2   115  GLU115     -0.2867
    162  CB        23.9770   -1.4100    7.0700 C.3   115  GLU115      0.0388
    163  CG        24.9240   -0.3440    7.5880 C.3   115  GLU115      0.1160
    164  CD        24.2170    0.7360    8.3650 C.2   115  GLU115      0.3649
    165  OE1       24.2590    1.8990    7.9140 O.co2 115  GLU115     -0.2457
    166  OE2       23.6160    0.4110    9.4120 O.co2 115  GLU115     -0.2457
    167  N         19.4470   -9.4620   18.7810 N.3   132  VAL132     -0.1245
    168  CA        20.4990   -9.5480   19.7820 C.3   132  VAL132      0.1561
    169  C         19.9510   -9.0900   21.1380 C.2   132  VAL132      0.2260
    170  O         19.1150   -8.1820   21.2080 O.2   132  VAL132     -0.2867
    171  CB        21.7300   -8.7140   19.3580 C.3   132  VAL132      0.0252
    172  CG1       21.3960   -7.2250   19.3340 C.3   132  VAL132      0.0019
    173  CG2       22.9270   -8.9980   20.2590 C.3   132  VAL132      0.0019
    174  N         20.6970   -7.3170   23.7810 N.3   134  PHE134     -0.1227
    175  CA        20.6790   -5.9910   24.3960 C.3   134  PHE134      0.1736
    176  C         19.6710   -5.0430   23.7320 C.2   134  PHE134      0.2595
    177  O         19.4260   -3.9500   24.2500 O.2   134  PHE134     -0.2718
    178  CB        22.0840   -5.3610   24.4130 C.3   134  PHE134      0.0547
    179  CG        22.6840   -5.1070   23.0520 C.ar  134  PHE134     -0.0202
    180  CD1       22.4110   -3.9340   22.3620 C.ar  134  PHE134     -0.0042
    181  CD2       23.5690   -6.0160   22.4920 C.ar  134  PHE134     -0.0042
    182  CE1       22.9780   -3.6860   21.1240 C.ar  134  PHE134     -0.0003
    183  CE2       24.1450   -5.7730   21.2520 C.ar  134  PHE134     -0.0003
    184  CZ        23.8480   -4.6090   20.5700 C.ar  134  PHE134     -0.0000
    185  N         19.0650   -5.4710   22.6220 N.am  135  LYS135     -0.1980
    186  CA        18.0220   -4.6840   21.9720 C.3   135  LYS135      0.1596
    187  C         16.6140   -5.2210   22.2370 C.2   135  LYS135      0.2287
    188  O         15.6280   -4.6420   21.7740 O.2   135  LYS135     -0.2864
    189  CB        18.2280   -4.6500   20.4510 C.3   135  LYS135      0.0298
    190  CG        19.4220   -3.8360   19.9640 C.3   135  LYS135      0.0038
    191  CD        19.4790   -3.8580   18.4390 C.3   135  LYS135      0.0206
    192  CE        20.7280   -3.1530   17.9350 C.3   135  LYS135      0.1093
    193  NZ        20.7590   -3.1300   16.4410 N.3   135  LYS135     -0.1314
@<TRIPOS>BOND
     1    98    97    2
     2    97    96    1
     3    95    96    1
     4    96    99    1
     5   158   159    1
     6    89    88    2
     7    99   100    1
     8    88    87    1
     9    86    87    1
    10   159   160    1
    11   159   162    1
    12    87    90    1
    13   160   161    2
    14    59    58   ar
    15    59    57   ar
    16   100   101    1
    17    58    56   ar
    18   162   163    1
    19    57    55   ar
    20   163   164    1
    21    90    91    1
    22   101   102   ar
    23   101   103   ar
    24   165   164   ar
    25    23    22    2
    26    56    53   ar
    27    22    21    1
    28    93    92   ar
    29   164   166   ar
    30    55    53   ar
    31    55    54   ar
    32    91    92    1
    33    92    94   ar
    34    31    32    1
    35    34    33    2
    36    20    21    1
    37    53    51   ar
    38    21    24    1
    39    54    52   ar
    40    33    32    1
    41    32    35    1
    42    51    52   ar
    43    51    50    1
    44    24    25    1
    45    63    62    2
    46    35    36    1
    47    43    42    2
    48    36    37    1
    49    50    47    1
    50    72    71    2
    51    69    70    1
    52    25    26    1
    53    85    84    2
    54    47    46    1
    55    47    48    1
    56    79    78    1
    57    79    80    1
    58    62    61    1
    59    71    78   am
    60    71    70    1
    61    38    37    2
    62    60    48   am
    63    60    61    1
    64    42    46   am
    65    42    41    1
    66    40    41    1
    67    37    39   am
    68    65    66    1
    69    65    64    1
    70    70    73    1
    71    82    80   am
    72    82    83    1
    73    48    49    2
    74    80    81    2
    75    68    66   am
    76    61    64    1
    77    66    67    2
    78    84    83    1
    79    26    27    1
    80    41    44    1
    81    27    28    2
    82    28    29    1
    83    28    30    1
    84    10     9    1
    85    73    74    1
    86    45    44    1
    87    74    75    1
    88     9    11    1
    89     9     8    2
    90    75    76    2
    91    75    77   am
    92    19    17   am
    93    18    17    2
    94     8     7    1
    95    14    13    1
    96    14    15    2
    97    17    16    1
    98    13    16    1
    99    13    12    1
   100   193   192    1
   101     7     6    1
   102   157   155   am
   103   156   155    2
   104     6     5    1
   105   192   191    1
   106   155   154    1
   107   191   190    1
   108   167   168    1
   109   115   114    1
   110   139   138    1
   111   139   140    2
   112     5     2    1
   113   172   171    1
   114   171   168    1
   115   171   173    1
   116   142   140    1
   117   138   137    1
   118   137   136    1
   119   154   153    1
   120     3     4    2
   121     3     2    1
   122   168   169    1
   123   140   141    1
   124   190   189    1
   125   136   133    1
   126     2     1    1
   127   153   150    1
   128   114   113   ar
   129   114   112   ar
   130   113   111   ar
   131   189   186    1
   132   184   182   ar
   133   184   183   ar
   134   131   129    1
   135   182   180   ar
   136   169   170    2
   137   148   147    1
   138   183   181   ar
   139   112   110   ar
   140   130   129    1
   141   150   151    1
   142   150   149    1
   143   133   134    1
   144   133   132    1
   145   147   144    1
   146   127   126    2
   147   111   109   ar
   148   123   121    1
   149   188   187    2
   150   122   121    1
   151   134   135    2
   152   129   128    1
   153   186   187    1
   154   186   185    1
   155   151   152    2
   156   128   125    1
   157   180   179   ar
   158   181   179   ar
   159   110   109   ar
   160   185   176   am
   161   121   120    1
   162   126   125    1
   163   125   124    1
   164   109   108    1
   165   179   178    1
   166   144   143    1
   167   144   145    1
   168   146   145    2
   169   176   177    2
   170   176   175    1
   171   174   175    1
   172   120   117    1
   173   108   105    1
   174   175   178    1
   175   107   106    2
   176   117   116    1
   177   117   118    1
   178   104   105    1
   179   105   106    1
   180   118   119    2
