@<TRIPOS>MOLECULE
tmp/4s32A00.pdb
 161 151 0 0 0
SMALL
GASTEIGER

@<TRIPOS>ATOM
      1  N        -10.0650   11.9120   10.2650 N.3    21  ILE21      -0.1231
      2  CA        -9.7640   11.4370   11.6060 C.3    21  ILE21       0.1692
      3  C         -8.5700   12.1620   12.1410 C.2    21  ILE21       0.2593
      4  O         -8.6380   12.6530   13.2480 O.2    21  ILE21      -0.2718
      5  CB        -9.4930    9.9110   11.6900 C.3    21  ILE21       0.0266
      6  CG1      -10.7730    9.1340   11.4780 C.3    21  ILE21       0.0019
      7  CG2       -8.9690    9.6020   13.0850 C.3    21  ILE21       0.0020
      8  CD1      -10.5490    7.6460   11.2330 C.3    21  ILE21       0.0001
      9  N         -7.4840   12.2450   11.3960 N.am   22  GLY22      -0.1942
     10  CA        -6.2770   12.8760   11.8830 C.3    22  GLY22       0.2014
     11  C         -5.2020   12.8810   10.8640 C.2    22  GLY22       0.2639
     12  O         -5.4320   12.4600    9.7220 O.2    22  GLY22      -0.2714
     13  N         -4.0320   13.3670   11.2340 N.am   23  GLU23      -0.1963
     14  CA        -2.9230   13.4490   10.3060 C.3    23  GLU23       0.1733
     15  C         -1.7400   12.5450   10.6410 C.2    23  GLU23       0.2617
     16  O         -1.0980   12.6890   11.6710 O.2    23  GLU23      -0.2715
     17  CB        -2.4820   14.8920   10.1360 C.3    23  GLU23       0.0429
     18  CG        -3.4170   15.6990    9.2440 C.3    23  GLU23       0.1163
     19  CD        -2.8050   16.0030    7.8820 C.2    23  GLU23       0.3649
     20  OE1       -2.1350   15.1070    7.3050 O.co2  23  GLU23      -0.2457
     21  OE2       -2.9910   17.1440    7.3930 O.co2  23  GLU23      -0.2457
     22  N         -1.4810   11.5930    9.7390 N.am   24  GLY24      -0.1940
     23  CA        -0.3640   10.6690    9.8550 C.3    24  GLY24       0.2014
     24  C          0.9530   11.3410    9.5140 C.2    24  GLY24       0.2638
     25  O          1.0030   12.5530    9.2150 O.2    24  GLY24      -0.2714
     26  N          2.0220   10.5530    9.5690 N.am   25  ALA25      -0.1977
     27  CA         3.3570   11.0540    9.2840 C.3    25  ALA25       0.1597
     28  C          3.4800   11.5900    7.8440 C.2    25  ALA25       0.2287
     29  O          3.9150   12.7310    7.6510 O.2    25  ALA25      -0.2864
     30  CB         4.3920    9.9780    9.5540 C.3    25  ALA25       0.0319
     31  N         -5.4410   10.5830    7.6530 N.3    29  VAL29      -0.1245
     32  CA        -6.2510    9.4040    7.9320 C.3    29  VAL29       0.1561
     33  C         -7.6980    9.8160    7.9690 C.2    29  VAL29       0.2260
     34  O         -8.0130   10.8070    8.6360 O.2    29  VAL29      -0.2867
     35  CB        -5.8810    8.8040    9.2890 C.3    29  VAL29       0.0252
     36  CG1       -6.7030    7.5630    9.5370 C.3    29  VAL29       0.0019
     37  CG2       -4.4100    8.4980    9.3490 C.3    29  VAL29       0.0019
     38  N        -10.8980    2.4650    8.1520 N.3    42  ALA42      -0.1245
     39  CA        -9.9810    3.5570    8.1890 C.3    42  ALA42       0.1562
     40  C         -9.0950    3.4800    6.9770 C.2    42  ALA42       0.2260
     41  O         -8.7370    2.3690    6.5010 O.2    42  ALA42      -0.2867
     42  CB        -9.0770    3.4940    9.4260 C.3    42  ALA42       0.0290
     43  N         -5.6240    5.4230    5.3310 N.3    44  LYS44      -0.1245
     44  CA        -4.5030    6.2970    5.4940 C.3    44  LYS44       0.1561
     45  C         -3.8950    6.5920    4.1160 C.2    44  LYS44       0.2260
     46  O         -3.3790    5.7010    3.4150 O.2    44  LYS44      -0.2867
     47  CB        -3.4540    5.6820    6.3800 C.3    44  LYS44       0.0271
     48  CG        -4.0170    5.0060    7.6070 C.3    44  LYS44       0.0035
     49  CD        -2.8770    4.5010    8.4770 C.3    44  LYS44       0.0206
     50  CE        -2.3350    3.1820    7.9180 C.3    44  LYS44       0.1093
     51  NZ        -0.8540    3.1860    7.7450 N.3    44  LYS44      -0.1314
     52  N         -2.6040   -4.6540   13.9460 N.3    74  ILE74      -0.1245
     53  CA        -3.5360   -4.1750   12.9100 C.3    74  ILE74       0.1561
     54  C         -3.2460   -4.8350   11.5610 C.2    74  ILE74       0.2260
     55  O         -2.0760   -5.0190   11.1890 O.2    74  ILE74      -0.2867
     56  CB        -3.4780   -2.6460   12.8490 C.3    74  ILE74       0.0252
     57  CG1       -4.6900   -2.0870   12.0590 C.3    74  ILE74       0.0019
     58  CG2       -2.1620   -2.1670   12.2710 C.3    74  ILE74       0.0019
     59  CD1       -6.0290   -2.1380   12.7100 C.3    74  ILE74       0.0001
     60  N         -7.5010   -0.1860    6.6210 N.3    95  GLN95      -0.1231
     61  CA        -7.5240   -1.0370    7.8400 C.3    95  GLN95       0.1698
     62  C         -8.8920   -1.0440    8.4930 C.2    95  GLN95       0.2592
     63  O         -9.7030   -0.1130    8.3320 O.2    95  GLN95      -0.2718
     64  CB        -6.5190   -0.5020    8.8700 C.3    95  GLN95       0.0381
     65  CG        -5.1140   -0.3620    8.3490 C.3    95  GLN95       0.0905
     66  CD        -4.1810    0.2780    9.3560 C.2    95  GLN95       0.2608
     67  OE1       -4.5620    1.0440   10.2440 O.2    95  GLN95      -0.2717
     68  NE2       -2.8840    0.0030    9.1340 N.am   95  GLN95      -0.0878
     69  N         -9.0670   -1.9900    9.4330 N.am   96  ASP96      -0.1960
     70  CA       -10.2460   -1.8600   10.2920 C.3    96  ASP96       0.1840
     71  C        -10.3120   -0.5260   11.0000 C.2    96  ASP96       0.2622
     72  O         -9.3010    0.0340   11.4360 O.2    96  ASP96      -0.2715
     73  CB       -10.2390   -2.9110   11.4030 C.3    96  ASP96       0.1450
     74  CG       -10.2760   -4.3010   10.9100 C.2    96  ASP96       0.3671
     75  OD1      -10.7520   -4.5320    9.7750 O.co2  96  ASP96      -0.2456
     76  OD2       -9.7890   -5.2210   11.6370 O.co2  96  ASP96      -0.2456
     77  N        -11.5020    0.0190   11.1920 N.am   97  LEU97      -0.1963
     78  CA       -11.6620    1.2620   11.8060 C.3    97  LEU97       0.1728
     79  C        -11.6240    1.0220   13.3080 C.2    97  LEU97       0.2616
     80  O        -12.3810    0.2180   13.8740 O.2    97  LEU97      -0.2715
     81  CB       -13.0180    1.8600   11.3690 C.3    97  LEU97       0.0311
     82  CG       -13.3240    3.2280   11.9520 C.3    97  LEU97       0.0022
     83  CD1      -12.2650    4.2370   11.5930 C.3    97  LEU97       0.0001
     84  CD2      -14.7430    3.7560   11.6020 C.3    97  LEU97       0.0001
     85  N        -10.6940    1.7020   13.9200 N.am   98  MET98      -0.1963
     86  CA       -10.5950    1.6590   15.3720 C.3    98  MET98       0.1736
     87  C        -11.2190    2.9590   15.8980 C.2    98  MET98       0.2616
     88  O        -11.4600    3.8780   15.1140 O.2    98  MET98      -0.2715
     89  CB        -9.1230    1.3550   15.7750 C.3    98  MET98       0.0427
     90  CG        -8.6470    0.0250   15.2060 C.3    98  MET98       0.0599
     91  SD        -9.4470   -1.4660   15.8140 S.3    98  MET98      -0.1393
     92  CE        -8.4970   -1.6260   17.3460 C.3    98  MET98       0.0692
     93  N        -11.6270    2.9710   17.1390 N.am   99  GLU99      -0.1963
     94  CA       -12.3250    4.0810   17.8020 C.3    99  GLU99       0.1733
     95  C        -11.3190    5.1660   18.1930 C.2    99  GLU99       0.2617
     96  O        -11.5080    6.3920   18.0880 O.2    99  GLU99      -0.2715
     97  CB       -13.0910    3.5820   19.0670 C.3    99  GLU99       0.0429
     98  CG       -13.7030    4.7190   19.9510 C.3    99  GLU99       0.1163
     99  CD       -14.7700    4.3510   21.0280 C.2    99  GLU99       0.3649
    100  OE1      -15.8880    4.8610   20.8500 O.co2  99  GLU99      -0.2457
    101  OE2      -14.5430    3.6930   22.1120 O.co2  99  GLU99      -0.2457
    102  N        -10.1430    4.7570   18.6950 N.am  100  THR100     -0.1937
    103  CA        -9.2140    5.6970   19.2590 C.3   100  THR100      0.2028
    104  C         -7.8340    5.0510   19.3390 C.2   100  THR100      0.2642
    105  O         -7.6650    3.9370   18.8860 O.2   100  THR100     -0.2714
    106  CB        -9.7090    6.1930   20.6480 C.3   100  THR100      0.1808
    107  OG1       -8.9410    7.3540   21.0350 O.3   100  THR100     -0.2208
    108  CG2       -9.7450    5.1500   21.7650 C.3   100  THR100      0.0379
    109  N         -6.9260    5.7540   19.9840 N.am  101  ASP101     -0.1971
    110  CA        -5.5950    5.1000   20.3290 C.3   101  ASP101      0.1709
    111  C         -5.3190    5.4160   21.7260 C.2   101  ASP101      0.2293
    112  O         -6.0130    6.2590   22.3820 O.2   101  ASP101     -0.2864
    113  CB        -4.5190    5.5360   19.3890 C.3   101  ASP101      0.1436
    114  CG        -4.1980    6.9920   19.4470 C.2   101  ASP101      0.3671
    115  OD1       -3.9370    7.4340   20.5540 O.co2 101  ASP101     -0.2456
    116  OD2       -4.0830    7.6470   18.3840 O.co2 101  ASP101     -0.2456
    117  N         -4.6770    9.1080   22.7720 N.3   104  LYS104     -0.1197
    118  CA        -5.8810   10.0440   22.8180 C.3   104  LYS104      0.1778
    119  C         -6.6700    9.6110   23.9930 C.2   104  LYS104      0.2305
    120  O         -7.1740   10.4780   24.7530 O.2   104  LYS104     -0.2863
    121  CB        -6.6140    9.9430   21.4750 C.2   104  LYS104     -0.0042
    122  CG        -5.9260   10.4740   20.3050 C.2   104  LYS104     -0.0273
    123  CD        -6.6880   10.4620   18.9560 C.3   104  LYS104      0.0462
    124  CE        -7.2040    9.1040   18.4440 C.3   104  LYS104      0.1140
    125  NZ        -7.6730    9.2490   17.0200 N.3   104  LYS104     -0.1310
    126  N          0.3660    6.0940   21.2550 N.3   143  SER143     -0.1202
    127  CA        -0.2850    6.4230   20.0310 C.3   143  SER143      0.2020
    128  C         -0.2350    5.3450   18.9960 C.2   143  SER143      0.2618
    129  O         -0.9010    5.3680   17.9750 O.2   143  SER143     -0.2717
    130  CB         0.2480    7.6780   19.4250 C.3   143  SER143      0.2103
    131  OG         1.6150    7.5440   19.0860 O.3   143  SER143     -0.2182
    132  N          0.6350    4.3180   19.2090 N.am  144  ASN144     -0.1974
    133  CA         0.7590    3.1900   18.3020 C.3   144  ASN144      0.1688
    134  C          0.0210    1.9700   18.8190 C.2   144  ASN144      0.2292
    135  O          0.2140    0.8430   18.3470 O.2   144  ASN144     -0.2864
    136  CB         2.2160    2.8700   18.0190 C.3   144  ASN144      0.1181
    137  CG         2.8990    3.9120   17.1940 C.2   144  ASN144      0.2629
    138  OD1        4.1960    4.0550   17.1740 O.2   144  ASN144     -0.2716
    139  ND2        2.1330    4.6490   16.4140 N.am  144  ASN144     -0.0877
    140  N         -3.9270    0.9340   18.9510 N.3   146  LEU146     -0.1245
    141  CA        -5.2480    1.2790   18.5290 C.3   146  LEU146      0.1561
    142  C         -6.2170    0.5180   19.4020 C.2   146  LEU146      0.2260
    143  O         -6.0370   -0.6140   19.7790 O.2   146  LEU146     -0.2867
    144  CB        -5.4880    1.0070   17.1040 C.3   146  LEU146      0.0270
    145  CG        -4.5140    1.5770   16.0960 C.3   146  LEU146      0.0019
    146  CD1       -4.6500    1.0400   14.7050 C.3   146  LEU146      0.0001
    147  CD2       -4.5590    3.0910   16.1070 C.3   146  LEU146      0.0001
    148  N          0.0570   -0.9750   16.0490 N.3   156  CYS156     -0.1221
    149  CA         0.1930   -0.4440   14.7030 C.3   156  CYS156      0.1808
    150  C          1.5900    0.2240   14.6070 C.2   156  CYS156      0.2601
    151  O          2.3600    0.2580   15.5150 O.2   156  CYS156     -0.2717
    152  CB        -0.9510    0.5250   14.3990 C.3   156  CYS156      0.0970
    153  SG        -0.9140    2.0860   15.2510 S.3   156  CYS156     -0.0800
    154  N          1.8820    0.7020   13.3860 N.am  157  ASP157     -0.1973
    155  CA         3.0630    1.5490   13.0460 C.3   157  ASP157      0.1709
    156  C          4.4010    0.8300   13.2160 C.2   157  ASP157      0.2293
    157  O          5.1350    1.0500   14.1620 O.2   157  ASP157     -0.2864
    158  CB         3.0980    2.8170   13.8040 C.3   157  ASP157      0.1436
    159  CG         4.0600    3.8140   13.1990 C.2   157  ASP157      0.3671
    160  OD1        4.9200    3.4360   12.3760 O.co2 157  ASP157     -0.2456
    161  OD2        3.9510    4.9660   13.6730 O.co2 157  ASP157     -0.2456
@<TRIPOS>BOND
     1    46    45    2
     2    45    44    1
     3    43    44    1
     4    44    47    1
     5    47    48    1
     6    41    40    2
     7    60    61    1
     8    40    39    1
     9    20    19   ar
    10    21    19   ar
    11    48    49    1
    12    29    28    2
    13    31    32    1
    14    51    50    1
    15    61    62    1
    16    61    64    1
    17    28    27    1
    18    19    18    1
    19    50    49    1
    20    32    33    1
    21    32    35    1
    22    33    34    2
    23    38    39    1
    24    39    42    1
    25    63    62    2
    26    65    64    1
    27    65    66    1
    28    62    69   am
    29    68    66   am
    30    25    24    2
    31    18    17    1
    32    27    30    1
    33    27    26    1
    34    35    37    1
    35    35    36    1
    36    66    67    2
    37    69    70    1
    38    24    26   am
    39    24    23    1
    40    12    11    2
    41    22    23    1
    42    22    15   am
    43    75    74   ar
    44    17    14    1
    45     1     2    1
    46    70    71    1
    47    70    73    1
    48    14    15    1
    49    14    13    1
    50    15    16    2
    51    11    13   am
    52    11    10    1
    53    74    73    1
    54    74    76   ar
    55    71    77   am
    56    71    72    2
    57    55    54    2
    58    77    78    1
    59     8     6    1
    60    81    78    1
    61    81    82    1
    62     9    10    1
    63     9     3   am
    64     6     5    1
    65    54    53    1
    66    83    82    1
    67    84    82    1
    68     2     5    1
    69     2     3    1
    70     5     7    1
    71    78    79    1
    72    57    59    1
    73    57    56    1
    74     3     4    2
    75    58    56    1
    76   160   159   ar
    77    56    53    1
    78    53    52    1
    79   155   156    1
    80   155   154    1
    81   155   158    1
    82   159   161   ar
    83   159   158    1
    84   156   157    2
    85    79    80    2
    86    79    85   am
    87   154   150   am
    88    85    86    1
    89   152   149    1
    90   152   153    1
    91   150   149    1
    92   150   151    2
    93   149   148    1
    94   146   145    1
    95    88    87    2
    96    90    89    1
    97    90    91    1
    98    86    89    1
    99    86    87    1
   100    91    92    1
   101    87    93   am
   102   145   147    1
   103   145   144    1
   104   139   137   am
   105   125   124    1
   106   144   141    1
   107    93    94    1
   108   138   137    2
   109   137   136    1
   110    94    95    1
   111    94    97    1
   112   129   128    2
   113   136   133    1
   114    96    95    2
   115    95   102   am
   116   133   134    1
   117   133   132    1
   118   135   134    2
   119   116   114   ar
   120   124   123    1
   121   141   140    1
   122   141   142    1
   123   102   103    1
   124   105   104    2
   125   123   122    1
   126   128   132   am
   127   128   127    1
   128    97    98    1
   129   131   130    1
   130   103   104    1
   131   103   106    1
   132   104   109   am
   133   113   114    1
   134   113   110    1
   135   142   143    2
   136   130   127    1
   137   114   115   ar
   138    98    99    1
   139   109   110    1
   140   127   126    1
   141   122   121    2
   142   110   111    1
   143   106   107    1
   144   106   108    1
   145   100    99   ar
   146    99   101   ar
   147   121   118    1
   148   111   112    2
   149   117   118    1
   150   118   119    1
   151   119   120    2
