@<TRIPOS>MOLECULE
tmp/4s35B00.pdb
 157 147 0 0 0
SMALL
GASTEIGER

@<TRIPOS>ATOM
      1  N         -0.0640   -3.6590   70.4130 N.3     9  ASP9       -0.1225
      2  CA         0.0090   -2.2700   70.8170 C.3     9  ASP9        0.1805
      3  C         -0.2420   -2.1540   72.3230 C.2     9  ASP9        0.2598
      4  O         -1.2460   -2.5940   72.8410 O.2     9  ASP9       -0.2718
      5  CB        -0.9910   -1.4590   70.0880 C.3     9  ASP9        0.1424
      6  CG        -0.9100   -1.6030   68.6440 C.2     9  ASP9        0.3668
      7  OD1       -1.5470   -2.5930   68.1680 O.co2   9  ASP9       -0.2456
      8  OD2       -0.2820   -0.8020   67.9950 O.co2   9  ASP9       -0.2456
      9  N          0.7530   -1.5490   72.9870 N.am   10  GLY10      -0.1957
     10  CA         0.7250   -1.3080   74.4120 C.3    10  GLY10       0.1869
     11  C          1.5050   -2.3340   75.1720 C.2    10  GLY10       0.2309
     12  O          1.6480   -2.2070   76.3990 O.2    10  GLY10      -0.2863
     13  N          4.6100   -2.4280   75.1590 N.3    12  GLY12      -0.1210
     14  CA         5.8050   -1.6780   75.5790 C.3    12  GLY12       0.1956
     15  C          7.0470   -1.8610   74.7490 C.2    12  GLY12       0.2612
     16  O          8.1640   -1.5560   75.1830 O.2    12  GLY12      -0.2717
     17  N          6.8320   -2.1810   73.4700 N.am   13  LYS13      -0.1965
     18  CA         7.9540   -2.4200   72.6010 C.3    13  LYS13       0.1728
     19  C          8.8320   -1.2500   72.4550 C.2    13  LYS13       0.2617
     20  O         10.0650   -1.4140   72.4960 O.2    13  LYS13      -0.2715
     21  CB         7.4370   -2.7950   71.1820 C.3    13  LYS13       0.0311
     22  CG         6.7300   -4.1270   71.1630 C.3    13  LYS13       0.0038
     23  CD         6.1200   -4.4480   69.7760 C.3    13  LYS13       0.0206
     24  CE         5.2420   -3.3510   69.2620 C.3    13  LYS13       0.1093
     25  NZ         4.0050   -3.1750   70.0990 N.3    13  LYS13      -0.1314
     26  N          8.3250   -0.0510   72.2080 N.am   14  THR14      -0.1937
     27  CA         9.1020    1.1080   71.9410 C.3    14  THR14       0.2028
     28  C          9.8900    1.4740   73.1760 C.2    14  THR14       0.2643
     29  O         11.1020    1.8120   73.0530 O.2    14  THR14      -0.2714
     30  CB         8.2770    2.2900   71.3860 C.3    14  THR14       0.1808
     31  OG1        7.6840    1.8350   70.1360 O.3    14  THR14      -0.2208
     32  CG2        9.0610    3.4990   71.2150 C.3    14  THR14       0.0379
     33  N          9.2100    1.4180   74.3100 N.am   15  THR15      -0.1936
     34  CA         9.9010    1.7550   75.5960 C.3    15  THR15       0.2028
     35  C         11.0780    0.8040   75.7860 C.2    15  THR15       0.2642
     36  O         12.2420    1.2610   76.1100 O.2    15  THR15      -0.2714
     37  CB         8.9100    1.5700   76.7460 C.3    15  THR15       0.1808
     38  OG1        7.8780    2.5250   76.5990 O.3    15  THR15      -0.2208
     39  CG2        9.6920    1.9120   78.0670 C.3    15  THR15       0.0379
     40  N         10.8500   -0.4710   75.6160 N.am   16  GLN16      -0.1976
     41  CA        11.8260   -1.5910   75.8920 C.3    16  GLN16       0.1601
     42  C         12.9400   -1.5340   74.8410 C.2    16  GLN16       0.2287
     43  O         14.1440   -1.6930   75.1570 O.2    16  GLN16      -0.2864
     44  CB        11.2730   -2.9340   76.0850 C.3    16  GLN16       0.0394
     45  CG        10.2790   -3.0530   77.2280 C.3    16  GLN16       0.0908
     46  CD        10.9560   -2.8970   78.5620 C.2    16  GLN16       0.2608
     47  OE1       12.1280   -3.2510   78.7220 O.2    16  GLN16      -0.2717
     48  NE2       10.1940   -2.4820   79.5270 N.am   16  GLN16      -0.0878
     49  N          4.8490    5.1540   56.2870 N.3    47  ARG47      -0.1245
     50  CA         4.2460    5.0980   57.6290 C.3    47  ARG47       0.1563
     51  C          3.0920    6.0910   57.8130 C.2    47  ARG47       0.2260
     52  O          2.0520    5.7230   58.3530 O.2    47  ARG47      -0.2867
     53  CB         5.2930    5.4010   58.7030 C.3    47  ARG47       0.0307
     54  CG         4.8120    5.5390   60.1270 C.3    47  ARG47       0.0489
     55  CD         5.9550    5.9020   61.0500 C.3    47  ARG47       0.2205
     56  NE         5.4580    5.8520   62.4350 N.pl3  47  ARG47      -0.0865
     57  CZ         5.3650    4.8110   63.2180 C.cat  47  ARG47       0.5346
     58  NH1        5.8340    3.6020   62.8010 N.pl3  47  ARG47       0.1354
     59  NH2        4.7740    4.8900   64.4050 N.pl3  47  ARG47       0.1354
     60  N         12.0190   -2.3700   66.2490 N.3    89  ASP89      -0.1225
     61  CA        10.7800   -2.1780   66.9670 C.3    89  ASP89       0.1805
     62  C          9.6810   -2.5640   65.9210 C.2    89  ASP89       0.2597
     63  O          9.2350   -1.6930   65.1250 O.2    89  ASP89      -0.2718
     64  CB        10.7400   -0.6970   67.3690 C.3    89  ASP89       0.1424
     65  CG         9.5170   -0.3380   68.1900 C.2    89  ASP89       0.3668
     66  OD1        8.6150   -1.1320   68.3790 O.co2  89  ASP89      -0.2456
     67  OD2        9.5170    0.8830   68.5900 O.co2  89  ASP89      -0.2456
     68  N          9.3140   -3.8540   66.0170 N.am   90  ARG90      -0.1979
     69  CA         8.4980   -4.6060   65.0540 C.3    90  ARG90       0.1597
     70  C          9.3260   -5.0380   63.8720 C.2    90  ARG90       0.2287
     71  O         10.2790   -4.3800   63.4350 O.2    90  ARG90      -0.2864
     72  CB         7.2540   -3.8870   64.5970 C.3    90  ARG90       0.0334
     73  CG         6.3120   -3.4880   65.6680 C.3    90  ARG90       0.0492
     74  CD         5.0450   -2.9230   64.9650 C.3    90  ARG90       0.2205
     75  NE         3.9760   -2.5280   65.9220 N.pl3  90  ARG90      -0.0865
     76  CZ         3.1830   -3.3480   66.5280 C.cat  90  ARG90       0.5346
     77  NH1        3.2080   -4.6200   66.2880 N.pl3  90  ARG90       0.1354
     78  NH2        2.2490   -2.8900   67.4230 N.pl3  90  ARG90       0.1354
     79  N         -2.9120    1.1330   78.6990 N.3   139  ARG139     -0.1231
     80  CA        -1.6890    1.9340   78.6180 C.3   139  ARG139      0.1694
     81  C         -1.7230    2.9830   77.5580 C.2   139  ARG139      0.2592
     82  O         -0.8790    3.9130   77.5850 O.2   139  ARG139     -0.2718
     83  CB        -0.4870    1.0250   78.3520 C.3   139  ARG139      0.0321
     84  CG        -0.2030    0.0450   79.4580 C.3   139  ARG139      0.0489
     85  CD         1.0250   -0.7430   79.1760 C.3   139  ARG139      0.2205
     86  NE         1.3060   -1.6840   80.2110 N.pl3 139  ARG139     -0.0865
     87  CZ         2.2710   -2.5670   80.2220 C.cat 139  ARG139      0.5346
     88  NH1        2.9640   -2.7500   79.0960 N.pl3 139  ARG139      0.1354
     89  NH2        2.5660   -3.3260   81.3110 N.pl3 139  ARG139      0.1354
     90  N         -2.6140    2.8170   76.5650 N.am  140  LEU140     -0.1966
     91  CA        -2.5230    3.7260   75.4130 C.3   140  LEU140      0.1728
     92  C         -3.3270    5.0550   75.6620 C.2   140  LEU140      0.2616
     93  O         -4.2460    5.0480   76.4210 O.2   140  LEU140     -0.2715
     94  CB        -2.9940    3.0360   74.1660 C.3   140  LEU140      0.0311
     95  CG        -2.2700    1.7130   73.8220 C.3   140  LEU140      0.0022
     96  CD1       -3.0480    0.9910   72.6990 C.3   140  LEU140      0.0001
     97  CD2       -0.7810    1.9560   73.4750 C.3   140  LEU140      0.0001
     98  N         -3.0130    6.1380   74.9600 N.am  141  LYS141     -0.1977
     99  CA        -3.9050    7.3220   74.9340 C.3   141  LYS141      0.1596
    100  C         -4.8120    7.1890   73.7140 C.2   141  LYS141      0.2287
    101  O         -5.7510    6.3720   73.6920 O.2   141  LYS141     -0.2864
    102  CB        -3.1020    8.6230   74.8920 C.3   141  LYS141      0.0298
    103  CG        -2.3300    9.0040   76.2000 C.3   141  LYS141      0.0038
    104  CD        -3.1960    8.7520   77.4230 C.3   141  LYS141      0.0206
    105  CE        -2.5890    8.0630   78.6570 C.3   141  LYS141      0.1093
    106  NZ        -2.0390    6.6910   78.4410 N.3   141  LYS141     -0.1314
    107  N         -5.0700    4.2550   67.6290 N.3   144  ASN144     -0.1240
    108  CA        -5.0300    4.2250   66.1610 C.3   144  ASN144      0.1653
    109  C         -6.0180    3.1750   65.6500 C.2   144  ASN144      0.2266
    110  O         -6.6780    2.4530   66.3610 O.2   144  ASN144     -0.2867
    111  CB        -3.5980    4.0260   65.6430 C.3   144  ASN144      0.1155
    112  CG        -3.0460    2.5790   65.8050 C.2   144  ASN144      0.2627
    113  OD1       -3.7710    1.6040   65.9110 O.2   144  ASN144     -0.2716
    114  ND2       -1.7430    2.4610   65.6960 N.am  144  ASN144     -0.0877
    115  N         -6.0370   -0.4120   67.0350 N.3   147  GLU147     -0.1245
    116  CA        -6.0030   -0.5470   68.5310 C.3   147  GLU147      0.1567
    117  C         -7.3720   -0.6610   69.1330 C.2   147  GLU147      0.2260
    118  O         -7.8530    0.2760   69.8090 O.2   147  GLU147     -0.2867
    119  CB        -5.3000    0.6180   69.1660 C.3   147  GLU147      0.0388
    120  CG        -3.8000    0.4770   68.9000 C.3   147  GLU147      0.1160
    121  CD        -2.9930    1.7100   69.1590 C.2   147  GLU147      0.3649
    122  OE1       -3.4710    2.8850   69.1550 O.co2 147  GLU147     -0.2457
    123  OE2       -1.7390    1.6130   69.2850 O.co2 147  GLU147     -0.2457
    124  N          4.9840   -9.1540   79.5190 N.3   174  ALA174     -0.1245
    125  CA         5.1540   -7.7290   79.4960 C.3   174  ALA174      0.1562
    126  C          4.1930   -6.9710   80.4050 C.2   174  ALA174      0.2260
    127  O          4.1000   -5.7480   80.3250 O.2   174  ALA174     -0.2867
    128  CB         4.9420   -7.2340   78.0380 C.3   174  ALA174      0.0290
    129  N          4.2530   -6.5720   83.6820 N.3   176  GLY176     -0.1210
    130  CA         4.9380   -5.9990   84.8210 C.3   176  GLY176      0.1956
    131  C          5.4010   -4.5850   84.5850 C.2   176  GLY176      0.2612
    132  O          5.1350   -3.9730   83.5470 O.2   176  GLY176     -0.2717
    133  N          5.9670   -3.9400   85.5930 N.am  177  GLU177     -0.1965
    134  CA         6.4820   -2.6080   85.4500 C.3   177  GLU177      0.1733
    135  C          7.7520   -2.5860   84.5530 C.2   177  GLU177      0.2616
    136  O          8.3070   -3.6230   84.3760 O.2   177  GLU177     -0.2715
    137  CB         6.7100   -1.9970   86.9040 C.3   177  GLU177      0.0429
    138  CG         5.3410   -1.9490   87.6340 C.3   177  GLU177      0.1163
    139  CD         5.4080   -1.4170   89.0650 C.2   177  GLU177      0.3649
    140  OE1        5.7490   -0.2180   89.1870 O.co2 177  GLU177     -0.2457
    141  OE2        5.0170   -2.1850   89.9960 O.co2 177  GLU177     -0.2457
    142  N          8.1870   -1.4180   84.1720 N.am  178  GLU178     -0.1977
    143  CA         9.1700   -1.2640   83.1000 C.3   178  GLU178      0.1602
    144  C         10.4530   -2.0250   83.4470 C.2   178  GLU178      0.2287
    145  O         11.0330   -2.7630   82.5890 O.2   178  GLU178     -0.2864
    146  CB         9.4410    0.2030   82.8870 C.3   178  GLU178      0.0415
    147  CG        10.4340    0.5590   81.8150 C.3   178  GLU178      0.1163
    148  CD        10.5570    2.0610   81.6350 C.2   178  GLU178      0.3649
    149  OE1        9.5340    2.7420   81.5610 O.co2 178  GLU178     -0.2457
    150  OE2       11.6910    2.5630   81.4640 O.co2 178  GLU178     -0.2457
    151  N         10.1990   -5.9440   83.3850 N.3   181  VAL181     -0.1245
    152  CA        10.1740   -6.4340   81.9770 C.3   181  VAL181      0.1561
    153  C         11.5780   -6.3820   81.3740 C.2   181  VAL181      0.2260
    154  O         11.9660   -7.3650   80.6990 O.2   181  VAL181     -0.2867
    155  CB         9.1160   -5.6070   81.1930 C.3   181  VAL181      0.0252
    156  CG1        9.1970   -5.9160   79.6770 C.3   181  VAL181      0.0019
    157  CG2        7.7100   -5.9250   81.7160 C.3   181  VAL181      0.0019
@<TRIPOS>BOND
     1    49    50    1
     2    50    51    1
     3    50    53    1
     4    51    52    2
     5    53    54    1
     6    54    55    1
     7    55    56    1
     8    56    57    2
     9    58    57    1
    10    57    59    1
    11    71    70    2
    12    70    69    1
    13    72    69    1
    14    72    73    1
    15    74    73    1
    16    74    75    1
    17    69    68    1
    18    63    62    2
    19   111   112    1
    20   111   108    1
    21   109   108    1
    22   109   110    2
    23   114   112   am
    24   112   113    2
    25    62    68   am
    26    62    61    1
    27    75    76    2
    28   108   107    1
    29    60    61    1
    30    77    76    1
    31    76    78    1
    32    61    64    1
    33   115   116    1
    34    64    65    1
    35     8     6   ar
    36     7     6   ar
    37    65    66   ar
    38    65    67   ar
    39   116   117    1
    40   116   119    1
    41     6     5    1
    42   120   121    1
    43   120   119    1
    44   117   118    2
    45   122   121   ar
    46   121   123   ar
    47    24    23    1
    48    24    25    1
    49    23    22    1
    50     5     2    1
    51    31    30    1
    52     1     2    1
    53     2     3    1
    54    22    21    1
    55    21    18    1
    56    32    30    1
    57    30    27    1
    58    27    26    1
    59    27    28    1
    60    26    19   am
    61     3     4    2
    62     3     9   am
    63    19    20    2
    64    19    18    1
    65    18    17    1
    66    96    95    1
    67     9    10    1
    68    29    28    2
    69    28    33   am
    70    17    15   am
    71    97    95    1
    72   101   100    2
    73   100    99    1
    74    95    94    1
    75    94    91    1
    76    33    34    1
    77    10    11    1
    78    15    16    2
    79    15    14    1
    80    42    43    2
    81    42    41    1
    82   102    99    1
    83   102   103    1
    84    99    98    1
    85    98    92   am
    86    13    14    1
    87    11    12    2
    88    91    92    1
    89    91    90    1
    90    34    35    1
    91    34    37    1
    92    40    35   am
    93    40    41    1
    94    92    93    2
    95    35    36    2
    96    41    44    1
    97    44    45    1
    98   103   104    1
    99    90    81   am
   100    38    37    1
   101    37    39    1
   102    45    46    1
   103   104   105    1
   104    81    82    2
   105    81    80    1
   106   128   125    1
   107    83    80    1
   108    83    84    1
   109   106   105    1
   110    46    47    2
   111    46    48   am
   112    80    79    1
   113    88    87    1
   114    85    84    1
   115    85    86    1
   116   125   124    1
   117   125   126    1
   118   156   155    1
   119    86    87    2
   120    87    89    1
   121   127   126    2
   122   154   153    2
   123   155   157    1
   124   155   152    1
   125   153   152    1
   126   150   148   ar
   127   149   148   ar
   128   148   147    1
   129   147   146    1
   130   152   151    1
   131   145   144    2
   132   146   143    1
   133   143   144    1
   134   143   142    1
   135   132   131    2
   136   129   130    1
   137   142   135   am
   138   136   135    2
   139   135   134    1
   140   131   130    1
   141   131   133   am
   142   134   133    1
   143   134   137    1
   144   137   138    1
   145   138   139    1
   146   139   140   ar
   147   139   141   ar
