@<TRIPOS>MOLECULE
tmp/4s38A04.pdb
 86 83 0 0 0
SMALL
GASTEIGER

@<TRIPOS>ATOM
      1  N        -19.0030    8.3290   18.3310 N.3   182  TYR182     -0.1227
      2  CA       -19.7340    7.8760   17.1440 C.3   182  TYR182      0.1736
      3  C        -20.5680    6.6320   17.4470 C.2   182  TYR182      0.2595
      4  O        -21.7720    6.5870   17.1470 O.2   182  TYR182     -0.2718
      5  CB       -18.7060    7.5220   16.0580 C.3   182  TYR182      0.0548
      6  CG       -19.1640    6.7680   14.8360 C.ar  182  TYR182     -0.0200
      7  CD1      -20.0360    7.3180   13.9050 C.ar  182  TYR182     -0.0009
      8  CD2      -18.6280    5.5180   14.5470 C.ar  182  TYR182     -0.0009
      9  CE1      -20.3750    6.6390   12.7320 C.ar  182  TYR182      0.0417
     10  CE2      -18.9420    4.8270   13.3980 C.ar  182  TYR182      0.0417
     11  CZ       -19.8040    5.4150   12.5060 C.ar  182  TYR182      0.1957
     12  OH       -20.0280    4.6930   11.3480 O.3   182  TYR182     -0.2866
     13  N        -19.9530    5.6270   18.0280 N.am  183  GLU183     -0.1979
     14  CA       -20.6760    4.3950   18.3180 C.3   183  GLU183      0.1602
     15  C        -21.7610    4.6200   19.3520 C.2   183  GLU183      0.2287
     16  O        -22.8430    4.0490   19.2390 O.2   183  GLU183     -0.2864
     17  CB       -19.7480    3.2700   18.7670 C.3   183  GLU183      0.0415
     18  CG       -18.7920    2.8630   17.6560 C.3   183  GLU183      0.1163
     19  CD       -17.8280    1.7120   17.9400 C.2   183  GLU183      0.3649
     20  OE1      -17.7760    1.2100   19.0820 O.co2 183  GLU183     -0.2457
     21  OE2      -17.0780    1.2660   16.9770 O.co2 183  GLU183     -0.2457
     22  N        -24.7230    6.1960   17.5830 N.3   186  LEU186     -0.1231
     23  CA       -25.4220    5.1580   16.8420 C.3   186  LEU186      0.1693
     24  C        -26.2940    4.3220   17.7650 C.2   186  LEU186      0.2591
     25  O        -27.4380    3.9720   17.4460 O.2   186  LEU186     -0.2718
     26  CB       -24.4650    4.2830   16.0140 C.3   186  LEU186      0.0284
     27  CG       -23.8340    5.0030   14.8390 C.3   186  LEU186      0.0019
     28  CD1      -22.7200    4.1360   14.3390 C.3   186  LEU186      0.0001
     29  CD2      -24.8050    5.4170   13.7450 C.3   186  LEU186      0.0001
     30  N        -25.7260    3.9620   18.8930 N.am  187  GLU187     -0.1979
     31  CA       -26.3980    3.0660   19.8670 C.3   187  GLU187      0.1602
     32  C        -27.6580    3.7290   20.4760 C.2   187  GLU187      0.2287
     33  O        -28.5920    3.0450   20.8300 O.2   187  GLU187     -0.2864
     34  CB       -25.3940    2.6080   20.9430 C.3   187  GLU187      0.0415
     35  CG       -24.3940    1.5810   20.4390 C.3   187  GLU187      0.1163
     36  CD       -23.3330    1.2530   21.5050 C.2   187  GLU187      0.3649
     37  OE1      -23.5790    1.5760   22.7160 O.co2 187  GLU187     -0.2457
     38  OE2      -22.2530    0.6720   21.1430 O.co2 187  GLU187     -0.2457
     39  N        -29.2710    7.6320   16.7130 N.3   190  LEU190     -0.1231
     40  CA       -29.0290    8.6750   15.7160 C.3   190  LEU190      0.1693
     41  C        -28.6220    7.9250   14.4390 C.2   190  LEU190      0.2593
     42  O        -27.7640    6.9950   14.4480 O.2   190  LEU190     -0.2718
     43  CB       -27.9060    9.5910   16.1850 C.3   190  LEU190      0.0284
     44  CG       -27.6560   10.7490   15.2520 C.3   190  LEU190      0.0019
     45  CD1      -28.8100   11.7330   15.1850 C.3   190  LEU190      0.0001
     46  CD2      -26.4000   11.4730   15.7440 C.3   190  LEU190      0.0001
     47  N        -29.2210    8.3470   13.3430 N.am  191  GLY191     -0.1942
     48  CA       -28.9980    7.5880   12.1290 C.3   191  GLY191      0.2014
     49  C        -27.6110    7.7770   11.5080 C.2   191  GLY191      0.2638
     50  O        -26.9430    8.7960   11.7370 O.2   191  GLY191     -0.2714
     51  N        -27.2120    6.8310   10.6990 N.am  192  GLU192     -0.1977
     52  CA       -25.9790    6.8940    9.9360 C.3   192  GLU192      0.1602
     53  C        -26.0170    8.0460    8.9260 C.2   192  GLU192      0.2287
     54  O        -25.0000    8.5640    8.5690 O.2   192  GLU192     -0.2864
     55  CB       -25.7960    5.6060    9.1640 C.3   192  GLU192      0.0415
     56  CG       -24.8340    4.5900    9.6970 C.3   192  GLU192      0.1163
     57  CD       -24.2940    3.7220    8.5590 C.2   192  GLU192      0.3649
     58  OE1      -23.0770    3.7960    8.2380 O.co2 192  GLU192     -0.2457
     59  OE2      -25.1800    3.0470    7.9370 O.co2 192  GLU192     -0.2457
     60  N        -11.8590    2.6870   10.8710 N.3   217  ARG217     -0.1231
     61  CA       -12.6130    2.2790   12.0140 C.3   217  ARG217      0.1694
     62  C        -14.0700    2.6740   12.0450 C.2   217  ARG217      0.2593
     63  O        -14.8280    2.1790   12.8590 O.2   217  ARG217     -0.2718
     64  CB       -11.9390    2.7260   13.2870 C.3   217  ARG217      0.0321
     65  CG       -10.5670    2.1040   13.4780 C.3   217  ARG217      0.0489
     66  CD        -9.9720    2.5160   14.8540 C.3   217  ARG217      0.2205
     67  NE       -10.8180    2.0120   15.9730 N.pl3 217  ARG217     -0.0865
     68  CZ       -10.7130    2.4160   17.2400 C.cat 217  ARG217      0.5346
     69  NH1       -9.7800    3.3260   17.5340 N.pl3 217  ARG217      0.1354
     70  NH2      -11.5550    1.9490   18.1580 N.pl3 217  ARG217      0.1354
     71  N        -14.4830    3.5120   11.0890 N.am  218  THR218     -0.1939
     72  CA       -15.8420    4.0770   11.0210 C.3   218  THR218      0.2028
     73  C        -16.3140    4.0540    9.5970 C.2   218  THR218      0.2645
     74  O        -15.5210    3.9720    8.6650 O.2   218  THR218     -0.2714
     75  CB       -15.9040    5.5050   11.5470 C.3   218  THR218      0.1808
     76  OG1      -15.3730    6.4360   10.6280 O.3   218  THR218     -0.2208
     77  CG2      -15.2390    5.6320   12.9030 C.3   218  THR218      0.0379
     78  N        -17.6130    4.2150    9.4570 N.am  219  GLN219     -0.1931
     79  CA       -18.2100    4.3650    8.1410 C.3   219  GLN219      0.1817
     80  C        -18.6500    5.7660    7.7690 C.2   219  GLN219      0.2332
     81  O        -19.1560    5.9980    6.6560 O.2   219  GLN219     -0.2860
     82  CB       -19.3880    3.3900    8.0160 C.2   219  GLN219      0.0077
     83  CG       -19.0390    1.9630    7.9590 C.2   219  GLN219      0.0587
     84  CD       -20.2030    1.0140    7.9390 C.2   219  GLN219      0.2841
     85  OE1      -21.3990    1.3900    7.7790 O.2   219  GLN219     -0.2667
     86  NE2      -19.8790   -0.2210    8.1170 N.am  219  GLN219     -0.0837
@<TRIPOS>BOND
     1    81    80    2
     2    80    79    1
     3    85    84    2
     4    59    57   ar
     5    84    83    1
     6    84    86   am
     7    83    82    2
     8    82    79    1
     9    79    78    1
    10    58    57   ar
    11    57    56    1
    12    54    53    2
    13    74    73    2
    14    53    52    1
    15    55    56    1
    16    55    52    1
    17    78    73   am
    18    73    72    1
    19    52    51    1
    20    76    75    1
    21    51    49   am
    22    60    61    1
    23    72    71    1
    24    72    75    1
    25    71    62   am
    26    12    11    1
    27    49    50    2
    28    49    48    1
    29    75    77    1
    30    61    62    1
    31    61    64    1
    32    62    63    2
    33    48    47    1
    34    11     9   ar
    35    11    10   ar
    36     9     7   ar
    37    64    65    1
    38    47    41   am
    39    10     8   ar
    40    65    66    1
    41    29    27    1
    42     7     6   ar
    43    28    27    1
    44    41    42    2
    45    41    40    1
    46     8     6   ar
    47     6     5    1
    48    27    26    1
    49    66    67    1
    50    45    44    1
    51    44    46    1
    52    44    43    1
    53    40    43    1
    54    40    39    1
    55    67    68    2
    56    26    23    1
    57     5     2    1
    58    23    22    1
    59    23    24    1
    60    21    19   ar
    61     2     3    1
    62     2     1    1
    63     4     3    2
    64    68    69    1
    65    68    70    1
    66    25    24    2
    67     3    13   am
    68    18    19    1
    69    18    17    1
    70    24    30   am
    71    19    20   ar
    72    13    14    1
    73    14    17    1
    74    14    15    1
    75    30    31    1
    76    16    15    2
    77    31    32    1
    78    31    34    1
    79    35    34    1
    80    35    36    1
    81    32    33    2
    82    38    36   ar
    83    36    37   ar
