@<TRIPOS>MOLECULE
tmp/4s39A00.pdb
 128 116 0 0 0
SMALL
GASTEIGER

@<TRIPOS>ATOM
      1  N        -16.0120   29.0960    8.8640 N.3    26  MET26      -0.1245
      2  CA       -16.5630   29.5080   10.1560 C.3    26  MET26       0.1570
      3  C        -16.4440   31.0180   10.2740 C.2    26  MET26       0.2261
      4  O        -15.4450   31.6040    9.9410 O.2    26  MET26      -0.2867
      5  CB       -15.8280   28.8010   11.3080 C.3    26  MET26       0.0387
      6  CG       -16.4340   29.0640   12.6890 C.3    26  MET26       0.0595
      7  SD       -15.7420   27.9580   13.8980 S.3    26  MET26      -0.1393
      8  CE       -16.6720   28.3980   15.3410 C.3    26  MET26       0.0692
      9  N        -20.3230   27.5760    9.5460 N.3    53  ARG53      -0.1245
     10  CA       -20.3610   27.3770   10.9870 C.3    53  ARG53       0.1563
     11  C        -20.2430   28.6650   11.7160 C.2    53  ARG53       0.2260
     12  O        -19.5440   29.5770   11.2990 O.2    53  ARG53      -0.2867
     13  CB       -19.2560   26.3880   11.3810 C.3    53  ARG53       0.0307
     14  CG       -19.1590   26.0410   12.8510 C.3    53  ARG53       0.0489
     15  CD       -18.3530   24.7980   13.0930 C.3    53  ARG53       0.2205
     16  NE       -17.0900   24.7980   12.3930 N.pl3  53  ARG53      -0.0865
     17  CZ       -15.8960   24.5500   12.8940 C.cat  53  ARG53       0.5346
     18  NH1      -15.6830   24.3280   14.1660 N.pl3  53  ARG53       0.1354
     19  NH2      -14.8590   24.4550   12.0640 N.pl3  53  ARG53       0.1354
     20  N        -21.5240   25.6710   16.6530 N.3    84  ASP84      -0.1239
     21  CA       -20.3590   25.1740   17.3440 C.3    84  ASP84       0.1674
     22  C        -20.5370   25.2930   18.8530 C.2    84  ASP84       0.2266
     23  O        -20.5830   26.4320   19.3760 O.2    84  ASP84      -0.2867
     24  CB       -19.0760   25.9100   16.8590 C.3    84  ASP84       0.1410
     25  CG       -17.8060   25.0540   16.9900 C.2    84  ASP84       0.3668
     26  OD1      -17.7810   23.9820   16.4020 O.co2  84  ASP84      -0.2456
     27  OD2      -16.8710   25.5040   17.7120 O.co2  84  ASP84      -0.2456
     28  N        -19.5170   24.1930   22.8900 N.3    86  HIS86      -0.1241
     29  CA       -18.5360   23.7340   23.8510 C.3    86  HIS86       0.1621
     30  C        -19.0360   24.1020   25.2530 C.2    86  HIS86       0.2264
     31  O        -19.5310   25.1720   25.4880 O.2    86  HIS86      -0.2867
     32  CB       -17.1600   24.4280   23.6320 C.3    86  HIS86       0.0745
     33  CG       -16.6410   24.2090   22.2650 C.ar   86  HIS86       0.0817
     34  ND1      -16.0320   23.0230   21.8760 N.ar   86  HIS86      -0.2268
     35  CD2      -16.7110   25.0200   21.1610 C.ar   86  HIS86       0.1154
     36  CE1      -15.8020   23.0810   20.5540 C.ar   86  HIS86       0.1986
     37  NE2      -16.1880   24.2930   20.1140 N.ar   86  HIS86      -0.2212
     38  N        -22.4390   20.8270   16.0380 N.3   106  ARG106     -0.1245
     39  CA       -21.1410   20.2620   16.3200 C.3   106  ARG106      0.1563
     40  C        -20.9920   20.0330   17.8220 C.2   106  ARG106      0.2260
     41  O        -21.1920   20.9770   18.6270 O.2   106  ARG106     -0.2867
     42  CB       -20.0090   21.1720   15.8180 C.3   106  ARG106      0.0307
     43  CG       -18.6030   20.6580   16.0770 C.3   106  ARG106      0.0489
     44  CD       -18.0840   20.9040   17.4680 C.3   106  ARG106      0.2205
     45  NE       -16.7540   20.3410   17.6800 N.pl3 106  ARG106     -0.0865
     46  CZ       -15.6330   20.9290   17.2340 C.cat 106  ARG106      0.5346
     47  NH1      -15.6270   22.1790   16.8010 N.pl3 106  ARG106      0.1354
     48  NH2      -14.5030   20.2580   17.3630 N.pl3 106  ARG106      0.1354
     49  N        -18.0730   18.4660   20.6450 N.3   108  ASN108     -0.1240
     50  CA       -16.6510   18.1470   20.8730 C.3   108  ASN108      0.1653
     51  C        -16.6350   17.2130   22.0740 C.2   108  ASN108      0.2266
     52  O        -16.9670   17.6490   23.1760 O.2   108  ASN108     -0.2867
     53  CB       -15.8060   19.4390   21.0730 C.3   108  ASN108      0.1155
     54  CG       -14.3600   19.1260   21.2720 C.2   108  ASN108      0.2627
     55  OD1      -14.0010   18.0600   21.7170 O.2   108  ASN108     -0.2716
     56  ND2      -13.5260   20.0770   21.0330 N.am  108  ASN108     -0.0877
     57  N        -21.9450   16.7410   13.8700 N.3   137  ARG137     -0.1245
     58  CA       -20.5530   16.3910   13.7390 C.3   137  ARG137      0.1563
     59  C        -20.0180   16.1210   15.1200 C.2   137  ARG137      0.2260
     60  O        -20.1240   16.9430   15.9720 O.2   137  ARG137     -0.2867
     61  CB       -19.7080   17.4940   13.0540 C.3   137  ARG137      0.0307
     62  CG       -18.1990   17.1840   13.1580 C.3   137  ARG137      0.0489
     63  CD       -17.3740   17.9050   12.1140 C.3   137  ARG137      0.2205
     64  NE       -17.3820   19.3730   12.2770 N.pl3 137  ARG137     -0.0865
     65  CZ       -16.4250   20.1200   12.8040 C.cat 137  ARG137      0.5346
     66  NH1      -15.3560   19.6150   13.3430 N.pl3 137  ARG137      0.1354
     67  NH2      -16.5850   21.4240   12.7930 N.pl3 137  ARG137      0.1354
     68  N        -13.5160   15.8480   17.3750 N.3   140  ALA140     -0.1231
     69  CA       -12.4640   15.8610   18.3490 C.3   140  ALA140      0.1694
     70  C        -11.3380   16.7810   17.8570 C.2   140  ALA140      0.2592
     71  O        -11.1400   16.9270   16.7100 O.2   140  ALA140     -0.2718
     72  CB       -11.9450   14.4480   18.5780 C.3   140  ALA140      0.0304
     73  N        -10.6400   17.3610   18.7950 N.am  141  ASN141     -0.1974
     74  CA        -9.5120   18.2310   18.5000 C.3   141  ASN141      0.1688
     75  C         -8.4780   18.0030   19.5960 C.2   141  ASN141      0.2292
     76  O         -8.8150   17.9890   20.7260 O.2   141  ASN141     -0.2864
     77  CB       -10.0280   19.6970   18.5160 C.3   141  ASN141      0.1181
     78  CG        -9.0660   20.7030   17.8910 C.2   141  ASN141      0.2629
     79  OD1       -9.4380   21.3970   16.9380 O.2   141  ASN141     -0.2716
     80  ND2       -7.9150   20.7590   18.3810 N.am  141  ASN141     -0.0877
     81  N         -8.2420   19.9890   22.8900 N.3   144  SER144     -0.1217
     82  CA        -9.2960   19.7680   23.8890 C.3   144  SER144      0.1889
     83  C         -9.5450   18.2450   24.0290 C.2   144  SER144      0.2288
     84  O        -10.6810   17.7460   23.8820 O.2   144  SER144     -0.2866
     85  CB       -10.5600   20.5570   23.4650 C.3   144  SER144      0.2089
     86  OG       -10.8490   20.3550   22.0600 O.3   144  SER144     -0.2183
     87  N         -9.0750   16.4480   14.6740 N.3   200  LYS200     -0.1245
     88  CA        -8.0960   17.3720   14.1190 C.3   200  LYS200      0.1561
     89  C         -6.8620   17.5810   15.0350 C.2   200  LYS200      0.2260
     90  O         -6.9850   17.6230   16.2720 O.2   200  LYS200     -0.2867
     91  CB        -8.6670   18.7130   13.7650 C.3   200  LYS200      0.0271
     92  CG        -9.7630   18.6470   12.7410 C.3   200  LYS200      0.0035
     93  CD       -10.2700   20.0190   12.3590 C.3   200  LYS200      0.0206
     94  CE       -11.4520   20.0060   11.4450 C.3   200  LYS200      0.1093
     95  NZ       -12.0050   21.3420   11.1950 N.3   200  LYS200     -0.1314
     96  N         -6.1710   21.7590   12.0000 N.3   227  THR227     -0.1203
     97  CA        -6.5640   22.7660   12.9270 C.3   227  THR227      0.1994
     98  C         -5.3930   23.6520   13.2820 C.2   227  THR227      0.2617
     99  O         -4.2350   23.2720   13.2710 O.2   227  THR227     -0.2717
    100  CB        -7.2390   22.1810   14.2000 C.3   227  THR227      0.1784
    101  OG1       -7.8100   23.2090   14.9750 O.3   227  THR227     -0.2211
    102  CG2       -6.3290   21.2930   15.0700 C.3   227  THR227      0.0376
    103  N         -5.6780   24.9380   13.5840 N.am  228  GLU228     -0.1979
    104  CA        -4.7050   25.9210   14.0600 C.3   228  GLU228      0.1602
    105  C         -3.5340   25.9990   13.0850 C.2   228  GLU228      0.2287
    106  O         -2.3770   25.9970   13.4660 O.2   228  GLU228     -0.2864
    107  CB        -4.2180   25.5870   15.4690 C.3   228  GLU228      0.0415
    108  CG        -5.2290   24.8810   16.4120 C.3   228  GLU228      0.1163
    109  CD        -6.6210   25.4080   16.6030 C.2   228  GLU228      0.3649
    110  OE1       -7.0650   26.2930   15.8420 O.co2 228  GLU228     -0.2457
    111  OE2       -7.3220   24.9770   17.5690 O.co2 228  GLU228     -0.2457
    112  N        -12.3970   22.2560    5.7940 N.3   256  ARG256     -0.1245
    113  CA       -12.3200   23.5980    6.3100 C.3   256  ARG256      0.1563
    114  C        -10.8710   23.9160    6.4750 C.2   256  ARG256      0.2260
    115  O        -10.1100   23.0770    6.9770 O.2   256  ARG256     -0.2867
    116  CB       -13.0670   23.7300    7.6730 C.3   256  ARG256      0.0307
    117  CG       -13.1470   25.1890    8.1630 C.3   256  ARG256      0.0489
    118  CD       -12.0660   25.5590    9.1440 C.3   256  ARG256      0.2205
    119  NE       -12.1230   26.9920    9.4130 N.pl3 256  ARG256     -0.0865
    120  CZ       -12.2080   27.6360   10.5720 C.cat 256  ARG256      0.5346
    121  NH1      -12.2870   26.9380   11.7030 N.pl3 256  ARG256      0.1354
    122  NH2      -12.2210   28.9230   10.6240 N.pl3 256  ARG256      0.1354
    123  N         -8.2260   26.2320    8.3850 N.3   258  SER258     -0.1217
    124  CA        -8.1610   26.9730    9.6490 C.3   258  SER258      0.1889
    125  C         -7.0120   27.9660    9.6450 C.2   258  SER258      0.2288
    126  O         -6.0520   27.8000   10.4080 O.2   258  SER258     -0.2866
    127  CB        -8.0100   25.9560   10.7610 C.3   258  SER258      0.2089
    128  OG        -9.1890   25.2080   10.8630 O.3   258  SER258     -0.2183
@<TRIPOS>BOND
     1   112   113    1
     2   113   114    1
     3   113   116    1
     4   114   115    2
     5   116   117    1
     6   117   118    1
     7   123   124    1
     8     1     2    1
     9   118   119    1
    10   119   120    2
    11     9    10    1
    12   125   124    1
    13   125   126    2
    14   124   127    1
    15     4     3    2
    16     2     3    1
    17     2     5    1
    18   120   122    1
    19   120   121    1
    20   127   128    1
    21    10    13    1
    22    10    11    1
    23    95    94    1
    24    12    11    2
    25     5     6    1
    26    13    14    1
    27    94    93    1
    28    96    97    1
    29    19    17    1
    30    63    64    1
    31    63    62    1
    32    64    65    2
    33    93    92    1
    34    16    17    2
    35    16    15    1
    36     6     7    1
    37    92    91    1
    38    67    65    1
    39    65    66    1
    40    14    15    1
    41    17    18    1
    42    97    98    1
    43    97   100    1
    44    61    62    1
    45    61    58    1
    46   105   106    2
    47   105   104    1
    48    99    98    2
    49    98   103   am
    50   103   104    1
    51    58    57    1
    52    58    59    1
    53    91    88    1
    54     7     8    1
    55   104   107    1
    56    88    87    1
    57    88    89    1
    58   100   101    1
    59   100   102    1
    60    89    90    2
    61    59    60    2
    62   107   108    1
    63    42    43    1
    64    42    39    1
    65   110   109   ar
    66    38    39    1
    67    43    44    1
    68    39    40    1
    69    26    25   ar
    70   108   109    1
    71   109   111   ar
    72    20    21    1
    73    71    70    2
    74    47    46    1
    75    24    25    1
    76    24    21    1
    77    79    78    2
    78    25    27   ar
    79    46    48    1
    80    46    45    2
    81    21    22    1
    82    68    69    1
    83    44    45    1
    84    40    41    2
    85    70    69    1
    86    70    73   am
    87    78    80   am
    88    78    77    1
    89    69    72    1
    90    74    77    1
    91    74    73    1
    92    74    75    1
    93    22    23    2
    94    75    76    2
    95    37    36   ar
    96    37    35   ar
    97    36    34   ar
    98    49    50    1
    99    50    53    1
   100    50    51    1
   101    56    54   am
   102    53    54    1
   103    35    33   ar
   104    54    55    2
   105    34    33   ar
   106    86    85    1
   107    51    52    2
   108    33    32    1
   109    81    82    1
   110    28    29    1
   111    85    82    1
   112    32    29    1
   113    29    30    1
   114    84    83    2
   115    82    83    1
   116    30    31    2
