@<TRIPOS>MOLECULE
tmp/4s3dA00.pdb
 114 104 0 0 0
SMALL
GASTEIGER

@<TRIPOS>ATOM
      1  N        -16.0700   29.3590    8.8350 N.3    27  MET27      -0.1245
      2  CA       -16.6120   29.7440   10.1180 C.3    27  MET27       0.1570
      3  C        -16.5180   31.2600   10.2550 C.2    27  MET27       0.2261
      4  O        -15.5320   31.8580    9.8590 O.2    27  MET27      -0.2867
      5  CB       -15.8430   29.0670   11.2520 C.3    27  MET27       0.0387
      6  CG       -16.4520   29.2600   12.6420 C.3    27  MET27       0.0595
      7  SD       -15.7540   28.1150   13.8490 S.3    27  MET27      -0.1393
      8  CE       -16.6010   28.6670   15.3300 C.3    27  MET27       0.0692
      9  N        -20.2950   27.7670    9.5500 N.3    54  ARG54      -0.1245
     10  CA       -20.3740   27.4860   10.9670 C.3    54  ARG54       0.1563
     11  C        -20.2930   28.7890   11.7250 C.2    54  ARG54       0.2260
     12  O        -19.6100   29.7120   11.3030 O.2    54  ARG54      -0.2867
     13  CB       -19.2430   26.5250   11.3630 C.3    54  ARG54       0.0307
     14  CG       -19.0950   26.2490   12.8580 C.3    54  ARG54       0.0489
     15  CD       -18.2880   24.9740   13.1150 C.3    54  ARG54       0.2205
     16  NE       -17.0270   24.9540   12.3750 N.pl3  54  ARG54      -0.0865
     17  CZ       -15.8020   24.7690   12.8820 C.cat  54  ARG54       0.5346
     18  NH1      -15.5880   24.5720   14.1780 N.pl3  54  ARG54       0.1354
     19  NH2      -14.7560   24.7620   12.0600 N.pl3  54  ARG54       0.1354
     20  N        -21.5550   25.7320   16.6090 N.3    85  ASP85      -0.1239
     21  CA       -20.3920   25.2700   17.3270 C.3    85  ASP85       0.1674
     22  C        -20.6550   25.3870   18.8300 C.2    85  ASP85       0.2266
     23  O        -20.7710   26.4890   19.3520 O.2    85  ASP85      -0.2867
     24  CB       -19.1620   26.1050   16.9250 C.3    85  ASP85       0.1410
     25  CG       -17.8580   25.3030   16.9730 C.2    85  ASP85       0.3668
     26  OD1      -17.8150   24.2050   16.3920 O.co2  85  ASP85      -0.2456
     27  OD2      -16.8560   25.7770   17.5660 O.co2  85  ASP85      -0.2456
     28  N        -19.5730   24.4390   22.8460 N.3    87  HIS87      -0.1241
     29  CA       -18.5770   23.9780   23.8090 C.3    87  HIS87       0.1621
     30  C        -19.0360   24.2480   25.2150 C.2    87  HIS87       0.2264
     31  O        -19.5380   25.3230   25.4940 O.2    87  HIS87      -0.2867
     32  CB       -17.2380   24.6760   23.5740 C.3    87  HIS87       0.0745
     33  CG       -16.6850   24.4310   22.2130 C.ar   87  HIS87       0.0817
     34  ND1      -16.0550   23.2540   21.8660 N.ar   87  HIS87      -0.2268
     35  CD2      -16.7060   25.1940   21.0940 C.ar   87  HIS87       0.1154
     36  CE1      -15.6900   23.3150   20.5950 C.ar   87  HIS87       0.1986
     37  NE2      -16.0770   24.4800   20.1060 N.ar   87  HIS87      -0.2212
     38  N        -22.4650   20.9660   16.1000 N.3   107  ARG107     -0.1245
     39  CA       -21.1250   20.4460   16.3520 C.3   107  ARG107      0.1563
     40  C        -20.9430   20.2270   17.8390 C.2   107  ARG107      0.2260
     41  O        -21.1270   21.1530   18.6430 O.2   107  ARG107     -0.2867
     42  CB       -20.0450   21.4080   15.8490 C.3   107  ARG107      0.0307
     43  CG       -18.6200   20.9020   16.0760 C.3   107  ARG107      0.0489
     44  CD       -18.0990   21.0860   17.5060 C.3   107  ARG107      0.2205
     45  NE       -16.7640   20.5240   17.6590 N.pl3 107  ARG107     -0.0865
     46  CZ       -15.6390   21.1400   17.3100 C.cat 107  ARG107      0.5346
     47  NH1      -15.6640   22.3730   16.8080 N.pl3 107  ARG107      0.1354
     48  NH2      -14.4780   20.5170   17.4520 N.pl3 107  ARG107      0.1354
     49  N        -21.8940   16.8890   13.9090 N.3   138  ARG138     -0.1245
     50  CA       -20.4850   16.5520   13.7810 C.3   138  ARG138      0.1563
     51  C        -19.9610   16.2880   15.1700 C.2   138  ARG138      0.2260
     52  O        -20.0780   17.1230   16.0390 O.2   138  ARG138     -0.2867
     53  CB       -19.6350   17.6320   13.1050 C.3   138  ARG138      0.0307
     54  CG       -18.1260   17.3100   13.1600 C.3   138  ARG138      0.0489
     55  CD       -17.3310   18.1130   12.1410 C.3   138  ARG138      0.2205
     56  NE       -17.3840   19.5740   12.3160 N.pl3 138  ARG138     -0.0865
     57  CZ       -16.4510   20.3330   12.8970 C.cat 138  ARG138      0.5346
     58  NH1      -15.3540   19.8110   13.4410 N.pl3 138  ARG138      0.1354
     59  NH2      -16.6230   21.6530   12.9410 N.pl3 138  ARG138      0.1354
     60  N        -13.5140   16.0290   17.4400 N.3   141  ALA141     -0.1231
     61  CA       -12.4070   16.0460   18.3850 C.3   141  ALA141      0.1694
     62  C        -11.2970   16.9810   17.8980 C.2   141  ALA141      0.2592
     63  O        -11.1070   17.1980   16.6960 O.2   141  ALA141     -0.2718
     64  CB       -11.8690   14.6410   18.5910 C.3   141  ALA141      0.0304
     65  N        -10.5830   17.5690   18.8400 N.am  142  ASN142     -0.1974
     66  CA        -9.4890   18.4790   18.5250 C.3   142  ASN142      0.1688
     67  C         -8.4690   18.2840   19.6140 C.2   142  ASN142      0.2292
     68  O         -8.8370   18.2180   20.7800 O.2   142  ASN142     -0.2864
     69  CB        -9.9990   19.9270   18.4990 C.3   142  ASN142      0.1181
     70  CG        -8.9770   20.9140   17.9560 C.2   142  ASN142      0.2629
     71  OD1       -7.8280   20.9540   18.4020 O.2   142  ASN142     -0.2716
     72  ND2       -9.3920   21.7230   17.0010 N.am  142  ASN142     -0.0877
     73  N         -9.0380   16.7650   14.7180 N.3   201  LYS201     -0.1245
     74  CA        -8.0350   17.6550   14.1690 C.3   201  LYS201      0.1561
     75  C         -6.8060   17.8350   15.0680 C.2   201  LYS201      0.2260
     76  O         -6.8850   17.8350   16.3040 O.2   201  LYS201     -0.2867
     77  CB        -8.6510   18.9920   13.8220 C.3   201  LYS201      0.0271
     78  CG        -9.8070   18.9380   12.8550 C.3   201  LYS201      0.0035
     79  CD       -10.3330   20.3410   12.5770 C.3   201  LYS201      0.0206
     80  CE       -11.5250   20.3040   11.6330 C.3   201  LYS201      0.1093
     81  NZ       -12.0100   21.6850   11.4090 N.3   201  LYS201     -0.1314
     82  N         -6.0910   22.0300   12.0900 N.3   228  THR228     -0.1203
     83  CA        -6.5160   23.0540   13.0210 C.3   228  THR228      0.1994
     84  C         -5.3370   23.9400   13.3570 C.2   228  THR228      0.2617
     85  O         -4.1720   23.5070   13.3020 O.2   228  THR228     -0.2717
     86  CB        -7.2080   22.4520   14.2730 C.3   228  THR228      0.1784
     87  OG1       -7.7620   23.4960   15.0660 O.3   228  THR228     -0.2211
     88  CG2       -6.2560   21.6090   15.1390 C.3   228  THR228      0.0376
     89  N         -5.6530   25.1870   13.6840 N.am  229  GLU229     -0.1979
     90  CA        -4.6710   26.1780   14.1190 C.3   229  GLU229      0.1602
     91  C         -3.4810   26.3020   13.1290 C.2   229  GLU229      0.2287
     92  O         -2.3290   26.3890   13.5350 O.2   229  GLU229     -0.2864
     93  CB        -4.2100   25.8790   15.5720 C.3   229  GLU229      0.0415
     94  CG        -5.1490   25.0240   16.4500 C.3   229  GLU229      0.1163
     95  CD        -6.5320   25.6210   16.7460 C.2   229  GLU229      0.3649
     96  OE1       -6.9480   26.5410   16.0310 O.co2 229  GLU229     -0.2457
     97  OE2       -7.2260   25.1600   17.7050 O.co2 229  GLU229     -0.2457
     98  N        -12.3900   22.4470    5.9190 N.3   257  ARG257     -0.1245
     99  CA       -12.2980   23.8040    6.4310 C.3   257  ARG257      0.1563
    100  C        -10.8250   24.1360    6.5720 C.2   257  ARG257      0.2260
    101  O        -10.0490   23.3480    7.0990 O.2   257  ARG257     -0.2867
    102  CB       -12.9880   23.9270    7.7950 C.3   257  ARG257      0.0307
    103  CG       -13.1780   25.3550    8.2790 C.3   257  ARG257      0.0489
    104  CD       -12.1090   25.7890    9.2470 C.3   257  ARG257      0.2205
    105  NE       -12.1180   27.2340    9.4610 N.pl3 257  ARG257     -0.0865
    106  CZ       -12.1720   27.8480   10.6440 C.cat 257  ARG257      0.5346
    107  NH1      -12.2410   27.1720   11.7800 N.pl3 257  ARG257      0.1354
    108  NH2      -12.1560   29.1720   10.6890 N.pl3 257  ARG257      0.1354
    109  N         -8.2220   26.4550    8.4340 N.3   259  SER259     -0.1217
    110  CA        -8.1590   27.1840    9.7070 C.3   259  SER259      0.1889
    111  C         -7.0260   28.2130    9.7150 C.2   259  SER259      0.2288
    112  O         -6.0220   28.0420   10.4090 O.2   259  SER259     -0.2866
    113  CB        -8.0090   26.1810   10.8470 C.3   259  SER259      0.2089
    114  OG        -9.1920   25.3920   10.9310 O.3   259  SER259     -0.2183
@<TRIPOS>BOND
     1    98    99    1
     2    99   100    1
     3    99   102    1
     4   100   101    2
     5   102   103    1
     6   103   104    1
     7   109   110    1
     8     1     2    1
     9   104   105    1
    10   105   106    2
    11     9    10    1
    12   110   111    1
    13   110   113    1
    14   111   112    2
    15     4     3    2
    16     2     3    1
    17     2     5    1
    18   106   108    1
    19   106   107    1
    20   113   114    1
    21    10    13    1
    22    10    11    1
    23     5     6    1
    24    12    11    2
    25    13    14    1
    26    81    80    1
    27    80    79    1
    28    19    17    1
    29    82    83    1
    30    55    56    1
    31    55    54    1
    32    56    57    2
    33    16    17    2
    34    16    15    1
    35    79    78    1
    36     6     7    1
    37    78    77    1
    38    14    15    1
    39    17    18    1
    40    57    59    1
    41    57    58    1
    42    83    84    1
    43    83    86    1
    44    53    54    1
    45    53    50    1
    46    91    92    2
    47    91    90    1
    48    85    84    2
    49    84    89   am
    50    89    90    1
    51    50    49    1
    52    50    51    1
    53    77    74    1
    54     7     8    1
    55    90    93    1
    56    74    73    1
    57    74    75    1
    58    86    87    1
    59    86    88    1
    60    75    76    2
    61    51    52    2
    62    93    94    1
    63    42    43    1
    64    42    39    1
    65    96    95   ar
    66    43    44    1
    67    38    39    1
    68    39    40    1
    69    26    25   ar
    70    94    95    1
    71    20    21    1
    72    63    62    2
    73    95    97   ar
    74    47    46    1
    75    24    25    1
    76    24    21    1
    77    25    27   ar
    78    72    70   am
    79    46    48    1
    80    46    45    2
    81    21    22    1
    82    60    61    1
    83    44    45    1
    84    40    41    2
    85    62    61    1
    86    62    65   am
    87    70    71    2
    88    70    69    1
    89    61    64    1
    90    69    66    1
    91    66    65    1
    92    66    67    1
    93    22    23    2
    94    67    68    2
    95    37    36   ar
    96    37    35   ar
    97    36    34   ar
    98    35    33   ar
    99    34    33   ar
   100    33    32    1
   101    28    29    1
   102    32    29    1
   103    29    30    1
   104    30    31    2
