@<TRIPOS>MOLECULE
tmp/4s3fA00.pdb
 114 104 0 0 0
SMALL
GASTEIGER

@<TRIPOS>ATOM
      1  N        -16.0360   29.0430    8.8890 N.3    26  MET26      -0.1245
      2  CA       -16.6010   29.4380   10.1590 C.3    26  MET26       0.1570
      3  C        -16.4830   30.9430   10.2780 C.2    26  MET26       0.2261
      4  O        -15.4890   31.5410    9.8550 O.2    26  MET26      -0.2867
      5  CB       -15.8630   28.7380   11.3040 C.3    26  MET26       0.0387
      6  CG       -16.4440   28.9960   12.7060 C.3    26  MET26       0.0595
      7  SD       -15.7290   27.8500   13.9150 S.3    26  MET26      -0.1393
      8  CE       -16.6360   28.3130   15.3900 C.3    26  MET26       0.0692
      9  N        -20.2750   27.4720    9.5920 N.3    53  ARG53      -0.1245
     10  CA       -20.3350   27.1970   11.0170 C.3    53  ARG53       0.1563
     11  C        -20.2570   28.4920   11.7940 C.2    53  ARG53       0.2260
     12  O        -19.5760   29.4340   11.3790 O.2    53  ARG53      -0.2867
     13  CB       -19.1890   26.2620   11.4170 C.3    53  ARG53       0.0307
     14  CG       -19.1640   25.8960   12.8970 C.3    53  ARG53       0.0489
     15  CD       -18.2960   24.6780   13.1690 C.3    53  ARG53       0.2205
     16  NE       -17.0630   24.6470   12.3710 N.pl3  53  ARG53      -0.0865
     17  CZ       -15.8270   24.4500   12.8520 C.cat  53  ARG53       0.5346
     18  NH1      -15.6010   24.2900   14.1510 N.pl3  53  ARG53       0.1354
     19  NH2      -14.7890   24.3860   12.0190 N.pl3  53  ARG53       0.1354
     20  N        -21.5440   25.4610   16.6630 N.3    84  ASP84      -0.1239
     21  CA       -20.3900   24.9530   17.3710 C.3    84  ASP84       0.1674
     22  C        -20.6290   25.0960   18.8810 C.2    84  ASP84       0.2266
     23  O        -20.6660   26.1630   19.3800 O.2    84  ASP84      -0.2867
     24  CB       -19.1550   25.7510   16.9570 C.3    84  ASP84       0.1410
     25  CG       -17.8460   24.9310   16.9790 C.2    84  ASP84       0.3668
     26  OD1      -17.7680   23.9310   16.3290 O.co2  84  ASP84      -0.2456
     27  OD2      -16.9130   25.3430   17.6440 O.co2  84  ASP84      -0.2456
     28  N        -19.5500   24.1280   22.8890 N.3    86  HIS86      -0.1241
     29  CA       -18.5750   23.6780   23.8760 C.3    86  HIS86       0.1621
     30  C        -19.0340   23.9490   25.2950 C.2    86  HIS86       0.2264
     31  O        -19.5020   25.0080   25.5660 O.2    86  HIS86      -0.2867
     32  CB       -17.2440   24.3670   23.6260 C.3    86  HIS86       0.0745
     33  CG       -16.6910   24.1090   22.2710 C.ar   86  HIS86       0.0817
     34  ND1      -16.0500   22.9430   21.9460 N.ar   86  HIS86      -0.2268
     35  CD2      -16.7000   24.8560   21.1480 C.ar   86  HIS86       0.1154
     36  CE1      -15.6790   22.9850   20.6850 C.ar   86  HIS86       0.1986
     37  NE2      -16.0750   24.1290   20.1730 N.ar   86  HIS86      -0.2212
     38  N        -22.4370   20.6370   16.1220 N.3   106  ARG106     -0.1245
     39  CA       -21.0950   20.1160   16.3710 C.3   106  ARG106      0.1563
     40  C        -20.9280   19.8910   17.8640 C.2   106  ARG106      0.2260
     41  O        -21.1220   20.8050   18.6630 O.2   106  ARG106     -0.2867
     42  CB       -19.9970   21.0630   15.8640 C.3   106  ARG106      0.0307
     43  CG       -18.5770   20.5180   16.0820 C.3   106  ARG106      0.0489
     44  CD       -18.0430   20.7450   17.5070 C.3   106  ARG106      0.2205
     45  NE       -16.7010   20.1990   17.6800 N.pl3 106  ARG106     -0.0865
     46  CZ       -15.5830   20.8330   17.3370 C.cat 106  ARG106      0.5346
     47  NH1      -15.6280   22.0680   16.8370 N.pl3 106  ARG106      0.1354
     48  NH2      -14.4150   20.2260   17.4790 N.pl3 106  ARG106      0.1354
     49  N        -21.8720   16.5750   13.9960 N.3   137  ARG137     -0.1245
     50  CA       -20.4880   16.2400   13.7930 C.3   137  ARG137      0.1563
     51  C        -19.9600   15.9520   15.1570 C.2   137  ARG137      0.2260
     52  O        -20.0920   16.7480   16.0200 O.2   137  ARG137     -0.2867
     53  CB       -19.6710   17.3680   13.1700 C.3   137  ARG137      0.0307
     54  CG       -18.1770   17.0960   13.2530 C.3   137  ARG137      0.0489
     55  CD       -17.3660   17.8970   12.2690 C.3   137  ARG137      0.2205
     56  NE       -17.4220   19.3300   12.3920 N.pl3 137  ARG137     -0.0865
     57  CZ       -16.4920   20.0990   12.9410 C.cat 137  ARG137      0.5346
     58  NH1      -15.4230   19.5900   13.4800 N.pl3 137  ARG137      0.1354
     59  NH2      -16.6640   21.3820   12.9700 N.pl3 137  ARG137      0.1354
     60  N        -13.4620   15.7380   17.4300 N.3   140  ALA140     -0.1231
     61  CA       -12.4390   15.7890   18.4340 C.3   140  ALA140      0.1694
     62  C        -11.3110   16.7070   17.9360 C.2   140  ALA140      0.2592
     63  O        -11.1170   16.8600   16.7790 O.2   140  ALA140     -0.2718
     64  CB       -11.9210   14.4080   18.7380 C.3   140  ALA140      0.0304
     65  N        -10.6060   17.2940   18.8690 N.am  141  ASN141     -0.1974
     66  CA        -9.4900   18.1580   18.5530 C.3   141  ASN141      0.1688
     67  C         -8.4410   17.9320   19.6320 C.2   141  ASN141      0.2292
     68  O         -8.7760   17.8750   20.7870 O.2   141  ASN141     -0.2864
     69  CB        -9.9940   19.5980   18.5090 C.3   141  ASN141      0.1181
     70  CG        -8.9790   20.5900   17.9590 C.2   141  ASN141      0.2629
     71  OD1       -7.9120   20.7030   18.4630 O.2   141  ASN141     -0.2716
     72  ND2       -9.3650   21.3230   16.9530 N.am  141  ASN141     -0.0877
     73  N         -9.0470   16.4270   14.7130 N.3   200  LYS200     -0.1245
     74  CA        -8.0640   17.3450   14.1600 C.3   200  LYS200      0.1561
     75  C         -6.8410   17.5380   15.0520 C.2   200  LYS200      0.2260
     76  O         -6.9410   17.6400   16.2770 O.2   200  LYS200     -0.2867
     77  CB        -8.6910   18.7010   13.8630 C.3   200  LYS200      0.0271
     78  CG        -9.8310   18.6430   12.8680 C.3   200  LYS200      0.0035
     79  CD       -10.3420   20.0290   12.5340 C.3   200  LYS200      0.0206
     80  CE       -11.5290   19.9740   11.6020 C.3   200  LYS200      0.1093
     81  NZ       -12.0570   21.3500   11.3810 N.3   200  LYS200     -0.1314
     82  N         -6.1240   21.7210   12.0880 N.3   227  THR227     -0.1203
     83  CA        -6.5420   22.7520   13.0270 C.3   227  THR227      0.1994
     84  C         -5.3630   23.6420   13.3740 C.2   227  THR227      0.2617
     85  O         -4.2150   23.2070   13.3410 O.2   227  THR227     -0.2717
     86  CB        -7.2270   22.1450   14.2880 C.3   227  THR227      0.1784
     87  OG1       -7.7390   23.1890   15.1250 O.3   227  THR227     -0.2211
     88  CG2       -6.2750   21.2630   15.0890 C.3   227  THR227      0.0376
     89  N         -5.6590   24.8970   13.6800 N.am  228  GLU228     -0.1979
     90  CA        -4.6620   25.8490   14.1410 C.3   228  GLU228      0.1602
     91  C         -3.4790   25.9440   13.1460 C.2   228  GLU228      0.2287
     92  O         -2.3130   25.9660   13.5520 O.2   228  GLU228     -0.2864
     93  CB        -4.1910   25.4780   15.5730 C.3   228  GLU228      0.0415
     94  CG        -5.1550   24.6810   16.4840 C.3   228  GLU228      0.1163
     95  CD        -6.5440   25.2920   16.7170 C.2   228  GLU228      0.3649
     96  OE1       -6.9280   26.2260   16.0040 O.co2 228  GLU228     -0.2457
     97  OE2       -7.2870   24.8270   17.6280 O.co2 228  GLU228     -0.2457
     98  N        -12.3640   22.1740    5.8650 N.3   256  ARG256     -0.1245
     99  CA       -12.3120   23.5290    6.3850 C.3   256  ARG256      0.1563
    100  C        -10.8360   23.8410    6.5700 C.2   256  ARG256      0.2260
    101  O        -10.0740   23.0130    7.0900 O.2   256  ARG256     -0.2867
    102  CB       -13.0310   23.6160    7.7290 C.3   256  ARG256      0.0307
    103  CG       -13.1960   25.0310    8.2760 C.3   256  ARG256      0.0489
    104  CD       -12.0700   25.4680    9.1830 C.3   256  ARG256      0.2205
    105  NE       -12.1010   26.9120    9.3840 N.pl3 256  ARG256     -0.0865
    106  CZ       -12.2070   27.5510   10.5480 C.cat 256  ARG256      0.5346
    107  NH1      -12.2870   26.9040   11.7110 N.pl3 256  ARG256      0.1354
    108  NH2      -12.2060   28.8680   10.5370 N.pl3 256  ARG256      0.1354
    109  N         -8.2150   26.1700    8.4420 N.3   258  SER258     -0.1217
    110  CA        -8.1540   26.8850    9.7120 C.3   258  SER258      0.1889
    111  C         -7.0070   27.8850    9.7140 C.2   258  SER258      0.2288
    112  O         -6.0050   27.7060   10.4110 O.2   258  SER258     -0.2866
    113  CB        -8.0190   25.8750   10.8530 C.3   258  SER258      0.2089
    114  OG        -9.2170   25.1240   10.9480 O.3   258  SER258     -0.2183
@<TRIPOS>BOND
     1    98    99    1
     2    99   100    1
     3    99   102    1
     4   100   101    2
     5   102   103    1
     6   103   104    1
     7   109   110    1
     8     1     2    1
     9   104   105    1
    10   105   106    2
    11     9    10    1
    12   110   111    1
    13   110   113    1
    14   111   112    2
    15     4     3    2
    16     2     3    1
    17     2     5    1
    18   108   106    1
    19   106   107    1
    20   113   114    1
    21    10    13    1
    22    10    11    1
    23     5     6    1
    24    12    11    2
    25    81    80    1
    26    13    14    1
    27    80    79    1
    28    19    17    1
    29    82    83    1
    30    55    56    1
    31    55    54    1
    32    16    17    2
    33    16    15    1
    34    56    57    2
    35    79    78    1
    36     6     7    1
    37    17    18    1
    38    78    77    1
    39    14    15    1
    40    57    59    1
    41    57    58    1
    42    83    84    1
    43    83    86    1
    44    91    92    2
    45    91    90    1
    46    53    54    1
    47    53    50    1
    48    85    84    2
    49    84    89   am
    50    89    90    1
    51    50    49    1
    52    50    51    1
    53    77    74    1
    54     7     8    1
    55    90    93    1
    56    74    73    1
    57    74    75    1
    58    86    88    1
    59    86    87    1
    60    75    76    2
    61    51    52    2
    62    93    94    1
    63    42    43    1
    64    42    39    1
    65    96    95   ar
    66    43    44    1
    67    38    39    1
    68    26    25   ar
    69    39    40    1
    70    94    95    1
    71    20    21    1
    72    95    97   ar
    73    63    62    2
    74    47    46    1
    75    72    70   am
    76    24    25    1
    77    24    21    1
    78    25    27   ar
    79    46    48    1
    80    46    45    2
    81    21    22    1
    82    60    61    1
    83    44    45    1
    84    40    41    2
    85    62    61    1
    86    62    65   am
    87    70    71    2
    88    70    69    1
    89    61    64    1
    90    69    66    1
    91    66    65    1
    92    66    67    1
    93    22    23    2
    94    67    68    2
    95    37    36   ar
    96    37    35   ar
    97    36    34   ar
    98    35    33   ar
    99    34    33   ar
   100    33    32    1
   101    28    29    1
   102    32    29    1
   103    29    30    1
   104    30    31    2
