@<TRIPOS>MOLECULE
tmp/4s3qA00.pdb
 165 162 0 0 0
SMALL
GASTEIGER

@<TRIPOS>ATOM
      1  N         24.0480    6.9250    7.3230 N.3   190  SER190     -0.1217
      2  CA        23.8130    6.0840    8.4830 C.3   190  SER190      0.1889
      3  C         24.0630    4.6110    8.1960 C.2   190  SER190      0.2288
      4  O         23.3390    4.0200    7.4040 O.2   190  SER190     -0.2866
      5  CB        22.3780    6.2460    9.0140 C.3   190  SER190      0.2089
      6  OG        22.2180    5.5190   10.2210 O.3   190  SER190     -0.2183
      7  N         23.0470    2.3550    9.9050 N.3   192  TYR192     -0.1227
      8  CA        21.9040    1.6570   10.5160 C.3   192  TYR192      0.1736
      9  C         20.5790    1.7930    9.7610 C.2   192  TYR192      0.2596
     10  O         19.5600    1.3190   10.2340 O.2   192  TYR192     -0.2718
     11  CB        21.7110    2.1600   11.9640 C.3   192  TYR192      0.0548
     12  CG        22.9270    1.8760   12.8000 C.ar  192  TYR192     -0.0200
     13  CD1       23.0820    0.6540   13.4450 C.ar  192  TYR192     -0.0009
     14  CD2       23.9530    2.8070   12.8960 C.ar  192  TYR192     -0.0009
     15  CE1       24.2170    0.3880   14.1780 C.ar  192  TYR192      0.0417
     16  CE2       25.0960    2.5360   13.6160 C.ar  192  TYR192      0.0417
     17  CZ        25.2170    1.3390   14.2620 C.ar  192  TYR192      0.1957
     18  OH        26.3600    1.0690   14.9770 O.3   192  TYR192     -0.2866
     19  N         20.5710    2.4320    8.5940 N.am  193  SER193     -0.1952
     20  CA        19.4240    2.2610    7.7050 C.3   193  SER193      0.1924
     21  C         19.9010    1.6910    6.3600 C.2   193  SER193      0.2314
     22  O         19.7700    2.3340    5.3250 O.2   193  SER193     -0.2863
     23  CB        18.6080    3.5440    7.5660 C.3   193  SER193      0.2116
     24  OG        19.2170    4.4250    6.6750 O.3   193  SER193     -0.2180
     25  N         20.4230   -4.0220   13.1970 N.3   368  VAL368     -0.1245
     26  CA        19.2270   -4.7510   13.5890 C.3   368  VAL368      0.1561
     27  C         18.2180   -4.8580   12.4810 C.2   368  VAL368      0.2260
     28  O         17.2920   -5.6590   12.5840 O.2   368  VAL368     -0.2867
     29  CB        18.5290   -4.1300   14.8360 C.3   368  VAL368      0.0252
     30  CG1       17.6740   -2.9340   14.4790 C.3   368  VAL368      0.0019
     31  CG2       17.6820   -5.1750   15.5580 C.3   368  VAL368      0.0019
     32  N         11.3560    5.3340   17.0300 N.3   403  ASN403     -0.1225
     33  CA        10.9690    4.6540   15.8050 C.3   403  ASN403      0.1785
     34  C         12.1780    4.7010   14.9060 C.2   403  ASN403      0.2597
     35  O         12.5600    5.7740   14.4170 O.2   403  ASN403     -0.2718
     36  CB         9.7610    5.3190   15.1190 C.3   403  ASN403      0.1169
     37  CG         9.3890    4.6410   13.7820 C.2   403  ASN403      0.2627
     38  OD1       10.1790    3.9060   13.2110 O.2   403  ASN403     -0.2716
     39  ND2        8.1880    4.8920   13.2990 N.am  403  ASN403     -0.0877
     40  N         12.7690    3.5360   14.6660 N.am  404  TRP404     -0.1976
     41  CA        13.9980    3.4600   13.8950 C.3   404  TRP404      0.1640
     42  C         13.7550    3.3130   12.3820 C.2   404  TRP404      0.2290
     43  O         14.7050    3.1590   11.6300 O.2   404  TRP404     -0.2864
     44  CB        14.8480    2.2890   14.3870 C.3   404  TRP404      0.0576
     45  CG        15.0550    2.2320   15.8620 C.ar  404  TRP404      0.0006
     46  CD1       15.0760    3.2900   16.7370 C.ar  404  TRP404      0.0946
     47  CD2       15.3110    1.0580   16.6460 C.ar  404  TRP404      0.0152
     48  NE1       15.3130    2.8370   18.0170 N.ar  404  TRP404     -0.2442
     49  CE2       15.4730    1.4780   17.9890 C.ar  404  TRP404      0.0810
     50  CE3       15.4290   -0.3010   16.3480 C.ar  404  TRP404      0.0012
     51  CZ2       15.7340    0.5790   19.0250 C.ar  404  TRP404      0.0191
     52  CZ3       15.6850   -1.1930   17.3820 C.ar  404  TRP404      0.0001
     53  CH2       15.8310   -0.7540   18.6980 C.ar  404  TRP404      0.0015
     54  N         12.7270    0.9450   10.3680 N.3   406  LEU406     -0.1245
     55  CA        13.0740   -0.2890    9.6580 C.3   406  LEU406      0.1561
     56  C         11.8560   -1.2380    9.6640 C.2   406  LEU406      0.2260
     57  O         11.2750   -1.4560   10.7160 O.2   406  LEU406     -0.2867
     58  CB        14.2530   -0.9580   10.3720 C.3   406  LEU406      0.0270
     59  CG        15.3630   -0.0380   10.8920 C.3   406  LEU406      0.0019
     60  CD1       16.2300   -0.7150   11.9270 C.3   406  LEU406      0.0001
     61  CD2       16.2210    0.4500    9.7460 C.3   406  LEU406      0.0001
     62  N         29.2920   -8.6990   16.4010 N.3   437  ARG437     -0.1245
     63  CA        28.4070   -8.0500   17.3530 C.3   437  ARG437      0.1563
     64  C         27.0350   -8.0310   16.7280 C.2   437  ARG437      0.2260
     65  O         26.8630   -7.5360   15.6210 O.2   437  ARG437     -0.2867
     66  CB        28.8440   -6.6200   17.6710 C.3   437  ARG437      0.0307
     67  CG        27.9220   -5.9090   18.6430 C.3   437  ARG437      0.0489
     68  CD        28.2970   -4.4430   18.8360 C.3   437  ARG437      0.2205
     69  NE        27.1020   -3.6070   18.7540 N.pl3 437  ARG437     -0.0865
     70  CZ        26.9530   -2.4440   19.3510 C.cat 437  ARG437      0.5346
     71  NH1       27.9260   -1.9440   20.0950 N.pl3 437  ARG437      0.1354
     72  NH2       25.8120   -1.7810   19.2120 N.pl3 437  ARG437      0.1354
     73  N         23.7220   -6.2970   17.0790 N.3   439  ASP439     -0.1225
     74  CA        22.9600   -5.2060   17.6260 C.3   439  ASP439      0.1805
     75  C         21.6500   -5.6630   18.1850 C.2   439  ASP439      0.2597
     76  O         20.9780   -6.4460   17.5650 O.2   439  ASP439     -0.2718
     77  CB        22.6370   -4.2060   16.5350 C.3   439  ASP439      0.1424
     78  CG        23.7440   -3.2630   16.2790 C.2   439  ASP439      0.3668
     79  OD1       24.8920   -3.4880   16.7570 O.co2 439  ASP439     -0.2456
     80  OD2       23.4340   -2.2750   15.6150 O.co2 439  ASP439     -0.2456
     81  N         21.2750   -5.1450   19.3490 N.am  440  HIS440     -0.1975
     82  CA        19.9600   -5.4000   19.9300 C.3   440  HIS440      0.1656
     83  C         19.6470   -6.8850   19.8580 C.2   440  HIS440      0.2291
     84  O         18.6730   -7.3120   19.2470 O.2   440  HIS440     -0.2864
     85  CB        18.9080   -4.5410   19.2250 C.3   440  HIS440      0.0771
     86  CG        17.5810   -4.4750   19.9220 C.ar  440  HIS440      0.0820
     87  ND1       17.4130   -3.9010   21.1660 N.ar  440  HIS440     -0.2267
     88  CD2       16.3430   -4.8580   19.5180 C.ar  440  HIS440      0.1154
     89  CE1       16.1380   -3.9600   21.5120 C.ar  440  HIS440      0.1986
     90  NE2       15.4650   -4.5320   20.5280 N.ar  440  HIS440     -0.2212
     91  N         24.7460   -7.3930   21.8290 N.3   487  GLU487     -0.1245
     92  CA        24.5590   -6.0760   22.4450 C.3   487  GLU487      0.1567
     93  C         23.2460   -6.1390   23.1870 C.2   487  GLU487      0.2260
     94  O         22.2010   -6.3740   22.5990 O.2   487  GLU487     -0.2867
     95  CB        24.5900   -4.9590   21.4140 C.3   487  GLU487      0.0388
     96  CG        24.3460   -3.5520   21.9730 C.3   487  GLU487      0.1160
     97  CD        22.8740   -3.2240   22.0640 C.2   487  GLU487      0.3649
     98  OE1       22.2380   -3.1330   20.9880 O.co2 487  GLU487     -0.2457
     99  OE2       22.3490   -3.0750   23.2000 O.co2 487  GLU487     -0.2457
    100  N         29.4460    4.6160   20.0180 N.3   538  HIS538     -0.1226
    101  CA        29.2580    5.6470   18.9990 C.3   538  HIS538      0.1752
    102  C         27.9860    6.4630   19.2310 C.2   538  HIS538      0.2596
    103  O         27.8320    7.5390   18.6680 O.2   538  HIS538     -0.2718
    104  CB        29.2300    4.9760   17.5990 C.3   538  HIS538      0.0759
    105  CG        28.0430    4.0890   17.3990 C.ar  538  HIS538      0.0818
    106  ND1       28.0060    2.7980   17.8660 N.ar  538  HIS538     -0.2268
    107  CD2       26.8120    4.3460   16.9040 C.ar  538  HIS538      0.1154
    108  CE1       26.8170    2.2770   17.6250 C.ar  538  HIS538      0.1986
    109  NE2       26.0710    3.1980   17.0460 N.ar  538  HIS538     -0.2212
    110  N         27.0760    5.9490   20.0430 N.am  539  ASP539     -0.1974
    111  CA        25.8520    6.6460   20.4280 C.3   539  ASP539      0.1709
    112  C         25.9960    7.5430   21.6810 C.2   539  ASP539      0.2293
    113  O         25.0580    8.2410   22.0150 O.2   539  ASP539     -0.2864
    114  CB        24.7210    5.6400   20.6970 C.3   539  ASP539      0.1436
    115  CG        24.1620    5.0110   19.4290 C.2   539  ASP539      0.3671
    116  OD1       24.0370    5.7150   18.3850 O.co2 539  ASP539     -0.2456
    117  OD2       23.8540    3.7890   19.4830 O.co2 539  ASP539     -0.2456
    118  N         27.9680   10.5000   16.6330 N.3   639  ASN639     -0.1225
    119  CA        26.5410   10.4120   16.3610 C.3   639  ASN639      0.1785
    120  C         25.7670   10.8610   17.5890 C.2   639  ASN639      0.2597
    121  O         26.1620   10.5440   18.7000 O.2   639  ASN639     -0.2718
    122  CB        26.1420    8.9760   15.9940 C.3   639  ASN639      0.1169
    123  CG        24.6340    8.7860   15.8960 C.2   639  ASN639      0.2627
    124  OD1       23.9550    9.4380   15.1150 O.2   639  ASN639     -0.2716
    125  ND2       24.1070    7.8860   16.7050 N.am  639  ASN639     -0.0877
    126  N         24.6780   11.5920   17.3760 N.am  640  ILE640     -0.1966
    127  CA        23.7940   12.0340   18.4480 C.3   640  ILE640      0.1712
    128  C         22.4150   11.4280   18.2060 C.2   640  ILE640      0.2458
    129  O         21.7370   11.7950   17.2350 O.2   640  ILE640     -0.2730
    130  CB        23.6930   13.5620   18.5080 C.3   640  ILE640      0.0289
    131  CG1       25.0770   14.1700   18.7680 C.3   640  ILE640      0.0022
    132  CG2       22.6950   13.9870   19.5860 C.3   640  ILE640      0.0023
    133  CD1       25.0940   15.6950   18.8510 C.3   640  ILE640      0.0001
    134  N         22.0090   10.4640   19.0610 N.am  641  PRO641     -0.2716
    135  CA        20.7210    9.7920   18.9300 C.3   641  PRO641      0.1536
    136  C         19.5600   10.7640   18.8700 C.2   641  PRO641      0.2599
    137  O         19.5120   11.6950   19.6530 O.2   641  PRO641     -0.2715
    138  CB        20.6540    8.9540   20.2050 C.3   641  PRO641      0.0310
    139  CG        22.0690    8.5610   20.4310 C.3   641  PRO641      0.0237
    140  CD        22.8660    9.7800   20.0530 C.3   641  PRO641      0.0939
    141  N         18.6450   10.5530   17.9290 N.am  642  GLY642     -0.1941
    142  CA        17.4980   11.4450   17.7380 C.3   642  GLY642      0.2014
    143  C         17.8270   12.7340   17.0040 C.2   642  GLY642      0.2639
    144  O         17.1530   13.7680   17.2060 O.2   642  GLY642     -0.2714
    145  N         18.8770   12.7140   16.1870 N.am  643  THR643     -0.1950
    146  CA        19.1380   13.8300   15.2600 C.3   643  THR643      0.1897
    147  C         19.3260   13.2700   13.8600 C.2   643  THR643      0.2313
    148  O         19.6430   12.0930   13.7010 O.2   643  THR643     -0.2863
    149  CB        20.3900   14.6530   15.6350 C.3   643  THR643      0.1794
    150  OG1       21.5640   13.8250   15.6000 O.3   643  THR643     -0.2208
    151  CG2       20.2480   15.2720   17.0250 C.3   643  THR643      0.0378
    152  N         27.8680   10.5870   11.6120 N.3   650  TRP650     -0.1241
    153  CA        28.6260    9.6160   10.8170 C.3   650  TRP650      0.1605
    154  C         29.7270   10.2960   10.0080 C.2   650  TRP650      0.2264
    155  O         30.1600    9.7740    8.9620 O.2   650  TRP650     -0.2867
    156  CB        27.6830    8.8010    9.8980 C.3   650  TRP650      0.0550
    157  CG        26.3820    8.4470   10.5970 C.ar  650  TRP650      0.0003
    158  CD1       25.1400    8.9150   10.3070 C.ar  650  TRP650      0.0946
    159  CD2       26.2340    7.5810   11.7260 C.ar  650  TRP650      0.0152
    160  NE1       24.2190    8.3780   11.1740 N.ar  650  TRP650     -0.2442
    161  CE2       24.8690    7.5750   12.0720 C.ar  650  TRP650      0.0810
    162  CE3       27.1260    6.8240   12.4860 C.ar  650  TRP650      0.0012
    163  CZ2       24.3680    6.8330   13.1440 C.ar  650  TRP650      0.0191
    164  CZ3       26.6290    6.0890   13.5820 C.ar  650  TRP650      0.0001
    165  CH2       25.2610    6.1050   13.8890 C.ar  650  TRP650      0.0015
@<TRIPOS>BOND
     1    22    21    2
     2    21    20    1
     3    24    23    1
     4     1     2    1
     5     4     3    2
     6    23    20    1
     7    20    19    1
     8     3     2    1
     9     2     5    1
    10    19     9   am
    11   155   154    2
    12     5     6    1
    13    55    56    1
    14    55    54    1
    15    55    58    1
    16    56    57    2
    17    61    59    1
    18     9    10    2
    19     9     8    1
    20   156   157    1
    21   156   153    1
    22     7     8    1
    23   154   153    1
    24   158   157   ar
    25   158   160   ar
    26    58    59    1
    27     8    11    1
    28   157   159   ar
    29   153   152    1
    30    59    60    1
    31   160   161   ar
    32    43    42    2
    33   159   161   ar
    34   159   162   ar
    35    11    12    1
    36   161   163   ar
    37    42    41    1
    38    27    28    2
    39    27    26    1
    40   162   164   ar
    41    12    14   ar
    42    12    13   ar
    43    14    16   ar
    44   163   165   ar
    45    25    26    1
    46    38    37    2
    47    39    37   am
    48    13    15   ar
    49   164   165   ar
    50    26    29    1
    51    16    17   ar
    52   148   147    2
    53    37    36    1
    54   147   146    1
    55    41    44    1
    56    41    40    1
    57    15    17   ar
    58    17    18    1
    59    44    45    1
    60    35    34    2
    61    30    29    1
    62    40    34   am
    63    29    31    1
    64    34    33    1
    65   124   123    2
    66    36    33    1
    67   146   149    1
    68   146   145    1
    69   150   149    1
    70    80    78   ar
    71    65    64    2
    72   149   151    1
    73    33    32    1
    74    45    47   ar
    75    45    46   ar
    76   123   122    1
    77   123   125   am
    78   122   119    1
    79   145   143   am
    80    78    77    1
    81    78    79   ar
    82    50    47   ar
    83    50    52   ar
    84   119   118    1
    85   119   120    1
    86    62    63    1
    87    77    74    1
    88    47    49   ar
    89    64    63    1
    90    46    48   ar
    91   107   109   ar
    92   107   105   ar
    93   143   144    2
    94   143   142    1
    95   109   108   ar
    96    73    74    1
    97   129   128    2
    98    63    66    1
    99   126   120   am
   100   126   127    1
   101    52    53   ar
   102   105   104    1
   103   105   106   ar
   104    76    75    2
   105   120   121    2
   106   104   101    1
   107   108   106   ar
   108    74    75    1
   109    66    67    1
   110   142   141    1
   111   141   136   am
   112    49    48   ar
   113    49    51   ar
   114    75    81   am
   115   128   127    1
   116   128   134   am
   117   116   115   ar
   118   127   130    1
   119   130   131    1
   120   130   132    1
   121    67    68    1
   122   103   102    2
   123    53    51   ar
   124    69    68    1
   125    69    70    2
   126   131   133    1
   127   136   135    1
   128   136   137    2
   129   135   134    1
   130   135   138    1
   131   101   102    1
   132   101   100    1
   133   134   140    1
   134    72    70    1
   135    85    86    1
   136    85    82    1
   137   102   110   am
   138    84    83    2
   139    81    82    1
   140    70    71    1
   141   115   117   ar
   142   115   114    1
   143    88    86   ar
   144    88    90   ar
   145    83    82    1
   146    86    87   ar
   147   110   111    1
   148   140   139    1
   149   138   139    1
   150   111   114    1
   151   111   112    1
   152    90    89   ar
   153    98    97   ar
   154    87    89   ar
   155    95    96    1
   156    95    92    1
   157   112   113    2
   158    91    92    1
   159    96    97    1
   160    97    99   ar
   161    92    93    1
   162    94    93    2
