@<TRIPOS>MOLECULE
tmp/4sliA00.pdb
 218 206 0 0 0
SMALL
GASTEIGER

@<TRIPOS>ATOM
      1  N          8.9030    3.9640   28.5160 N.3   213  ARG213     -0.1231
      2  CA         7.9110    4.8960   29.0430 C.3   213  ARG213      0.1694
      3  C          8.6140    6.1860   29.4710 C.2   213  ARG213      0.2591
      4  O          9.8390    6.2390   29.5250 O.2   213  ARG213     -0.2718
      5  CB         7.2190    4.2930   30.2770 C.3   213  ARG213      0.0321
      6  CG         6.0120    3.4220   29.9730 C.3   213  ARG213      0.0489
      7  CD         4.7280    4.1810   30.2540 C.3   213  ARG213      0.2205
      8  NE         4.3320    4.1040   31.6480 N.pl3 213  ARG213     -0.0865
      9  CZ         3.7430    5.0710   32.3500 C.cat 213  ARG213      0.5346
     10  NH1        3.4610    6.2610   31.8280 N.pl3 213  ARG213      0.1354
     11  NH2        3.3910    4.8130   33.5950 N.pl3 213  ARG213      0.1354
     12  N          7.8140    7.2110   29.7560 N.am  214  ILE214     -0.1980
     13  CA         8.2770    8.5140   30.2550 C.3   214  ILE214      0.1595
     14  C          9.2600    9.2530   29.3360 C.2   214  ILE214      0.2287
     15  O         10.4480    9.3760   29.6410 O.2   214  ILE214     -0.2864
     16  CB         8.8970    8.3810   31.6850 C.3   214  ILE214      0.0276
     17  CG1        8.2180    7.2560   32.4940 C.3   214  ILE214      0.0022
     18  CG2        8.7720    9.6980   32.4350 C.3   214  ILE214      0.0022
     19  CD1        6.7120    7.4050   32.6900 C.3   214  ILE214      0.0001
     20  N         12.0650    0.1790   30.5490 N.3   232  ARG232     -0.1245
     21  CA        11.4010   -0.6870   31.5280 C.3   232  ARG232      0.1563
     22  C         11.4650   -2.1570   31.1050 C.2   232  ARG232      0.2260
     23  O         10.7070   -2.6080   30.2540 O.2   232  ARG232     -0.2867
     24  CB         9.9470   -0.2190   31.7490 C.3   232  ARG232      0.0307
     25  CG         9.8530    1.2130   32.3030 C.3   232  ARG232      0.0489
     26  CD         8.4490    1.6250   32.7590 C.3   232  ARG232      0.2205
     27  NE         8.4820    2.9570   33.3710 N.pl3 232  ARG232     -0.0865
     28  CZ         7.5400    3.4680   34.1650 C.cat 232  ARG232      0.5346
     29  NH1        6.4440    2.7730   34.4550 N.pl3 232  ARG232      0.1354
     30  NH2        7.7400    4.6480   34.7530 N.pl3 232  ARG232      0.1354
     31  N          5.7690   -2.7370   31.8610 N.3   236  THR236     -0.1203
     32  CA         5.6790   -1.2890   31.9660 C.3   236  THR236      0.1994
     33  C          5.4260   -0.7730   33.3910 C.2   236  THR236      0.2618
     34  O          5.0790    0.3950   33.5760 O.2   236  THR236     -0.2717
     35  CB         4.5850   -0.7720   31.0350 C.3   236  THR236      0.1784
     36  OG1        3.3540   -1.4390   31.3480 O.3   236  THR236     -0.2211
     37  CG2        4.9460   -1.0530   29.5950 C.3   236  THR236      0.0376
     38  N          5.6290   -1.6320   34.3880 N.am  237  HIS237     -0.1961
     39  CA         5.4160   -1.2770   35.8010 C.3   237  HIS237      0.1787
     40  C          6.3580   -0.1810   36.3100 C.2   237  HIS237      0.2620
     41  O          7.5350   -0.1420   35.9170 O.2   237  HIS237     -0.2715
     42  CB         5.6460   -2.4990   36.7000 C.3   237  HIS237      0.0785
     43  CG         4.5950   -3.5530   36.5810 C.ar  237  HIS237      0.0821
     44  ND1        4.8970   -4.8790   36.3360 N.ar  237  HIS237     -0.2267
     45  CD2        3.2480   -3.4890   36.6930 C.ar  237  HIS237      0.1154
     46  CE1        3.7800   -5.5830   36.3060 C.ar  237  HIS237      0.1986
     47  NE2        2.7650   -4.7620   36.5200 N.ar  237  HIS237     -0.2212
     48  N          5.8530    0.6820   37.1980 N.am  238  ASP238     -0.1957
     49  CA         6.6890    1.7220   37.8010 C.3   238  ASP238      0.1840
     50  C          7.6220    1.0340   38.7560 C.2   238  ASP238      0.2622
     51  O          7.3640   -0.1000   39.1710 O.2   238  ASP238     -0.2715
     52  CB         5.9040    2.6840   38.6720 C.3   238  ASP238      0.1450
     53  CG         4.8560    3.4250   37.9300 C.2   238  ASP238      0.3671
     54  OD1        5.0160    3.7430   36.7220 O.co2 238  ASP238     -0.2456
     55  OD2        3.8530    3.7000   38.6090 O.co2 238  ASP238     -0.2456
     56  N          8.5700    1.8090   39.2720 N.am  239  SER239     -0.1950
     57  CA         9.5540    1.2970   40.1960 C.3   239  SER239      0.1924
     58  C          9.1400    0.4000   41.3370 C.2   239  SER239      0.2314
     59  O          8.1690    0.6210   42.0720 O.2   239  SER239     -0.2863
     60  CB        10.5330    2.3640   40.6400 C.3   239  SER239      0.2116
     61  OG        11.4260    2.6000   39.5710 O.3   239  SER239     -0.2180
     62  N         14.2210    5.9610   37.3670 N.3   294  ILE294     -0.1231
     63  CA        12.9110    6.1830   36.7780 C.3   294  ILE294      0.1692
     64  C         12.6080    7.6760   36.6530 C.2   294  ILE294      0.2592
     65  O         13.0560    8.4710   37.4860 O.2   294  ILE294     -0.2718
     66  CB        11.8140    5.4570   37.6470 C.3   294  ILE294      0.0266
     67  CG1       10.4100    5.7080   37.1070 C.3   294  ILE294      0.0019
     68  CG2       11.9260    5.8790   39.1090 C.3   294  ILE294      0.0020
     69  CD1        9.3580    4.8350   37.7470 C.3   294  ILE294      0.0001
     70  N         11.9100    8.0340   35.5720 N.am  295  ASP295     -0.1974
     71  CA        11.4850    9.4080   35.2600 C.3   295  ASP295      0.1709
     72  C         12.6230   10.3820   34.9420 C.2   295  ASP295      0.2293
     73  O         13.1660   11.0280   35.8420 O.2   295  ASP295     -0.2864
     74  CB        10.6230    9.9640   36.3970 C.3   295  ASP295      0.1436
     75  CG         9.2730    9.2730   36.5080 C.2   295  ASP295      0.3671
     76  OD1        8.9290    8.4300   35.6450 O.co2 295  ASP295     -0.2456
     77  OD2        8.5410    9.6010   37.4600 O.co2 295  ASP295     -0.2456
     78  N         15.0280    9.7460   39.1210 N.3   312  ASP312     -0.1239
     79  CA        14.8840    9.2680   40.4910 C.3   312  ASP312      0.1674
     80  C         15.7340    8.0010   40.6120 C.2   312  ASP312      0.2266
     81  O         15.7570    7.1610   39.6980 O.2   312  ASP312     -0.2867
     82  CB        13.4360    8.8810   40.8210 C.3   312  ASP312      0.1410
     83  CG        12.4460   10.0000   40.5830 C.2   312  ASP312      0.3668
     84  OD1       12.7980   11.1920   40.7170 O.co2 312  ASP312     -0.2456
     85  OD2       11.2850    9.6690   40.2780 O.co2 312  ASP312     -0.2456
     86  N         16.0880    4.7130   42.7500 N.3   314  MET314     -0.1245
     87  CA        15.3920    3.8170   43.6690 C.3   314  MET314      0.1570
     88  C         16.2550    2.6360   44.1120 C.2   314  MET314      0.2261
     89  O         16.6930    1.8330   43.2770 O.2   314  MET314     -0.2867
     90  CB        14.1400    3.2410   42.9970 C.3   314  MET314      0.0387
     91  CG        13.1310    4.2530   42.5250 C.3   314  MET314      0.0595
     92  SD        12.4020    5.1420   43.8960 S.3   314  MET314     -0.1393
     93  CE        11.2950    6.2160   43.0320 C.3   314  MET314      0.0692
     94  N          8.3080    4.7670   44.7250 N.3   320  SER320     -0.1217
     95  CA         7.7030    5.8590   45.4990 C.3   320  SER320      0.1889
     96  C          6.6960    5.3970   46.5580 C.2   320  SER320      0.2288
     97  O          6.6790    5.9190   47.6690 O.2   320  SER320     -0.2866
     98  CB         7.0090    6.8670   44.5720 C.3   320  SER320      0.2089
     99  OG         7.9440    7.6680   43.8720 O.3   320  SER320     -0.2183
    100  N          8.8910   10.7430   49.8960 N.3   456  PHE456     -0.1241
    101  CA         9.5910   10.7610   48.6210 C.3   456  PHE456      0.1605
    102  C          9.6470   12.1900   48.0790 C.2   456  PHE456      0.2264
    103  O          8.7760   13.0070   48.3800 O.2   456  PHE456     -0.2867
    104  CB         8.9090    9.8230   47.5960 C.3   456  PHE456      0.0534
    105  CG         7.5080   10.2470   47.1870 C.ar  456  PHE456     -0.0203
    106  CD1        7.3120   11.2450   46.2360 C.ar  456  PHE456     -0.0042
    107  CD2        6.3900    9.6270   47.7410 C.ar  456  PHE456     -0.0042
    108  CE1        6.0270   11.6230   45.8400 C.ar  456  PHE456     -0.0003
    109  CE2        5.0970    9.9990   47.3500 C.ar  456  PHE456     -0.0003
    110  CZ         4.9160   10.9970   46.4000 C.ar  456  PHE456     -0.0000
    111  N         10.6350   13.5000   44.3250 N.3   458  VAL458     -0.1245
    112  CA        10.9820   13.0650   42.9840 C.3   458  VAL458      0.1561
    113  C         10.8360   14.1650   41.9410 C.2   458  VAL458      0.2260
    114  O         10.2820   15.2240   42.2150 O.2   458  VAL458     -0.2867
    115  CB        10.0910   11.8530   42.5910 C.3   458  VAL458      0.0252
    116  CG1       10.4180   10.6560   43.4630 C.3   458  VAL458      0.0019
    117  CG2        8.6110   12.2130   42.7390 C.3   458  VAL458      0.0019
    118  N          8.3070   17.0950   43.0770 N.3   481  TYR481     -0.1241
    119  CA         7.0500   16.9090   43.8000 C.3   481  TYR481      0.1605
    120  C          7.2790   15.8850   44.8970 C.2   481  TYR481      0.2264
    121  O          8.1650   15.0310   44.7940 O.2   481  TYR481     -0.2867
    122  CB         5.8360   16.5960   42.8980 C.3   481  TYR481      0.0534
    123  CG         5.7440   15.1980   42.3310 C.ar  481  TYR481     -0.0201
    124  CD1        5.1330   14.1660   43.0560 C.ar  481  TYR481     -0.0009
    125  CD2        6.2460   14.9070   41.0640 C.ar  481  TYR481     -0.0009
    126  CE1        5.0320   12.8800   42.5260 C.ar  481  TYR481      0.0417
    127  CE2        6.1490   13.6290   40.5300 C.ar  481  TYR481      0.0417
    128  CZ         5.5470   12.6240   41.2660 C.ar  481  TYR481      0.1957
    129  OH         5.4910   11.3510   40.7530 O.3   481  TYR481     -0.2866
    130  N          0.2470   13.4860   42.9570 N.3   513  THR513     -0.1218
    131  CA         1.2490   13.4700   41.8930 C.3   513  THR513      0.1862
    132  C          1.3270   14.7750   41.1190 C.2   513  THR513      0.2287
    133  O          0.8890   14.8510   39.9610 O.2   513  THR513     -0.2866
    134  CB         0.9710   12.3510   40.9040 C.3   513  THR513      0.1770
    135  OG1        0.7240   11.1400   41.6250 O.3   513  THR513     -0.2211
    136  CG2        2.1670   12.1640   39.9880 C.3   513  THR513      0.0375
    137  N          3.2520   16.4030   39.0860 N.3   515  GLU515     -0.1245
    138  CA         4.2700   16.4620   38.0340 C.3   515  GLU515      0.1567
    139  C          4.0450   17.7840   37.3110 C.2   515  GLU515      0.2260
    140  O          2.9120   18.1170   36.9350 O.2   515  GLU515     -0.2867
    141  CB         4.1010   15.3010   37.0530 C.3   515  GLU515      0.0388
    142  CG         4.2490   13.9340   37.6920 C.3   515  GLU515      0.1160
    143  CD         3.6310   12.8320   36.8520 C.2   515  GLU515      0.3649
    144  OE1        2.5640   13.0530   36.2600 O.co2 515  GLU515     -0.2457
    145  OE2        4.2160   11.7340   36.7960 O.co2 515  GLU515     -0.2457
    146  N          0.1040   18.7790   36.9820 N.3   531  ARG531     -0.1245
    147  CA        -0.9300   17.7680   37.1330 C.3   531  ARG531      0.1563
    148  C         -1.3380   17.8850   38.6050 C.2   531  ARG531      0.2260
    149  O         -0.5010   18.2160   39.4610 O.2   531  ARG531     -0.2867
    150  CB        -0.3240   16.3800   36.8760 C.3   531  ARG531      0.0307
    151  CG        -1.1310   15.1950   37.4250 C.3   531  ARG531      0.0489
    152  CD        -0.3940   13.8880   37.1790 C.3   531  ARG531      0.2205
    153  NE        -1.1130   12.7200   37.6820 N.pl3 531  ARG531     -0.0865
    154  CZ        -0.6790   11.4640   37.5710 C.cat 531  ARG531      0.5346
    155  NH1        0.4740   11.2100   36.9710 N.pl3 531  ARG531      0.1354
    156  NH2       -1.3950   10.4570   38.0620 N.pl3 531  ARG531      0.1354
    157  N         -6.7620    7.7430   29.7130 N.3   593  ARG593     -0.1245
    158  CA        -5.7330    8.5840   29.1090 C.3   593  ARG593      0.1563
    159  C         -5.8400    8.4310   27.6000 C.2   593  ARG593      0.2260
    160  O         -5.2720    7.5020   27.0070 O.2   593  ARG593     -0.2867
    161  CB        -4.3410    8.2060   29.6220 C.3   593  ARG593      0.0307
    162  CG        -4.1350    8.5630   31.0790 C.3   593  ARG593      0.0489
    163  CD        -2.7520    8.2030   31.5740 C.3   593  ARG593      0.2205
    164  NE        -2.5090    8.7820   32.8940 N.pl3 593  ARG593     -0.0865
    165  CZ        -1.5660    8.3760   33.7390 C.cat 593  ARG593      0.5346
    166  NH1       -0.7550    7.3730   33.4180 N.pl3 593  ARG593      0.1354
    167  NH2       -1.4160    8.9940   34.9030 N.pl3 593  ARG593      0.1354
    168  N          1.7990   10.0710   28.6720 N.3   633  TYR633     -0.1241
    169  CA         2.9210   10.9970   28.8920 C.3   633  TYR633      0.1605
    170  C          3.5030   11.4800   27.5600 C.2   633  TYR633      0.2264
    171  O          3.5010   10.7300   26.5610 O.2   633  TYR633     -0.2867
    172  CB         4.0140   10.3410   29.7430 C.3   633  TYR633      0.0534
    173  CG         3.6990   10.2450   31.2310 C.ar  633  TYR633     -0.0201
    174  CD1        2.4020    9.9760   31.6820 C.ar  633  TYR633     -0.0009
    175  CD2        4.7030   10.4240   32.1840 C.ar  633  TYR633     -0.0009
    176  CE1        2.1170    9.8860   33.0460 C.ar  633  TYR633      0.0417
    177  CE2        4.4280   10.3420   33.5490 C.ar  633  TYR633      0.0417
    178  CZ         3.1320   10.0720   33.9700 C.ar  633  TYR633      0.1957
    179  OH         2.8530    9.9940   35.3210 O.3   633  TYR633     -0.2866
    180  N         -1.5890    4.5080   29.5020 N.3   653  SER653     -0.1202
    181  CA        -0.6460    3.9920   30.5030 C.3   653  SER653      0.2020
    182  C         -1.1630    3.8420   31.9320 C.2   653  SER653      0.2618
    183  O         -0.4050    3.4570   32.8280 O.2   653  SER653     -0.2717
    184  CB         0.6410    4.8260   30.5090 C.3   653  SER653      0.2103
    185  OG         0.3900    6.1610   30.9140 O.3   653  SER653     -0.2182
    186  N         -2.4350    4.1700   32.1440 N.am  654  TRP654     -0.1975
    187  CA        -3.0640    4.0640   33.4510 C.3   654  TRP654      0.1640
    188  C         -3.9030    2.7850   33.4920 C.2   654  TRP654      0.2290
    189  O         -3.9790    2.1100   34.5280 O.2   654  TRP654     -0.2864
    190  CB        -3.9550    5.2890   33.6960 C.3   654  TRP654      0.0576
    191  CG        -4.5590    5.3790   35.0860 C.ar  654  TRP654      0.0006
    192  CD1       -5.8500    5.0850   35.4420 C.ar  654  TRP654      0.0946
    193  CD2       -3.9130    5.8460   36.2790 C.ar  654  TRP654      0.0152
    194  NE1       -6.0420    5.3430   36.7780 N.ar  654  TRP654     -0.2442
    195  CE2       -4.8740    5.8110   37.3190 C.ar  654  TRP654      0.0810
    196  CE3       -2.6150    6.2960   36.5760 C.ar  654  TRP654      0.0012
    197  CZ2       -4.5800    6.2140   38.6270 C.ar  654  TRP654      0.0191
    198  CZ3       -2.3240    6.6980   37.8830 C.ar  654  TRP654      0.0001
    199  CH2       -3.3040    6.6490   38.8880 C.ar  654  TRP654      0.0015
    200  N         -5.4130   -0.8610   33.3500 N.3   656  ARG656     -0.1245
    201  CA        -4.9240   -2.1620   33.7820 C.3   656  ARG656      0.1563
    202  C         -5.0600   -3.1810   32.6540 C.2   656  ARG656      0.2260
    203  O         -4.6100   -4.3210   32.7890 O.2   656  ARG656     -0.2867
    204  CB        -5.7040   -2.6360   35.0020 C.3   656  ARG656      0.0307
    205  CG        -5.4260   -1.8560   36.2680 C.3   656  ARG656      0.0489
    206  CD        -4.3000   -2.5040   37.0380 C.3   656  ARG656      0.2205
    207  NE        -3.0550   -1.7640   36.9730 N.pl3 656  ARG656     -0.0865
    208  CZ        -1.8680   -2.2580   37.3130 C.cat 656  ARG656      0.5346
    209  NH1       -1.7330   -3.5130   37.7350 N.pl3 656  ARG656      0.1354
    210  NH2       -0.8150   -1.4630   37.2920 N.pl3 656  ARG656      0.1354
    211  N         -1.3220   -2.7760   29.9640 N.3   659  LEU659     -0.1245
    212  CA         0.0140   -2.8900   30.5030 C.3   659  LEU659      0.1561
    213  C          0.8550   -3.7400   29.5590 C.2   659  LEU659      0.2260
    214  O          0.3290   -4.5400   28.7860 O.2   659  LEU659     -0.2867
    215  CB        -0.0190   -3.6090   31.8590 C.3   659  LEU659      0.0270
    216  CG        -0.7620   -3.0410   33.0710 C.3   659  LEU659      0.0019
    217  CD1       -0.8840   -4.1240   34.1390 C.3   659  LEU659      0.0001
    218  CD2       -0.0040   -1.8400   33.6090 C.3   659  LEU659      0.0001
@<TRIPOS>BOND
     1   171   170    2
     2   160   159    2
     3   170   169    1
     4   159   158    1
     5     1     2    1
     6   168   169    1
     7   214   213    2
     8   169   172    1
     9     2     3    1
    10     2     5    1
    11   158   161    1
    12   158   157    1
    13    14    15    2
    14    14    13    1
    15     3     4    2
    16     3    12   am
    17   180   181    1
    18   213   212    1
    19    37    35    1
    20   161   162    1
    21   172   173    1
    22    12    13    1
    23   211   212    1
    24     6     7    1
    25     6     5    1
    26    23    22    2
    27     7     8    1
    28    13    16    1
    29   181   184    1
    30   181   182    1
    31   212   215    1
    32   184   185    1
    33    20    21    1
    34    35    36    1
    35    35    32    1
    36   162   163    1
    37    22    21    1
    38   173   174   ar
    39   173   175   ar
    40    21    24    1
    41   163   164    1
    42     8     9    2
    43   174   176   ar
    44    16    18    1
    45    16    17    1
    46    24    25    1
    47    10     9    1
    48   215   216    1
    49    31    32    1
    50   182   186   am
    51   182   183    2
    52    32    33    1
    53   186   187    1
    54   175   177   ar
    55    25    26    1
    56     9    11    1
    57    17    19    1
    58   202   203    2
    59   202   201    1
    60    26    27    1
    61   164   165    2
    62   176   178   ar
    63   216   218    1
    64   216   217    1
    65   200   201    1
    66    27    28    2
    67    33    34    2
    68    33    38   am
    69   166   165    1
    70   187   188    1
    71   187   190    1
    72   188   189    2
    73   177   178   ar
    74   190   191    1
    75   165   167    1
    76   201   204    1
    77   178   179    1
    78    28    29    1
    79    28    30    1
    80    38    39    1
    81    72    71    1
    82    72    73    2
    83   204   205    1
    84   191   192   ar
    85   191   193   ar
    86    71    70    1
    87    71    74    1
    88   192   194   ar
    89    70    64   am
    90    76    75   ar
    91    39    40    1
    92    39    42    1
    93    41    40    2
    94   144   143   ar
    95   205   206    1
    96   193   196   ar
    97   193   195   ar
    98    46    44   ar
    99    46    47   ar
   100    40    48   am
   101    44    43   ar
   102    74    75    1
   103    75    77   ar
   104    47    45   ar
   105   196   198   ar
   106    43    45   ar
   107    43    42    1
   108    64    63    1
   109    64    65    2
   110    54    53   ar
   111    63    62    1
   112    63    66    1
   113   194   195   ar
   114   145   143   ar
   115   143   142    1
   116   150   147    1
   117   150   151    1
   118   140   139    2
   119   155   154    1
   120   207   206    1
   121   207   208    2
   122   146   147    1
   123   141   142    1
   124   141   138    1
   125    67    66    1
   126    67    69    1
   127   147   148    1
   128   152   151    1
   129   152   153    1
   130    48    49    1
   131   210   208    1
   132   139   138    1
   133   208   209    1
   134   195   197   ar
   135   154   153    2
   136   154   156    1
   137    66    68    1
   138    49    52    1
   139    49    50    1
   140   198   199   ar
   141    53    55   ar
   142    53    52    1
   143   138   137    1
   144   148   149    2
   145   197   199   ar
   146    50    51    2
   147    50    56   am
   148    78    79    1
   149    56    57    1
   150    61    60    1
   151    81    80    2
   152   133   132    2
   153   136   134    1
   154    57    60    1
   155    57    58    1
   156    85    83   ar
   157    79    80    1
   158    79    82    1
   159   127   125   ar
   160   127   128   ar
   161    83    84   ar
   162    83    82    1
   163   129   128    1
   164   134   135    1
   165   134   131    1
   166   125   123   ar
   167   132   131    1
   168   128   126   ar
   169    58    59    2
   170   131   130    1
   171   113   114    2
   172   113   112    1
   173   123   122    1
   174   123   124   ar
   175    91    90    1
   176    91    92    1
   177   126   124   ar
   178   115   117    1
   179   115   112    1
   180   115   116    1
   181    86    87    1
   182   122   119    1
   183   112   111    1
   184    90    87    1
   185    93    92    1
   186   118   119    1
   187    89    88    2
   188    87    88    1
   189   119   120    1
   190    99    98    1
   191    98    95    1
   192    94    95    1
   193   121   120    2
   194    95    96    1
   195   108   106   ar
   196   108   110   ar
   197   106   105   ar
   198   110   109   ar
   199    96    97    2
   200   105   104    1
   201   105   107   ar
   202   109   107   ar
   203   104   101    1
   204   102   103    2
   205   102   101    1
   206   101   100    1
