@<TRIPOS>MOLECULE
tmp/4tf4B01.pdb
 135 131 0 0 0
SMALL
GASTEIGER

@<TRIPOS>ATOM
      1  N        114.2320   59.5700   20.5910 N.3    56  ALA56      -0.1245
      2  CA       115.2610   58.6480   20.1090 C.3    56  ALA56       0.1562
      3  C        116.4760   58.6230   21.0360 C.2    56  ALA56       0.2260
      4  O        116.3610   58.2280   22.1940 O.2    56  ALA56      -0.2867
      5  CB       115.6640   59.0320   18.6870 C.3    56  ALA56       0.0290
      6  N        118.1270   61.3270   21.4610 N.3    58  ASP58      -0.1239
      7  CA       118.1010   62.7150   21.9270 C.3    58  ASP58       0.1674
      8  C        117.0990   62.8990   23.0660 C.2    58  ASP58       0.2266
      9  O        116.5340   61.9210   23.5620 O.2    58  ASP58      -0.2867
     10  CB       117.7810   63.6820   20.7660 C.3    58  ASP58       0.1410
     11  CG       116.4330   63.4060   20.1010 C.2    58  ASP58       0.3668
     12  OD1      115.8960   62.2770   20.1840 O.co2  58  ASP58      -0.2456
     13  OD2      115.8980   64.3400   19.4780 O.co2  58  ASP58      -0.2456
     14  N        120.4120   68.9120   20.5240 N.3   125  HIS125     -0.1226
     15  CA       121.3690   68.0620   19.8270 C.3   125  HIS125      0.1752
     16  C        122.8130   68.5610   19.9480 C.2   125  HIS125      0.2595
     17  O        123.7510   67.8070   19.7150 O.2   125  HIS125     -0.2718
     18  CB       120.9780   67.8850   18.3550 C.3   125  HIS125      0.0759
     19  CG       119.6760   67.1710   18.1480 C.ar  125  HIS125      0.0818
     20  ND1      119.1990   66.8540   16.8920 N.ar  125  HIS125     -0.2268
     21  CD2      118.7490   66.7220   19.0260 C.ar  125  HIS125      0.1154
     22  CE1      118.0330   66.2420   17.0080 C.ar  125  HIS125      0.1986
     23  NE2      117.7370   66.1500   18.2920 N.ar  125  HIS125     -0.2212
     24  N        122.9980   69.8180   20.3410 N.am  126  LYS126     -0.1980
     25  CA       124.3440   70.3610   20.5000 C.3   126  LYS126      0.1596
     26  C        125.0610   69.8220   21.7420 C.2   126  LYS126      0.2287
     27  O        126.2930   69.8800   21.8420 O.2   126  LYS126     -0.2864
     28  CB       124.3000   71.8880   20.5640 C.3   126  LYS126      0.0298
     29  CG       124.2890   72.5700   19.2030 C.3   126  LYS126      0.0038
     30  CD       124.2660   74.0860   19.3440 C.3   126  LYS126      0.0206
     31  CE       125.5110   74.6140   20.0610 C.3   126  LYS126      0.1093
     32  NZ       125.4750   76.1000   20.2300 N.3   126  LYS126     -0.1314
     33  N        125.8170   66.5900   24.4450 N.3   128  TRP128     -0.1241
     34  CA       125.8680   65.1420   24.5140 C.3   128  TRP128      0.1605
     35  C        126.1040   64.6840   25.9480 C.2   128  TRP128      0.2264
     36  O        127.2320   64.6920   26.4340 O.2   128  TRP128     -0.2867
     37  CB       126.9780   64.6070   23.5980 C.3   128  TRP128      0.0550
     38  CG       126.9430   63.1230   23.4630 C.ar  128  TRP128      0.0003
     39  CD1      127.6120   62.2100   24.2260 C.ar  128  TRP128      0.0946
     40  CD2      126.1370   62.3730   22.5520 C.ar  128  TRP128      0.0152
     41  NE1      127.2560   60.9310   23.8530 N.ar  128  TRP128     -0.2442
     42  CE2      126.3540   61.0020   22.8290 C.ar  128  TRP128      0.0810
     43  CE3      125.2440   62.7240   21.5310 C.ar  128  TRP128      0.0012
     44  CZ2      125.7120   59.9840   22.1250 C.ar  128  TRP128      0.0191
     45  CZ3      124.6030   61.7070   20.8300 C.ar  128  TRP128      0.0001
     46  CH2      124.8410   60.3530   21.1330 C.ar  128  TRP128      0.0015
     47  N        112.7120   69.9360   10.5850 N.3   204  ALA204     -0.1231
     48  CA       113.9740   69.2570   10.2990 C.3   204  ALA204      0.1694
     49  C        114.1220   67.8690   10.9260 C.2   204  ALA204      0.2592
     50  O        115.0940   67.1590   10.6490 O.2   204  ALA204     -0.2718
     51  CB       115.1350   70.1330   10.7280 C.3   204  ALA204      0.0304
     52  N        113.1490   67.4590   11.7300 N.am  205  PHE205     -0.1976
     53  CA       113.2390   66.1740   12.4000 C.3   205  PHE205      0.1639
     54  C        112.0820   65.2460   12.0680 C.2   205  PHE205      0.2290
     55  O        112.3010   64.1080   11.6570 O.2   205  PHE205     -0.2864
     56  CB       113.3570   66.4010   13.9070 C.3   205  PHE205      0.0560
     57  CG       114.2580   67.5500   14.2680 C.ar  205  PHE205     -0.0200
     58  CD1      115.6370   67.3920   14.2810 C.ar  205  PHE205     -0.0042
     59  CD2      113.7260   68.8060   14.5540 C.ar  205  PHE205     -0.0042
     60  CE1      116.4720   68.4640   14.5700 C.ar  205  PHE205     -0.0003
     61  CE2      114.5530   69.8880   14.8440 C.ar  205  PHE205     -0.0003
     62  CZ       115.9280   69.7190   14.8520 C.ar  205  PHE205     -0.0000
     63  N        117.7450   55.3610    6.5000 N.3   313  TRP313     -0.1241
     64  CA       117.4640   55.7250    7.8840 C.3   313  TRP313      0.1605
     65  C        116.4260   54.7880    8.5080 C.2   313  TRP313      0.2264
     66  O        115.2950   54.7040    8.0350 O.2   313  TRP313     -0.2867
     67  CB       116.9790   57.1790    7.9290 C.3   313  TRP313      0.0550
     68  CG       117.3060   57.9240    9.1960 C.ar  313  TRP313      0.0003
     69  CD1      117.2470   57.4420   10.4720 C.ar  313  TRP313      0.0946
     70  CD2      117.7170   59.2940    9.3040 C.ar  313  TRP313      0.0152
     71  NE1      117.5910   58.4270   11.3680 N.ar  313  TRP313     -0.2442
     72  CE2      117.8850   59.5740   10.6800 C.ar  313  TRP313      0.0810
     73  CE3      117.9580   60.3140    8.3720 C.ar  313  TRP313      0.0012
     74  CZ2      118.2810   60.8320   11.1490 C.ar  313  TRP313      0.0191
     75  CZ3      118.3530   61.5690    8.8400 C.ar  313  TRP313      0.0001
     76  CH2      118.5100   61.8130   10.2180 C.ar  313  TRP313      0.0015
     77  N        123.4600   55.0180   19.1190 N.3   376  HIS376     -0.1241
     78  CA       123.5140   56.4630   19.2520 C.3   376  HIS376      0.1621
     79  C        122.4330   56.8550   20.2580 C.2   376  HIS376      0.2264
     80  O        121.3000   57.1370   19.8720 O.2   376  HIS376     -0.2867
     81  CB       123.2490   57.0830   17.8790 C.3   376  HIS376      0.0745
     82  CG       123.4050   58.5670   17.8340 C.ar  376  HIS376      0.0817
     83  ND1      124.5670   59.1760   17.4170 N.ar  376  HIS376     -0.2268
     84  CD2      122.5380   59.5690   18.1200 C.ar  376  HIS376      0.1154
     85  CE1      124.4140   60.4890   17.4450 C.ar  376  HIS376      0.1986
     86  NE2      123.1900   60.7530   17.8660 N.ar  376  HIS376     -0.2212
     87  N        122.2310   59.1240   24.0160 N.3   378  ARG378     -0.1245
     88  CA       122.8940   59.9110   25.0570 C.3   378  ARG378      0.1563
     89  C        122.9980   59.3190   26.4690 C.2   378  ARG378      0.2260
     90  O        124.1010   59.1540   26.9900 O.2   378  ARG378     -0.2867
     91  CB       122.2990   61.3230   25.1250 C.3   378  ARG378      0.0307
     92  CG       122.6880   62.2150   23.9880 C.3   378  ARG378      0.0489
     93  CD       121.8500   63.4940   23.9670 C.3   378  ARG378      0.2205
     94  NE       122.2060   64.3410   22.8320 N.pl3 378  ARG378     -0.0865
     95  CZ       121.9580   64.0320   21.5620 C.cat 378  ARG378      0.5346
     96  NH1      121.3360   62.8990   21.2590 N.pl3 378  ARG378      0.1354
     97  NH2      122.4020   64.8170   20.5880 N.pl3 378  ARG378      0.1354
     98  N        130.7920   62.4990   22.3440 N.3   388  ILE388     -0.1245
     99  CA       130.1780   61.2840   21.8280 C.3   388  ILE388      0.1561
    100  C        131.2450   60.1950   21.7080 C.2   388  ILE388      0.2260
    101  O        130.9270   59.0150   21.6520 O.2   388  ILE388     -0.2867
    102  CB       129.5400   61.5570   20.4390 C.3   388  ILE388      0.0252
    103  CG1      128.7310   60.3440   19.9610 C.3   388  ILE388      0.0019
    104  CG2      130.6150   61.9210   19.4280 C.3   388  ILE388      0.0019
    105  CD1      127.8460   60.6180   18.7370 C.3   388  ILE388      0.0001
    106  N        128.5300   56.9670   16.4790 N.3   418  GLN418     -0.1245
    107  CA       128.4300   58.2440   15.7820 C.3   418  GLN418      0.1566
    108  C        127.5850   58.1960   14.5170 C.2   418  GLN418      0.2260
    109  O        127.3760   59.2210   13.8730 O.2   418  GLN418     -0.2867
    110  CB       129.8210   58.8130   15.4970 C.3   418  GLN418      0.0367
    111  CG       130.5760   59.1560   16.7730 C.3   418  GLN418      0.0905
    112  CD       131.8420   59.9430   16.5370 C.2   418  GLN418      0.2608
    113  OE1      132.9300   59.5100   16.9140 O.2   418  GLN418     -0.2717
    114  NE2      131.7090   61.1190   15.9440 N.am  418  GLN418     -0.0878
    115  N        124.1290   58.0260   13.4780 N.3   420  TYR420     -0.1241
    116  CA       122.7150   58.1020   13.8340 C.3   420  TYR420      0.1605
    117  C        121.7710   57.6300   12.7270 C.2   420  TYR420      0.2264
    118  O        120.5930   57.3660   12.9770 O.2   420  TYR420     -0.2867
    119  CB       122.3400   59.5180   14.2680 C.3   420  TYR420      0.0534
    120  CG       122.6060   60.5890   13.2380 C.ar  420  TYR420     -0.0201
    121  CD1      121.7390   60.7850   12.1700 C.ar  420  TYR420     -0.0009
    122  CD2      123.7040   61.4440   13.3620 C.ar  420  TYR420     -0.0009
    123  CE1      121.9550   61.8040   11.2500 C.ar  420  TYR420      0.0417
    124  CE2      123.9270   62.4680   12.4520 C.ar  420  TYR420      0.0417
    125  CZ       123.0510   62.6430   11.3980 C.ar  420  TYR420      0.1957
    126  OH       123.2720   63.6590   10.4900 O.3   420  TYR420     -0.2866
    127  N        121.0010   54.5370   15.3270 N.3   424  GLU424     -0.1245
    128  CA       120.2110   55.2290   16.3270 C.3   424  GLU424      0.1567
    129  C        119.0460   54.3220   16.7050 C.2   424  GLU424      0.2260
    130  O        118.7490   53.3580   15.9930 O.2   424  GLU424     -0.2867
    131  CB       119.7160   56.5850   15.8160 C.3   424  GLU424      0.0388
    132  CG       118.8800   57.3420   16.8410 C.3   424  GLU424      0.1160
    133  CD       119.0870   58.8390   16.7920 C.2   424  GLU424      0.3649
    134  OE1      119.1640   59.4060   15.6810 O.co2 424  GLU424     -0.2457
    135  OE2      119.1640   59.4490   17.8780 O.co2 424  GLU424     -0.2457
@<TRIPOS>BOND
     1    63    64    1
     2    64    67    1
     3    64    65    1
     4    67    68    1
     5    66    65    2
     6    73    75   ar
     7    73    70   ar
     8    75    76   ar
     9    68    70   ar
    10    68    69   ar
    11    70    72   ar
    12    76    74   ar
    13    48    47    1
    14    48    51    1
    15    48    49    1
    16    69    71   ar
    17   126   125    1
    18    50    49    2
    19    72    74   ar
    20    72    71   ar
    21    49    52   am
    22   123   125   ar
    23   123   121   ar
    24   125   124   ar
    25    55    54    2
    26    52    53    1
    27    54    53    1
    28   121   120   ar
    29    53    56    1
    30   124   122   ar
    31   117   118    2
    32   117   116    1
    33   120   122   ar
    34   120   119    1
    35   115   116    1
    36   116   119    1
    37   109   108    2
    38    56    57    1
    39    57    58   ar
    40    57    59   ar
    41    58    60   ar
    42   108   107    1
    43    59    61   ar
    44    60    62   ar
    45    61    62   ar
    46   127   128    1
    47   110   107    1
    48   110   111    1
    49   134   133   ar
    50   107   106    1
    51   131   128    1
    52   131   132    1
    53   114   112   am
    54   130   129    2
    55   128   129    1
    56   112   111    1
    57   112   113    2
    58   133   132    1
    59   133   135   ar
    60    20    22   ar
    61    20    19   ar
    62    22    23   ar
    63    83    85   ar
    64    83    82   ar
    65    85    86   ar
    66    82    81    1
    67    82    84   ar
    68    86    84   ar
    69    81    78    1
    70    19    18    1
    71    19    21   ar
    72    23    21   ar
    73    18    15    1
    74     5     2    1
    75   105   103    1
    76    77    78    1
    77    29    30    1
    78    29    28    1
    79    78    79    1
    80    30    31    1
    81   104   102    1
    82    13    11   ar
    83    17    16    2
    84    15    16    1
    85    15    14    1
    86    80    79    2
    87    16    24   am
    88   103   102    1
    89    31    32    1
    90    11    12   ar
    91    11    10    1
    92     2     1    1
    93     2     3    1
    94    24    25    1
    95   102    99    1
    96    25    28    1
    97    25    26    1
    98    97    95    1
    99    10     7    1
   100    45    46   ar
   101    45    43   ar
   102     3     4    2
   103    46    44   ar
   104    96    95    1
   105     6     7    1
   106    43    40   ar
   107    95    94    2
   108   101   100    2
   109   100    99    1
   110    26    27    2
   111    99    98    1
   112     7     8    1
   113    44    42   ar
   114    40    42   ar
   115    40    38   ar
   116    42    41   ar
   117    94    93    1
   118     8     9    2
   119    38    37    1
   120    38    39   ar
   121    37    34    1
   122    41    39   ar
   123    93    92    1
   124    92    91    1
   125    87    88    1
   126    33    34    1
   127    34    35    1
   128    88    91    1
   129    88    89    1
   130    35    36    2
   131    89    90    2
