@<TRIPOS>MOLECULE
tmp/4tf4B00.pdb
 244 243 0 0 0
SMALL
GASTEIGER

@<TRIPOS>ATOM
      1  N        112.1230   60.7700   22.4230 N.3    55  ASP55      -0.1225
      2  CA       111.9500   60.2760   21.0730 C.3    55  ASP55       0.1805
      3  C        112.9470   59.2330   20.5790 C.2    55  ASP55       0.2597
      4  O        112.5530   58.1380   20.1830 O.2    55  ASP55      -0.2718
      5  CB       111.9140   61.4740   20.1290 C.3    55  ASP55       0.1424
      6  CG       111.8410   61.0710   18.6900 C.2    55  ASP55       0.3668
      7  OD1      110.8150   60.4860   18.2870 O.co2  55  ASP55      -0.2456
      8  OD2      112.8230   61.3290   17.9670 O.co2  55  ASP55      -0.2456
      9  N        114.2320   59.5700   20.5910 N.am   56  ALA56      -0.1979
     10  CA       115.2610   58.6480   20.1090 C.3    56  ALA56       0.1597
     11  C        116.4760   58.6230   21.0360 C.2    56  ALA56       0.2287
     12  O        116.3610   58.2280   22.1940 O.2    56  ALA56      -0.2864
     13  CB       115.6640   59.0320   18.6870 C.3    56  ALA56       0.0319
     14  N        118.1270   61.3270   21.4610 N.3    58  ASP58      -0.1239
     15  CA       118.1010   62.7150   21.9270 C.3    58  ASP58       0.1674
     16  C        117.0990   62.8990   23.0660 C.2    58  ASP58       0.2266
     17  O        116.5340   61.9210   23.5620 O.2    58  ASP58      -0.2867
     18  CB       117.7810   63.6820   20.7660 C.3    58  ASP58       0.1410
     19  CG       116.4330   63.4060   20.1010 C.2    58  ASP58       0.3668
     20  OD1      115.8960   62.2770   20.1840 O.co2  58  ASP58      -0.2456
     21  OD2      115.8980   64.3400   19.4780 O.co2  58  ASP58      -0.2456
     22  N        109.0870   64.8100   20.9070 N.3    62  PHE62      -0.1241
     23  CA       108.3220   65.0460   19.6860 C.3    62  PHE62       0.1605
     24  C        106.9800   64.3310   19.7790 C.2    62  PHE62       0.2264
     25  O        106.9190   63.0910   19.8140 O.2    62  PHE62      -0.2867
     26  CB       109.1020   64.5430   18.4670 C.3    62  PHE62       0.0534
     27  CG       110.3780   65.2950   18.2020 C.ar   62  PHE62      -0.0203
     28  CD1      110.3460   66.5800   17.6740 C.ar   62  PHE62      -0.0042
     29  CD2      111.6120   64.7070   18.4550 C.ar   62  PHE62      -0.0042
     30  CE1      111.5240   67.2700   17.3960 C.ar   62  PHE62      -0.0003
     31  CE2      112.7960   65.3880   18.1800 C.ar   62  PHE62      -0.0003
     32  CZ       112.7500   66.6730   17.6490 C.ar   62  PHE62      -0.0000
     33  N        120.4120   68.9120   20.5240 N.3   125  HIS125     -0.1241
     34  CA       121.3690   68.0620   19.8270 C.3   125  HIS125      0.1621
     35  C        122.8130   68.5610   19.9480 C.2   125  HIS125      0.2264
     36  O        123.7510   67.8070   19.7150 O.2   125  HIS125     -0.2867
     37  CB       120.9780   67.8850   18.3550 C.3   125  HIS125      0.0745
     38  CG       119.6760   67.1710   18.1480 C.ar  125  HIS125      0.0817
     39  ND1      119.1990   66.8540   16.8920 N.ar  125  HIS125     -0.2268
     40  CD2      118.7490   66.7220   19.0260 C.ar  125  HIS125      0.1154
     41  CE1      118.0330   66.2420   17.0080 C.ar  125  HIS125      0.1986
     42  NE2      117.7370   66.1500   18.2920 N.ar  125  HIS125     -0.2212
     43  N        112.7120   69.9360   10.5850 N.3   204  ALA204     -0.1231
     44  CA       113.9740   69.2570   10.2990 C.3   204  ALA204      0.1694
     45  C        114.1220   67.8690   10.9260 C.2   204  ALA204      0.2592
     46  O        115.0940   67.1590   10.6490 O.2   204  ALA204     -0.2718
     47  CB       115.1350   70.1330   10.7280 C.3   204  ALA204      0.0304
     48  N        113.1490   67.4590   11.7300 N.am  205  PHE205     -0.1962
     49  CA       113.2390   66.1740   12.4000 C.3   205  PHE205      0.1771
     50  C        112.0820   65.2460   12.0680 C.2   205  PHE205      0.2620
     51  O        112.3010   64.1080   11.6570 O.2   205  PHE205     -0.2715
     52  CB       113.3570   66.4010   13.9070 C.3   205  PHE205      0.0574
     53  CG       114.2580   67.5500   14.2680 C.ar  205  PHE205     -0.0200
     54  CD1      115.6370   67.3920   14.2810 C.ar  205  PHE205     -0.0042
     55  CD2      113.7260   68.8060   14.5540 C.ar  205  PHE205     -0.0042
     56  CE1      116.4720   68.4640   14.5700 C.ar  205  PHE205     -0.0003
     57  CE2      114.5530   69.8880   14.8440 C.ar  205  PHE205     -0.0003
     58  CZ       115.9280   69.7190   14.8520 C.ar  205  PHE205     -0.0000
     59  N        110.8570   65.7360   12.2310 N.am  206  TYR206     -0.1960
     60  CA       109.6640   64.9450   11.9490 C.3   206  TYR206      0.1771
     61  C        108.6650   65.7680   11.1460 C.2   206  TYR206      0.2619
     62  O        107.5470   66.0250   11.5970 O.2   206  TYR206     -0.2715
     63  CB       109.0120   64.4590   13.2540 C.3   206  TYR206      0.0574
     64  CG       109.7840   63.3650   13.9570 C.ar  206  TYR206     -0.0198
     65  CD1      109.7030   62.0470   13.5250 C.ar  206  TYR206     -0.0009
     66  CD2      110.6120   63.6520   15.0340 C.ar  206  TYR206     -0.0009
     67  CE1      110.4330   61.0400   14.1370 C.ar  206  TYR206      0.0417
     68  CE2      111.3450   62.6620   15.6560 C.ar  206  TYR206      0.0417
     69  CZ       111.2550   61.3570   15.1980 C.ar  206  TYR206      0.1957
     70  OH       112.0250   60.3850   15.7790 O.3   206  TYR206     -0.2866
     71  N        109.0690   66.1810    9.9530 N.am  207  ASN207     -0.1972
     72  CA       108.2140   66.9880    9.0950 C.3   207  ASN207      0.1688
     73  C        107.0340   66.1660    8.5800 C.2   207  ASN207      0.2292
     74  O        107.1610   64.9560    8.3600 O.2   207  ASN207     -0.2864
     75  CB       109.0240   67.5290    7.9170 C.3   207  ASN207      0.1181
     76  CG       108.2020   68.4100    6.9980 C.2   207  ASN207      0.2629
     77  OD1      107.5370   69.3390    7.4470 O.2   207  ASN207     -0.2716
     78  ND2      108.2290   68.1110    5.7050 N.am  207  ASN207     -0.0877
     79  N        105.6520   65.0400    5.9670 N.3   209  TRP209     -0.1227
     80  CA       105.9020   64.7590    4.5630 C.3   209  TRP209      0.1737
     81  C        104.6870   64.3610    3.7190 C.2   209  TRP209      0.2596
     82  O        104.6230   64.6920    2.5290 O.2   209  TRP209     -0.2718
     83  CB       106.9850   63.6880    4.4490 C.3   209  TRP209      0.0564
     84  CG       108.3000   64.1230    5.0170 C.ar  209  TRP209      0.0003
     85  CD1      108.8590   63.7230    6.1930 C.ar  209  TRP209      0.0946
     86  CD2      109.2220   65.0430    4.4230 C.ar  209  TRP209      0.0152
     87  NE1      110.0750   64.3360    6.3720 N.ar  209  TRP209     -0.2442
     88  CE2      110.3250   65.1510    5.2990 C.ar  209  TRP209      0.0810
     89  CE3      109.2240   65.7880    3.2340 C.ar  209  TRP209      0.0012
     90  CZ2      111.4200   65.9720    5.0280 C.ar  209  TRP209      0.0191
     91  CZ3      110.3150   66.6080    2.9620 C.ar  209  TRP209      0.0001
     92  CH2      111.3970   66.6920    3.8580 C.ar  209  TRP209      0.0015
     93  N        103.7320   63.6630    4.3240 N.am  210  SER210     -0.1952
     94  CA       102.5500   63.2100    3.6020 C.3   210  SER210      0.1924
     95  C        101.3230   64.0940    3.7850 C.2   210  SER210      0.2314
     96  O        100.3500   63.9640    3.0410 O.2   210  SER210     -0.2863
     97  CB       102.2040   61.7750    4.0070 C.3   210  SER210      0.2116
     98  OG       101.9440   61.6880    5.4030 O.3   210  SER210     -0.2180
     99  N         99.0390   55.1840   -3.3100 N.3   253  SER253     -0.1217
    100  CA       100.4270   54.8950   -2.9660 C.3   253  SER253      0.1889
    101  C        100.6330   53.4540   -2.5110 C.2   253  SER253      0.2288
    102  O         99.8340   52.9190   -1.7510 O.2   253  SER253     -0.2866
    103  CB       100.9050   55.8680   -1.8880 C.3   253  SER253      0.2089
    104  OG       100.6950   57.2080   -2.3030 O.3   253  SER253     -0.2183
    105  N        105.8530   52.6160   -0.4850 N.3   256  TRP256     -0.1241
    106  CA       106.5120   52.9290    0.7780 C.3   256  TRP256      0.1605
    107  C        105.8650   52.0040    1.8130 C.2   256  TRP256      0.2264
    108  O        105.5310   50.8630    1.4910 O.2   256  TRP256     -0.2867
    109  CB       106.3020   54.4070    1.1380 C.3   256  TRP256      0.0550
    110  CG       107.3220   54.9610    2.1040 C.ar  256  TRP256      0.0003
    111  CD1      107.1240   55.2720    3.4230 C.ar  256  TRP256      0.0946
    112  CD2      108.6880   55.3000    1.8150 C.ar  256  TRP256      0.0152
    113  NE1      108.2730   55.7880    3.9640 N.ar  256  TRP256     -0.2442
    114  CE2      109.2510   55.8150    3.0040 C.ar  256  TRP256      0.0810
    115  CE3      109.4860   55.2230    0.6660 C.ar  256  TRP256      0.0012
    116  CZ2      110.5820   56.2500    3.0810 C.ar  256  TRP256      0.0191
    117  CZ3      110.8100   55.6580    0.7390 C.ar  256  TRP256      0.0001
    118  CH2      111.3420   56.1650    1.9430 C.ar  256  TRP256      0.0015
    119  N        104.4910   54.2620    8.7350 N.3   259  ALA259     -0.1231
    120  CA       105.4730   54.7540    9.6930 C.3   259  ALA259      0.1694
    121  C        104.8370   55.9920   10.3220 C.2   259  ALA259      0.2592
    122  O        103.7290   56.3760    9.9450 O.2   259  ALA259     -0.2718
    123  CB       106.7890   55.1060    8.9930 C.3   259  ALA259      0.0304
    124  N        105.5380   56.6190   11.2580 N.am  260  TRP260     -0.1962
    125  CA       105.0350   57.7990   11.9590 C.3   260  TRP260      0.1771
    126  C        104.3910   58.9080   11.1210 C.2   260  TRP260      0.2620
    127  O        103.6630   59.7340   11.6640 O.2   260  TRP260     -0.2715
    128  CB       106.1460   58.4090   12.8250 C.3   260  TRP260      0.0590
    129  CG       107.3100   58.9060   12.0220 C.ar  260  TRP260      0.0006
    130  CD1      108.4000   58.1870   11.6250 C.ar  260  TRP260      0.0946
    131  CD2      107.4550   60.2080   11.4390 C.ar  260  TRP260      0.0152
    132  NE1      109.2020   58.9520   10.8190 N.ar  260  TRP260     -0.2442
    133  CE2      108.6460   60.1970   10.6870 C.ar  260  TRP260      0.0810
    134  CE3      106.6850   61.3770   11.4700 C.ar  260  TRP260      0.0012
    135  CZ2      109.0870   61.3090    9.9660 C.ar  260  TRP260      0.0191
    136  CZ3      107.1210   62.4820   10.7540 C.ar  260  TRP260      0.0001
    137  CH2      108.3130   62.4380   10.0100 C.ar  260  TRP260      0.0015
    138  N        104.7050   58.9720    9.8300 N.am  261  ASP261     -0.1957
    139  CA       104.1660   60.0220    8.9640 C.3   261  ASP261      0.1840
    140  C        103.0050   59.6110    8.0650 C.2   261  ASP261      0.2622
    141  O        102.0520   60.3790    7.8830 O.2   261  ASP261     -0.2715
    142  CB       105.2850   60.6130    8.0880 C.3   261  ASP261      0.1450
    143  CG       104.8190   61.8070    7.2600 C.2   261  ASP261      0.3671
    144  OD1      104.7050   62.9180    7.8150 O.co2 261  ASP261     -0.2456
    145  OD2      104.5720   61.6360    6.0510 O.co2 261  ASP261     -0.2456
    146  N        103.0850   58.4120    7.4940 N.am  262  ASP262     -0.1971
    147  CA       102.0540   57.9460    6.5720 C.3   262  ASP262      0.1709
    148  C        101.2920   56.7140    7.0650 C.2   262  ASP262      0.2293
    149  O        101.8350   55.6110    7.1160 O.2   262  ASP262     -0.2864
    150  CB       102.6940   57.6740    5.1980 C.3   262  ASP262      0.1436
    151  CG       101.6770   57.6060    4.0730 C.2   262  ASP262      0.3671
    152  OD1      100.4630   57.7130    4.3430 O.co2 262  ASP262     -0.2456
    153  OD2      102.0930   57.4620    2.9080 O.co2 262  ASP262     -0.2456
    154  N         98.8180   53.0550    4.4270 N.3   265  TYR265     -0.1241
    155  CA        98.9980   51.6180    4.3480 C.3   265  TYR265      0.1605
    156  C         98.2680   50.8480    5.4420 C.2   265  TYR265      0.2264
    157  O         97.6970   49.7960    5.1770 O.2   265  TYR265     -0.2867
    158  CB       100.4910   51.3120    4.3400 C.3   265  TYR265      0.0534
    159  CG       101.2130   52.0700    3.2430 C.ar  265  TYR265     -0.0201
    160  CD1      101.6510   53.3830    3.4440 C.ar  265  TYR265     -0.0009
    161  CD2      101.4160   51.4970    1.9950 C.ar  265  TYR265     -0.0009
    162  CE1      102.2630   54.0960    2.4320 C.ar  265  TYR265      0.0417
    163  CE2      102.0310   52.2050    0.9670 C.ar  265  TYR265      0.0417
    164  CZ       102.4500   53.5020    1.1950 C.ar  265  TYR265      0.1957
    165  OH       103.0570   54.1970    0.1760 O.3   265  TYR265     -0.2866
    166  N        114.7990   52.4030    2.9480 N.3   311  ASP311     -0.1239
    167  CA       115.5590   53.6400    3.0030 C.3   311  ASP311      0.1674
    168  C        116.7300   53.4650    3.9570 C.2   311  ASP311      0.2266
    169  O        116.7120   52.5630    4.7950 O.2   311  ASP311     -0.2867
    170  CB       114.6530   54.7830    3.4680 C.3   311  ASP311      0.1410
    171  CG       115.2660   56.1330    3.2220 C.2   311  ASP311      0.3668
    172  OD1      115.4450   56.4900    2.0400 O.co2 311  ASP311     -0.2456
    173  OD2      115.5940   56.8260    4.2040 O.co2 311  ASP311     -0.2456
    174  N        117.7450   55.3610    6.5000 N.3   313  TRP313     -0.1241
    175  CA       117.4640   55.7250    7.8840 C.3   313  TRP313      0.1605
    176  C        116.4260   54.7880    8.5080 C.2   313  TRP313      0.2264
    177  O        115.2950   54.7040    8.0350 O.2   313  TRP313     -0.2867
    178  CB       116.9790   57.1790    7.9290 C.3   313  TRP313      0.0550
    179  CG       117.3060   57.9240    9.1960 C.ar  313  TRP313      0.0003
    180  CD1      117.2470   57.4420   10.4720 C.ar  313  TRP313      0.0946
    181  CD2      117.7170   59.2940    9.3040 C.ar  313  TRP313      0.0152
    182  NE1      117.5910   58.4270   11.3680 N.ar  313  TRP313     -0.2442
    183  CE2      117.8850   59.5740   10.6800 C.ar  313  TRP313      0.0810
    184  CE3      117.9580   60.3140    8.3720 C.ar  313  TRP313      0.0012
    185  CZ2      118.2810   60.8320   11.1490 C.ar  313  TRP313      0.0191
    186  CZ3      118.3530   61.5690    8.8400 C.ar  313  TRP313      0.0001
    187  CH2      118.5100   61.8130   10.2180 C.ar  313  TRP313      0.0015
    188  N        113.2790   49.2810   10.9170 N.3   317  ARG317     -0.1231
    189  CA       111.9940   49.7700   11.4070 C.3   317  ARG317      0.1694
    190  C        110.9370   49.6340   10.2980 C.2   317  ARG317      0.2592
    191  O        109.8450   49.1130   10.5320 O.2   317  ARG317     -0.2718
    192  CB       112.1360   51.2290   11.8600 C.3   317  ARG317      0.0321
    193  CG       110.8440   52.0080   12.0610 C.3   317  ARG317      0.0489
    194  CD       110.5730   52.9340   10.8750 C.3   317  ARG317      0.2205
    195  NE       111.7710   53.6570   10.4550 N.pl3 317  ARG317     -0.0865
    196  CZ       112.0390   54.9250   10.7610 C.cat 317  ARG317      0.5346
    197  NH1      111.1980   55.6340   11.4970 N.pl3 317  ARG317      0.1354
    198  NH2      113.1560   55.4920   10.3210 N.pl3 317  ARG317      0.1354
    199  N        111.2670   50.0900    9.0900 N.am  318  TYR318     -0.1976
    200  CA       110.3410   49.9940    7.9650 C.3   318  TYR318      0.1639
    201  C        109.9590   48.5300    7.7110 C.2   318  TYR318      0.2290
    202  O        108.7730   48.1650    7.7440 O.2   318  TYR318     -0.2864
    203  CB       110.9570   50.6250    6.7200 C.3   318  TYR318      0.0560
    204  CG       111.1360   52.1340    6.8090 C.ar  318  TYR318     -0.0198
    205  CD1      110.0850   52.9620    7.2140 C.ar  318  TYR318     -0.0009
    206  CD2      112.3460   52.7360    6.4480 C.ar  318  TYR318     -0.0009
    207  CE1      110.2350   54.3530    7.2500 C.ar  318  TYR318      0.0417
    208  CE2      112.5080   54.1190    6.4820 C.ar  318  TYR318      0.0417
    209  CZ       111.4480   54.9230    6.8840 C.ar  318  TYR318      0.1957
    210  OH       111.6050   56.2930    6.9170 O.3   318  TYR318     -0.2866
    211  N        121.0010   54.5370   15.3270 N.3   424  GLU424     -0.1245
    212  CA       120.2110   55.2290   16.3270 C.3   424  GLU424      0.1567
    213  C        119.0460   54.3220   16.7050 C.2   424  GLU424      0.2260
    214  O        118.7490   53.3580   15.9930 O.2   424  GLU424     -0.2867
    215  CB       119.7160   56.5850   15.8160 C.3   424  GLU424      0.0388
    216  CG       118.8800   57.3420   16.8410 C.3   424  GLU424      0.1160
    217  CD       119.0870   58.8390   16.7920 C.2   424  GLU424      0.3649
    218  OE1      119.1640   59.4060   15.6810 O.co2 424  GLU424     -0.2457
    219  OE2      119.1640   59.4490   17.8780 O.co2 424  GLU424     -0.2457
    220  N        114.9320   54.3210   18.6970 N.3   426  ALA426     -0.1245
    221  CA       113.7760   55.1960   18.8490 C.3   426  ALA426      0.1562
    222  C        112.5060   54.4780   19.2740 C.2   426  ALA426      0.2260
    223  O        112.3200   53.2940   18.9900 O.2   426  ALA426     -0.2867
    224  CB       113.5240   55.9600   17.5430 C.3   426  ALA426      0.0290
    225  N        109.5650   54.7670   18.0400 N.3   428  ASP428     -0.1225
    226  CA       108.8240   54.2800   16.8720 C.3   428  ASP428      0.1805
    227  C        109.4890   53.0980   16.1690 C.2   428  ASP428      0.2597
    228  O        108.8210   52.3530   15.4470 O.2   428  ASP428     -0.2718
    229  CB       108.5470   55.4120   15.8630 C.3   428  ASP428      0.1424
    230  CG       109.7470   55.7450   14.9870 C.2   428  ASP428      0.3668
    231  OD1      110.7590   56.2530   15.5170 O.co2 428  ASP428     -0.2456
    232  OD2      109.6720   55.5090   13.7540 O.co2 428  ASP428     -0.2456
    233  N        110.7990   52.9360   16.3660 N.am  429  TYR429     -0.1976
    234  CA       111.5610   51.8350   15.7690 C.3   429  TYR429      0.1639
    235  C        111.0870   50.5030   16.3210 C.2   429  TYR429      0.2290
    236  O        111.1450   49.4840   15.6320 O.2   429  TYR429     -0.2864
    237  CB       113.0550   51.9590   16.1090 C.3   429  TYR429      0.0560
    238  CG       113.8600   52.8960   15.2390 C.ar  429  TYR429     -0.0198
    239  CD1      113.2490   53.8740   14.4710 C.ar  429  TYR429     -0.0009
    240  CD2      115.2460   52.8080   15.2020 C.ar  429  TYR429     -0.0009
    241  CE1      114.0000   54.7440   13.6880 C.ar  429  TYR429      0.0417
    242  CE2      116.0020   53.6730   14.4270 C.ar  429  TYR429      0.0417
    243  CZ       115.3780   54.6390   13.6750 C.ar  429  TYR429      0.1957
    244  OH       116.1300   55.5170   12.9210 O.3   429  TYR429     -0.2866
@<TRIPOS>BOND
     1    99   100    1
     2   100   101    1
     3   100   103    1
     4   101   102    2
     5   104   103    1
     6   105   106    1
     7   165   164    1
     8   115   117   ar
     9   115   112   ar
    10   117   118   ar
    11   106   109    1
    12   106   107    1
    13   163   164   ar
    14   163   161   ar
    15   109   110    1
    16   164   162   ar
    17   108   107    2
    18   112   110   ar
    19   112   114   ar
    20   118   116   ar
    21   161   159   ar
    22   172   171   ar
    23   110   111   ar
    24   162   160   ar
    25    82    81    2
    26   153   151   ar
    27   166   167    1
    28    91    89   ar
    29    91    92   ar
    30   167   170    1
    31   167   168    1
    32   114   116   ar
    33   114   113   ar
    34    96    95    2
    35   171   170    1
    36   171   173   ar
    37    89    86   ar
    38   159   160   ar
    39   159   158    1
    40   111   113   ar
    41    94    95    1
    42    94    97    1
    43    94    93    1
    44    81    93   am
    45    81    80    1
    46    92    90   ar
    47   168   169    2
    48    97    98    1
    49   151   152   ar
    50   151   150    1
    51   158   155    1
    52   155   154    1
    53   155   156    1
    54    86    84   ar
    55    86    88   ar
    56    83    80    1
    57    83    84    1
    58    80    79    1
    59    84    85   ar
    60    90    88   ar
    61   157   156    2
    62   150   147    1
    63    88    87   ar
    64    78    76   am
    65   145   143   ar
    66    85    87   ar
    67   206   208   ar
    68   206   204   ar
    69   208   209   ar
    70   174   175    1
    71   147   148    1
    72   147   146    1
    73   203   204    1
    74   203   200    1
    75   204   205   ar
    76   209   210    1
    77   209   207   ar
    78    76    77    2
    79    76    75    1
    80   148   149    2
    81   205   207   ar
    82   143   144   ar
    83   143   142    1
    84   146   140   am
    85   201   202    2
    86   201   200    1
    87   141   140    2
    88   175   178    1
    89   175   176    1
    90    75    72    1
    91   178   179    1
    92   200   199    1
    93   177   176    2
    94   140   139    1
    95   142   139    1
    96    74    73    2
    97   184   186   ar
    98   184   181   ar
    99    73    72    1
   100   119   120    1
   101   186   187   ar
   102   139   138    1
   103   123   120    1
   104   199   190   am
   105    72    71    1
   106   179   181   ar
   107   179   180   ar
   108   181   183   ar
   109   120   121    1
   110   138   126   am
   111   122   121    2
   112    71    61   am
   113   135   137   ar
   114   135   133   ar
   115   137   136   ar
   116   187   185   ar
   117   190   191    2
   118   190   189    1
   119    44    43    1
   120    44    47    1
   121    44    45    1
   122   198   196    1
   123   121   124   am
   124   195   196    2
   125   195   194    1
   126   180   182   ar
   127    46    45    2
   128   183   185   ar
   129   183   182   ar
   130   133   132   ar
   131   133   131   ar
   132   136   134   ar
   133   196   197    1
   134   132   130   ar
   135   194   193    1
   136   188   189    1
   137    45    48   am
   138   126   127    2
   139   126   125    1
   140    61    62    2
   141    61    60    1
   142   124   125    1
   143   189   192    1
   144   131   134   ar
   145   131   129   ar
   146   130   129   ar
   147    51    50    2
   148    48    49    1
   149   192   193    1
   150    60    59    1
   151    60    63    1
   152   125   128    1
   153   129   128    1
   154    50    59   am
   155    50    49    1
   156    49    52    1
   157   244   243    1
   158    63    64    1
   159    65    64   ar
   160    65    67   ar
   161   243   241   ar
   162   243   242   ar
   163   241   239   ar
   164   232   230   ar
   165    52    53    1
   166    64    66   ar
   167    67    69   ar
   168    53    54   ar
   169    53    55   ar
   170    54    56   ar
   171   242   240   ar
   172   239   238   ar
   173    55    57   ar
   174    56    58   ar
   175    57    58   ar
   176   230   231   ar
   177   230   229    1
   178    66    68   ar
   179    69    68   ar
   180    69    70    1
   181   240   238   ar
   182   238   237    1
   183   211   212    1
   184   228   227    2
   185   236   235    2
   186   218   217   ar
   187   234   237    1
   188   234   235    1
   189   234   233    1
   190   215   212    1
   191   215   216    1
   192   229   226    1
   193   214   213    2
   194   227   233   am
   195   227   226    1
   196   212   213    1
   197   217   216    1
   198   217   219   ar
   199   226   225    1
   200    39    41   ar
   201    39    38   ar
   202    41    42   ar
   203    30    32   ar
   204    30    28   ar
   205   224   221    1
   206    32    31   ar
   207    28    27   ar
   208     8     6   ar
   209    38    37    1
   210    38    40   ar
   211    31    29   ar
   212    27    29   ar
   213    27    26    1
   214     7     6   ar
   215    42    40   ar
   216    37    34    1
   217    26    23    1
   218    13    10    1
   219     6     5    1
   220   220   221    1
   221   221   222    1
   222   223   222    2
   223    21    19   ar
   224    23    24    1
   225    23    22    1
   226    36    35    2
   227    24    25    2
   228    34    35    1
   229    34    33    1
   230    19    20   ar
   231    19    18    1
   232    10     9    1
   233    10    11    1
   234     5     2    1
   235     4     3    2
   236     3     9   am
   237     3     2    1
   238    18    15    1
   239    11    12    2
   240     2     1    1
   241    14    15    1
   242    15    16    1
   243    16    17    2
