@<TRIPOS>MOLECULE
tmp/4tglA00.pdb
 127 123 0 0 0
SMALL
GASTEIGER

@<TRIPOS>ATOM
      1  N        -17.2180    6.5540   79.0870 N.3    24  TYR24      -0.1241
      2  CA       -16.5740    6.2280   80.3880 C.3    24  TYR24       0.1605
      3  C        -16.2380    4.7530   80.5240 C.2    24  TYR24       0.2264
      4  O        -15.7280    4.3080   81.5630 O.2    24  TYR24      -0.2867
      5  CB       -17.5460    6.5730   81.5180 C.3    24  TYR24       0.0534
      6  CG       -17.5090    8.0800   81.7630 C.ar   24  TYR24      -0.0201
      7  CD1      -16.6060    8.8210   82.4680 C.ar   24  TYR24      -0.0009
      8  CD2      -18.5740    8.7800   81.2040 C.ar   24  TYR24      -0.0009
      9  CE1      -16.7250   10.1760   82.6680 C.ar   24  TYR24       0.0417
     10  CE2      -18.7500   10.1810   81.3320 C.ar   24  TYR24       0.0417
     11  CZ       -17.7730   10.8480   82.0760 C.ar   24  TYR24       0.1957
     12  OH       -17.9480   12.1630   82.1930 O.3    24  TYR24      -0.2866
     13  N        -14.2150   13.4090   83.8580 N.3    78  SER78      -0.1217
     14  CA       -13.3580   12.9920   84.9880 C.3    78  SER78       0.1889
     15  C        -13.6020   11.5620   85.4540 C.2    78  SER78       0.2288
     16  O        -14.6280   10.9300   85.7770 O.2    78  SER78      -0.2866
     17  CB       -13.4800   13.9620   86.1440 C.3    78  SER78       0.2089
     18  OG       -13.0240   15.2260   85.6730 O.3    78  SER78      -0.2183
     19  N         -9.2180   15.2060   87.8560 N.3    84  TRP84      -0.1241
     20  CA        -9.8400   16.0570   88.9530 C.3    84  TRP84       0.1605
     21  C         -8.9470   17.2450   89.1950 C.2    84  TRP84       0.2264
     22  O         -9.3700   18.4240   89.1090 O.2    84  TRP84      -0.2867
     23  CB       -10.1800   15.0750   90.0090 C.3    84  TRP84       0.0550
     24  CG       -11.3630   14.1770   89.7900 C.ar   84  TRP84       0.0003
     25  CD1      -11.2430   12.8040   89.8670 C.ar   84  TRP84       0.0946
     26  CD2      -12.7640   14.4670   89.5780 C.ar   84  TRP84       0.0152
     27  NE1      -12.5140   12.2400   89.7480 N.ar   84  TRP84      -0.2442
     28  CE2      -13.4440   13.2330   89.5280 C.ar   84  TRP84       0.0810
     29  CE3      -13.5430   15.5810   89.4350 C.ar   84  TRP84       0.0012
     30  CZ2      -14.8130   13.1210   89.3560 C.ar   84  TRP84       0.0191
     31  CZ3      -14.9070   15.5520   89.2970 C.ar   84  TRP84       0.0001
     32  CH2      -15.5520   14.3250   89.2460 C.ar   84  TRP84       0.0015
     33  N         -9.3670   19.7120   86.5780 N.3    87  ASP87      -0.1239
     34  CA       -10.7080   20.2140   86.8400 C.3    87  ASP87       0.1674
     35  C        -10.6870   21.4250   87.7820 C.2    87  ASP87       0.2266
     36  O        -11.5630   22.2730   87.5760 O.2    87  ASP87      -0.2867
     37  CB       -11.5460   19.0970   87.4530 C.3    87  ASP87       0.1410
     38  CG       -12.1850   18.2520   86.3770 C.2    87  ASP87       0.3668
     39  OD1      -11.9000   18.4730   85.1960 O.co2  87  ASP87      -0.2456
     40  OD2      -13.0000   17.4110   86.8060 O.co2  87  ASP87      -0.2456
     41  N         -8.5400   22.9390   81.6710 N.3   107  PHE107     -0.1241
     42  CA        -9.3100   22.4910   80.4950 C.3   107  PHE107      0.1605
     43  C         -8.4710   22.6240   79.2110 C.2   107  PHE107      0.2264
     44  O         -8.4790   21.7490   78.2970 O.2   107  PHE107     -0.2867
     45  CB       -10.6310   23.2820   80.4760 C.3   107  PHE107      0.0534
     46  CG       -11.6950   22.9090   81.4710 C.ar  107  PHE107     -0.0203
     47  CD1      -11.6870   21.7170   82.2470 C.ar  107  PHE107     -0.0042
     48  CD2      -12.8120   23.7250   81.7130 C.ar  107  PHE107     -0.0042
     49  CE1      -12.6580   21.3450   83.1670 C.ar  107  PHE107     -0.0003
     50  CE2      -13.8000   23.3830   82.6300 C.ar  107  PHE107     -0.0003
     51  CZ       -13.7690   22.1830   83.3460 C.ar  107  PHE107     -0.0000
     52  N        -19.3030   14.9770   78.0780 N.3   139  HIS139     -0.1226
     53  CA       -19.8270   15.0660   79.4410 C.3   139  HIS139      0.1752
     54  C        -18.9180   15.6680   80.5330 C.2   139  HIS139      0.2597
     55  O        -17.8140   15.0800   80.6930 O.2   139  HIS139     -0.2718
     56  CB       -20.0530   13.6630   80.1310 C.3   139  HIS139      0.0759
     57  CG       -20.8240   13.7170   81.4160 C.ar  139  HIS139      0.0818
     58  ND1      -20.5430   12.9780   82.5440 N.ar  139  HIS139     -0.2268
     59  CD2      -21.9360   14.4420   81.7470 C.ar  139  HIS139      0.1154
     60  CE1      -21.4970   13.2520   83.4380 C.ar  139  HIS139      0.1986
     61  NE2      -22.3470   14.1250   83.0010 N.ar  139  HIS139     -0.2212
     62  N        -19.4340   16.7030   81.2060 N.am  140  SER140     -0.1938
     63  CA       -18.6910   17.3370   82.3360 C.3   140  SER140      0.2055
     64  C        -17.2830   17.7060   81.9230 C.2   140  SER140      0.2642
     65  O        -17.1900   18.6570   81.0900 O.2   140  SER140     -0.2714
     66  CB       -18.7690   16.3630   83.5460 C.3   140  SER140      0.2130
     67  OG       -18.1220   16.9760   84.6610 O.3   140  SER140     -0.2179
     68  N        -16.1360   17.1820   82.3100 N.am  141  LEU141     -0.1977
     69  CA       -14.9350   17.7750   81.6230 C.3   141  LEU141      0.1596
     70  C        -15.0090   17.5500   80.0820 C.2   141  LEU141      0.2287
     71  O        -14.5900   18.3770   79.2240 O.2   141  LEU141     -0.2864
     72  CB       -13.6500   17.1450   82.1040 C.3   141  LEU141      0.0297
     73  CG       -12.2970   17.1570   81.5010 C.3   141  LEU141      0.0022
     74  CD1      -11.6000   18.5410   81.6880 C.3   141  LEU141      0.0001
     75  CD2      -11.3220   16.1520   82.1450 C.3   141  LEU141      0.0001
     76  N        -19.2280   22.0830   82.6220 N.3   173  PRO173     -0.2168
     77  CA       -18.7220   23.1980   83.4510 C.3   173  PRO173      0.1057
     78  C        -18.6150   24.4730   82.6350 C.3   173  PRO173      0.1993
     79  O        -18.7620   24.2220   81.4030 O.3   173  PRO173     -0.2189
     80  CB       -17.3040   22.7520   83.7550 C.3   173  PRO173      0.0215
     81  CG       -16.9470   21.6040   82.8700 C.3   173  PRO173      0.0203
     82  CD       -18.2760   20.9580   82.5420 C.3   173  PRO173      0.0888
     83  N        -22.6790   21.0320   88.2700 N.3   201  VAL201     -0.1245
     84  CA       -21.5310   21.2850   87.3930 C.3   201  VAL201      0.1561
     85  C        -21.6010   22.4630   86.4530 C.2   201  VAL201      0.2260
     86  O        -20.5950   23.2040   86.4100 O.2   201  VAL201     -0.2867
     87  CB       -21.0610   19.9920   86.7090 C.3   201  VAL201      0.0252
     88  CG1      -19.5610   20.2680   86.6610 C.3   201  VAL201      0.0019
     89  CG2      -21.3590   18.7940   87.5730 C.3   201  VAL201      0.0019
     90  N        -20.5070   25.7120   88.0120 N.3   204  LEU204     -0.1245
     91  CA       -19.1260   25.8800   88.4130 C.3   204  LEU204      0.1561
     92  C        -18.2070   26.0130   87.1940 C.2   204  LEU204      0.2260
     93  O        -18.5560   25.3390   86.1710 O.2   204  LEU204     -0.2867
     94  CB       -18.7070   24.6150   89.2000 C.3   204  LEU204      0.0270
     95  CG       -19.4810   24.1760   90.4440 C.3   204  LEU204      0.0019
     96  CD1      -19.0230   22.7890   90.9210 C.3   204  LEU204      0.0001
     97  CD2      -19.2230   25.1960   91.5390 C.3   204  LEU204      0.0001
     98  N        -26.4080   15.0540   88.0580 N.3   253  HIS253     -0.1226
     99  CA       -25.3390   15.2050   87.0890 C.3   253  HIS253      0.1752
    100  C        -24.7920   13.9120   86.5240 C.2   253  HIS253      0.2595
    101  O        -23.9570   13.9860   85.5870 O.2   253  HIS253     -0.2718
    102  CB       -24.1300   15.9330   87.7450 C.3   253  HIS253      0.0759
    103  CG       -22.8810   15.8850   86.9260 C.ar  253  HIS253      0.0818
    104  ND1      -22.5510   16.8190   85.9750 N.ar  253  HIS253     -0.2268
    105  CD2      -21.8660   14.9790   86.9170 C.ar  253  HIS253      0.1154
    106  CE1      -21.3820   16.5200   85.4220 C.ar  253  HIS253      0.1986
    107  NE2      -20.9560   15.4080   85.9820 N.ar  253  HIS253     -0.2212
    108  N        -25.2010   12.8210   87.0920 N.am  254  LEU254     -0.1980
    109  CA       -24.7670   11.4680   86.7460 C.3   254  LEU254      0.1596
    110  C        -25.8260   10.6910   86.0040 C.2   254  LEU254      0.2287
    111  O        -25.8260    9.4410   85.8710 O.2   254  LEU254     -0.2864
    112  CB       -24.4710   10.7660   88.0870 C.3   254  LEU254      0.0297
    113  CG       -23.3070   11.2860   88.9310 C.3   254  LEU254      0.0022
    114  CD1      -23.5570   10.3970   90.1730 C.3   254  LEU254      0.0001
    115  CD2      -21.9220   11.1620   88.3380 C.3   254  LEU254      0.0001
    116  N        -21.0240    8.7200   83.7630 N.3   262  GLY262     -0.1210
    117  CA       -19.9810    8.9230   84.7540 C.3   262  GLY262      0.1956
    118  C        -19.3540    7.5690   85.0920 C.2   262  GLY262      0.2608
    119  O        -18.1310    7.3810   85.1450 O.2   262  GLY262     -0.2717
    120  N        -20.3420    6.7070   85.3430 N.am  263  LEU263     -0.2032
    121  CA       -19.9140    5.3920   85.7720 C.3   263  LEU263      0.1282
    122  C        -19.9380    4.3400   84.7280 C.3   263  LEU263      0.2036
    123  O        -19.3360    3.2960   85.1060 O.3   263  LEU263     -0.2185
    124  CB       -20.8000    5.1390   87.0330 C.3   263  LEU263      0.0244
    125  CG       -20.6570    5.9990   88.2940 C.3   263  LEU263      0.0018
    126  CD1      -21.3160    5.4590   89.5550 C.3   263  LEU263      0.0001
    127  CD2      -19.2040    5.9360   88.7400 C.3   263  LEU263      0.0001
@<TRIPOS>BOND
     1    52    53    1
     2    44    43    2
     3     1     2    1
     4    43    42    1
     5    71    70    2
     6    53    56    1
     7    53    54    1
     8    70    69    1
     9    56    57    1
    10     2     3    1
    11     2     5    1
    12    45    42    1
    13    45    46    1
    14    42    41    1
    15     3     4    2
    16    54    55    2
    17    54    62   am
    18    65    64    2
    19     8    10   ar
    20     8     6   ar
    21    62    63    1
    22    10    11   ar
    23    79    78    1
    24    57    59   ar
    25    57    58   ar
    26    46    48   ar
    27    46    47   ar
    28    73    74    1
    29    73    72    1
    30    73    75    1
    31     5     6    1
    32    69    72    1
    33    69    68    1
    34    48    50   ar
    35    59    61   ar
    36     6     7   ar
    37    64    68   am
    38    64    63    1
    39    11    12    1
    40    11     9   ar
    41    47    49   ar
    42    63    66    1
    43     7     9   ar
    44    82    76    1
    45    82    81    1
    46    58    60   ar
    47    76    77    1
    48    50    51   ar
    49    78    77    1
    50    81    80    1
    51    61    60   ar
    52    49    51   ar
    53    77    80    1
    54    66    67    1
    55   116   117    1
    56    13    14    1
    57   122   123    1
    58   122   121    1
    59   117   118    1
    60    14    15    1
    61    14    17    1
    62   118   119    2
    63   118   120   am
    64    39    38   ar
    65   120   121    1
    66   106   104   ar
    67   106   107   ar
    68    15    16    2
    69   101   100    2
    70    18    17    1
    71   121   124    1
    72   111   110    2
    73   104   103   ar
    74   107   105   ar
    75   110   109    1
    76    93    92    2
    77    38    40   ar
    78    38    37    1
    79    86    85    2
    80    85    84    1
    81   100    99    1
    82   100   108   am
    83    33    34    1
    84    88    87    1
    85    87    84    1
    86    87    89    1
    87   109   108    1
    88   109   112    1
    89    34    37    1
    90    34    35    1
    91   105   103   ar
    92   103   102    1
    93   124   125    1
    94    99   102    1
    95    99    98    1
    96    92    91    1
    97    84    83    1
    98    36    35    2
    99    19    20    1
   100    90    91    1
   101   112   113    1
   102   125   127    1
   103   125   126    1
   104   115   113    1
   105    91    94    1
   106   113   114    1
   107    20    21    1
   108    20    23    1
   109    22    21    2
   110    94    95    1
   111    32    31   ar
   112    32    30   ar
   113    31    29   ar
   114    30    28   ar
   115    29    26   ar
   116    28    26   ar
   117    28    27   ar
   118    26    24   ar
   119    27    25   ar
   120    24    25   ar
   121    24    23    1
   122    95    96    1
   123    95    97    1
