@<TRIPOS>MOLECULE
tmp/4thiA00.pdb
 126 120 0 0 0
SMALL
GASTEIGER

@<TRIPOS>ATOM
      1  N         14.6270   16.8870   -0.1800 N.3     8  TYR8       -0.1241
      2  CA        14.7200   18.3470   -0.2030 C.3     8  TYR8        0.1605
      3  C         16.1110   18.7160   -0.7200 C.2     8  TYR8        0.2264
      4  O         17.1220   18.3290   -0.1390 O.2     8  TYR8       -0.2867
      5  CB        14.4730   18.9620    1.1730 C.3     8  TYR8        0.0534
      6  CG        14.1130   20.4200    1.0710 C.ar    8  TYR8       -0.0201
      7  CD1       12.8930   20.8040    0.5250 C.ar    8  TYR8       -0.0009
      8  CD2       15.0090   21.4190    1.4500 C.ar    8  TYR8       -0.0009
      9  CE1       12.5670   22.1410    0.3480 C.ar    8  TYR8        0.0417
     10  CE2       14.6890   22.7760    1.2770 C.ar    8  TYR8        0.0417
     11  CZ        13.4650   23.1190    0.7190 C.ar    8  TYR8        0.1957
     12  OH        13.1230   24.4310    0.4970 O.3     8  TYR8       -0.2866
     13  N         17.7540   21.7950   -0.9130 N.3    10  TYR10      -0.1227
     14  CA        18.5620   22.7990   -0.2260 C.3    10  TYR10       0.1736
     15  C         18.9920   22.5300    1.2180 C.2    10  TYR10       0.2595
     16  O         18.4660   23.1280    2.1570 O.2    10  TYR10      -0.2718
     17  CB        17.8850   24.1550   -0.3500 C.3    10  TYR10       0.0548
     18  CG        17.5900   24.5140   -1.7860 C.ar   10  TYR10      -0.0200
     19  CD1       18.5610   24.3370   -2.7790 C.ar   10  TYR10      -0.0009
     20  CD2       16.3390   24.9940   -2.1660 C.ar   10  TYR10      -0.0009
     21  CE1       18.2960   24.6240   -4.1150 C.ar   10  TYR10       0.0417
     22  CE2       16.0610   25.2880   -3.5030 C.ar   10  TYR10       0.0417
     23  CZ        17.0460   25.0970   -4.4720 C.ar   10  TYR10       0.1957
     24  OH        16.7830   25.3610   -5.8030 O.3    10  TYR10      -0.2866
     25  N         19.9770   21.6420    1.3710 N.am   11  VAL11      -0.1980
     26  CA        20.5460   21.2760    2.6750 C.3    11  VAL11       0.1595
     27  C         22.0670   21.2210    2.5020 C.2    11  VAL11       0.2287
     28  O         22.5570   21.1400    1.3710 O.2    11  VAL11      -0.2864
     29  CB        20.0390   19.8870    3.1750 C.3    11  VAL11       0.0276
     30  CG1       18.5650   19.9410    3.4980 C.3    11  VAL11       0.0022
     31  CG2       20.3220   18.8000    2.1430 C.3    11  VAL11       0.0022
     32  N         10.2190   25.7940   -5.1020 N.3    42  TYR42      -0.1241
     33  CA        10.2800   27.2420   -5.2910 C.3    42  TYR42       0.1605
     34  C         10.1410   27.6710   -6.7520 C.2    42  TYR42       0.2264
     35  O          9.7250   28.8000   -7.0210 O.2    42  TYR42      -0.2867
     36  CB        11.5860   27.8160   -4.7320 C.3    42  TYR42       0.0534
     37  CG        11.5540   28.1430   -3.2580 C.ar   42  TYR42      -0.0201
     38  CD1       11.1190   29.3880   -2.8150 C.ar   42  TYR42      -0.0009
     39  CD2       11.9610   27.2110   -2.3010 C.ar   42  TYR42      -0.0009
     40  CE1       11.0910   29.6980   -1.4530 C.ar   42  TYR42       0.0417
     41  CE2       11.9370   27.5100   -0.9420 C.ar   42  TYR42       0.0417
     42  CZ        11.4990   28.7520   -0.5250 C.ar   42  TYR42       0.1957
     43  OH        11.4550   29.0610    0.8230 O.3    42  TYR42      -0.2866
     44  N          8.6520   23.1650    0.5290 N.3    56  ASP56      -0.1239
     45  CA         8.6190   24.2090    1.5520 C.3    56  ASP56       0.1674
     46  C          7.1230   24.5510    1.6900 C.2    56  ASP56       0.2266
     47  O          6.4530   24.8480    0.6890 O.2    56  ASP56      -0.2867
     48  CB         9.3980   25.4440    1.0770 C.3    56  ASP56       0.1410
     49  CG         9.4960   26.5310    2.1380 C.2    56  ASP56       0.3668
     50  OD1        8.4620   26.9170    2.7170 O.co2  56  ASP56      -0.2456
     51  OD2       10.6120   27.0330    2.3810 O.co2  56  ASP56      -0.2456
     52  N         11.8100   18.7470    8.0740 N.3   103  ILE103     -0.1245
     53  CA        12.8210   19.7280    8.4830 C.3   103  ILE103      0.1561
     54  C         12.1600   21.0670    8.7840 C.2   103  ILE103      0.2260
     55  O         11.1920   21.4240    8.1370 O.2   103  ILE103     -0.2867
     56  CB        13.8620   19.9780    7.3500 C.3   103  ILE103      0.0252
     57  CG1       14.5320   18.6630    6.9290 C.3   103  ILE103      0.0019
     58  CG2       14.9170   21.0090    7.8120 C.3   103  ILE103      0.0019
     59  CD1       15.1840   18.7380    5.5680 C.3   103  ILE103      0.0001
     60  N         13.0870   25.3620    9.8740 N.3   105  CYS105     -0.1235
     61  CA        14.1470   26.3670    9.7390 C.3   105  CYS105      0.1677
     62  C         13.7750   27.7250   10.3290 C.2   105  CYS105      0.2270
     63  O         12.6320   28.1670   10.2430 O.2   105  CYS105     -0.2867
     64  CB        14.4490   26.6030    8.2580 C.3   105  CYS105      0.0956
     65  SG        14.9340   25.2170    7.2110 S.3   105  CYS105     -0.0801
     66  N         26.1540   28.6370    1.9730 N.3   214  TYR214     -0.1241
     67  CA        26.7100   28.7840    3.3190 C.3   214  TYR214      0.1605
     68  C         28.0430   29.5580    3.4060 C.2   214  TYR214      0.2264
     69  O         28.7760   29.4340    4.3920 O.2   214  TYR214     -0.2867
     70  CB        26.8370   27.3950    3.9580 C.3   214  TYR214      0.0534
     71  CG        25.5510   26.5980    3.8630 C.ar  214  TYR214     -0.0201
     72  CD1       24.4190   26.9820    4.5830 C.ar  214  TYR214     -0.0009
     73  CD2       25.4420   25.5090    2.9990 C.ar  214  TYR214     -0.0009
     74  CE1       23.2110   26.3100    4.4410 C.ar  214  TYR214      0.0417
     75  CE2       24.2280   24.8270    2.8480 C.ar  214  TYR214      0.0417
     76  CZ        23.1150   25.2360    3.5720 C.ar  214  TYR214      0.1957
     77  OH        21.8990   24.5940    3.4140 O.3   214  TYR214     -0.2866
     78  N         20.5210   30.6420    9.2540 N.3   231  TYR231     -0.1241
     79  CA        19.8620   29.4110    9.7030 C.3   231  TYR231      0.1605
     80  C         20.7730   28.5740   10.5860 C.2   231  TYR231      0.2264
     81  O         21.9890   28.7600   10.5740 O.2   231  TYR231     -0.2867
     82  CB        19.3990   28.5940    8.4950 C.3   231  TYR231      0.0534
     83  CG        18.4000   29.3290    7.6210 C.ar  231  TYR231     -0.0201
     84  CD1       17.3080   29.9980    8.1870 C.ar  231  TYR231     -0.0009
     85  CD2       18.5590   29.3890    6.2310 C.ar  231  TYR231     -0.0009
     86  CE1       16.4050   30.7120    7.3980 C.ar  231  TYR231      0.0417
     87  CE2       17.6550   30.1060    5.4280 C.ar  231  TYR231      0.0417
     88  CZ        16.5850   30.7620    6.0250 C.ar  231  TYR231      0.1957
     89  OH        15.6940   31.4740    5.2620 O.3   231  TYR231     -0.2866
     90  N         21.6230   25.4950   10.2420 N.3   233  GLU233     -0.1245
     91  CA        22.5030   24.6750    9.3800 C.3   233  GLU233      0.1567
     92  C         23.8440   25.3380    9.0560 C.2   233  GLU233      0.2260
     93  O         24.7660   24.6670    8.5710 O.2   233  GLU233     -0.2867
     94  CB        21.8480   24.3330    8.0310 C.3   233  GLU233      0.0388
     95  CG        20.4330   23.9220    8.0830 C.3   233  GLU233      0.1160
     96  CD        19.4780   25.0880    8.0330 C.2   233  GLU233      0.3649
     97  OE1       19.3230   25.6910    6.9530 O.co2 233  GLU233     -0.2457
     98  OE2       18.8680   25.3840    9.0760 O.co2 233  GLU233     -0.2457
     99  N          9.9900   27.9250    8.8350 N.3   262  TYR262     -0.1241
    100  CA         9.7720   27.3640    7.5080 C.3   262  TYR262      0.1605
    101  C          9.6860   25.8430    7.7730 C.2   262  TYR262      0.2264
    102  O         10.4200   25.3040    8.6140 O.2   262  TYR262     -0.2867
    103  CB        10.9610   27.6470    6.5870 C.3   262  TYR262      0.0534
    104  CG        11.1080   29.0830    6.1670 C.ar  262  TYR262     -0.0201
    105  CD1       10.4760   29.5640    5.0200 C.ar  262  TYR262     -0.0009
    106  CD2       11.8980   29.9650    6.9000 C.ar  262  TYR262     -0.0009
    107  CE1       10.6330   30.8970    4.6080 C.ar  262  TYR262      0.0417
    108  CE2       12.0570   31.3000    6.5010 C.ar  262  TYR262      0.0417
    109  CZ        11.4190   31.7530    5.3550 C.ar  262  TYR262      0.1957
    110  OH        11.5610   33.0640    4.9760 O.3   262  TYR262     -0.2866
    111  N          9.6250   22.0510    5.8550 N.3   264  ASP264     -0.1239
    112  CA         9.7480   21.2380    4.6550 C.3   264  ASP264      0.1674
    113  C          9.0250   19.9340    4.9370 C.2   264  ASP264      0.2266
    114  O          9.4310   19.1740    5.8220 O.2   264  ASP264     -0.2867
    115  CB        11.2340   21.0220    4.3210 C.3   264  ASP264      0.1410
    116  CG        12.0260   22.3490    4.2750 C.2   264  ASP264      0.3668
    117  OD1       11.4600   23.3800    3.8510 O.co2 264  ASP264     -0.2456
    118  OD2       13.2070   22.3780    4.6850 O.co2 264  ASP264     -0.2456
    119  N         20.6860   20.7890   10.9280 N.3   307  LEU307     -0.1245
    120  CA        19.3310   21.0850   10.4810 C.3   307  LEU307      0.1561
    121  C         18.3970   20.7680   11.6550 C.2   307  LEU307      0.2260
    122  O         18.7100   19.9030   12.4720 O.2   307  LEU307     -0.2867
    123  CB        18.9690   20.1660    9.3120 C.3   307  LEU307      0.0270
    124  CG        19.6060   20.4250    7.9490 C.3   307  LEU307      0.0019
    125  CD1       19.6240   19.1560    7.1450 C.3   307  LEU307      0.0001
    126  CD2       18.8140   21.4880    7.2150 C.3   307  LEU307      0.0001
@<TRIPOS>BOND
     1    35    34    2
     2    34    33    1
     3    24    23    1
     4    33    32    1
     5    33    36    1
     6    36    37    1
     7    23    21   ar
     8    23    22   ar
     9    21    19   ar
    10    22    20   ar
    11    37    38   ar
    12    37    39   ar
    13    38    40   ar
    14    19    18   ar
    15    39    41   ar
    16    20    18   ar
    17    18    17    1
    18    40    42   ar
    19    41    42   ar
    20    13    14    1
    21     3     2    1
    22     3     4    2
    23    42    43    1
    24    17    14    1
    25    14    15    1
    26     2     1    1
    27     2     5    1
    28     9     7   ar
    29     9    11   ar
    30    12    11    1
    31     7     6   ar
    32    44    45    1
    33    47    46    2
    34    11    10   ar
    35     6     5    1
    36     6     8   ar
    37    48    45    1
    38    48    49    1
    39    15    25   am
    40    15    16    2
    41    10     8   ar
    42    28    27    2
    43    25    26    1
    44    45    46    1
    45    66    67    1
    46    49    51   ar
    47    49    50   ar
    48    31    29    1
    49    27    26    1
    50    26    29    1
    51    75    73   ar
    52    75    76   ar
    53    73    71   ar
    54    29    30    1
    55    67    68    1
    56    67    70    1
    57    68    69    2
    58    77    76    1
    59    76    74   ar
    60   117   116   ar
    61    71    70    1
    62    71    72   ar
    63   116   115    1
    64   116   118   ar
    65   115   112    1
    66    74    72   ar
    67   107   105   ar
    68   107   109   ar
    69   112   113    1
    70   112   111    1
    71   113   114    2
    72   110   109    1
    73   105   104   ar
    74    89    88    1
    75   109   108   ar
    76    87    88   ar
    77    87    85   ar
    78    59    57    1
    79    88    86   ar
    80   104   103    1
    81   104   106   ar
    82    85    83   ar
    83   108   106   ar
    84   103   100    1
    85    57    56    1
    86    97    96   ar
    87   125   124    1
    88    65    64    1
    89   126   124    1
    90    56    58    1
    91    56    53    1
    92    86    84   ar
    93   100   101    1
    94   100    99    1
    95    83    84   ar
    96    83    82    1
    97   101   102    2
    98   124   123    1
    99    94    95    1
   100    94    91    1
   101    96    95    1
   102    96    98   ar
   103    52    53    1
   104    55    54    2
   105    64    61    1
   106    53    54    1
   107    82    79    1
   108    93    92    2
   109    92    91    1
   110    78    79    1
   111   123   120    1
   112    91    90    1
   113    79    80    1
   114    61    60    1
   115    61    62    1
   116    63    62    2
   117   120   119    1
   118   120   121    1
   119    81    80    2
   120   121   122    2
