@<TRIPOS>MOLECULE
tmp/4thnB00.pdb
 145 137 0 0 0
SMALL
GASTEIGER

@<TRIPOS>ATOM
      1  N         12.3250    0.0890   10.5130 N.3    17  MET17      -0.1245
      2  CA        12.4600   -1.2630    9.9930 C.3    17  MET17       0.1570
      3  C         13.8050   -1.5770    9.3970 C.2    17  MET17       0.2261
      4  O         14.2350   -0.9830    8.4170 O.2    17  MET17      -0.2867
      5  CB        11.3830   -1.6180    8.9910 C.3    17  MET17       0.0387
      6  CG        11.2860   -3.1050    8.7640 C.3    17  MET17       0.0595
      7  SD        10.0560   -3.5620    7.5070 S.3    17  MET17      -0.1393
      8  CE         8.5620   -2.7800    8.0830 C.3    17  MET17       0.0692
      9  N         15.7060   -3.7090    7.3500 N.3    19  PHE19      -0.1241
     10  CA        15.2830   -4.5560    6.2770 C.3    19  PHE19       0.1605
     11  C         16.4450   -5.1300    5.4760 C.2    19  PHE19       0.2264
     12  O         17.2990   -4.3860    4.9510 O.2    19  PHE19      -0.2867
     13  CB        14.3280   -3.7560    5.4070 C.3    19  PHE19       0.0534
     14  CG        13.5100   -4.6570    4.5650 C.ar   19  PHE19      -0.0203
     15  CD1       12.4880   -5.4350    5.1100 C.ar   19  PHE19      -0.0042
     16  CD2       13.8040   -4.7740    3.2130 C.ar   19  PHE19      -0.0042
     17  CE1       11.7280   -6.2920    4.3150 C.ar   19  PHE19      -0.0003
     18  CE2       13.0680   -5.6520    2.4210 C.ar   19  PHE19      -0.0003
     19  CZ        12.0220   -6.4020    2.9610 C.ar   19  PHE19      -0.0000
     20  N         18.3750   -6.3650    2.5970 N.3    21  LYS21      -0.1231
     21  CA        18.5210   -6.0700    1.1830 C.3    21  LYS21       0.1693
     22  C         18.1180   -7.2910    0.3620 C.2    21  LYS21       0.2592
     23  O         17.1460   -7.2390   -0.4130 O.2    21  LYS21      -0.2718
     24  CB        19.9400   -5.5770    0.8380 C.3    21  LYS21       0.0285
     25  CG        20.0730   -4.1420    0.2690 C.3    21  LYS21       0.0035
     26  CD        21.3320   -3.4280    0.7240 C.3    21  LYS21       0.0206
     27  CE        21.3220   -1.9510    0.3700 C.3    21  LYS21       0.1093
     28  NZ        22.5030   -1.2340    0.8750 N.3    21  LYS21      -0.1314
     29  N         18.8220   -8.4130    0.5670 N.am   22  SER22      -0.1952
     30  CA        18.4940   -9.6260   -0.1720 C.3    22  SER22       0.1924
     31  C         19.1000  -10.8790    0.4260 C.2    22  SER22       0.2314
     32  O         20.2910  -10.9200    0.6470 O.2    22  SER22      -0.2863
     33  CB        18.8420   -9.5070   -1.6450 C.3    22  SER22       0.2116
     34  OG        20.2320   -9.2940   -1.7960 O.3    22  SER22      -0.2180
     35  N         15.2440  -10.1370    0.3590 N.3    24  GLN24      -0.1231
     36  CA        14.4900   -9.0160    0.8790 C.3    24  GLN24       0.1698
     37  C         13.6440   -9.5150    2.0430 C.2    24  GLN24       0.2592
     38  O         12.7150  -10.3180    1.9010 O.2    24  GLN24      -0.2718
     39  CB        13.6850   -8.3350   -0.2490 C.3    24  GLN24       0.0381
     40  CG        14.3120   -7.0720   -0.8460 C.3    24  GLN24       0.0905
     41  CD        13.4710   -6.5240   -1.9820 C.2    24  GLN24       0.2608
     42  OE1       12.2940   -6.8850   -2.1380 O.2    24  GLN24      -0.2717
     43  NE2       14.0780   -5.6670   -2.7920 N.am   24  GLN24      -0.0878
     44  N         14.0260   -9.1160    3.2450 N.am   25  GLU25      -0.1966
     45  CA        13.2890   -9.6080    4.3950 C.3    25  GLU25       0.1733
     46  C         13.5910   -8.7840    5.6400 C.2    25  GLU25       0.2616
     47  O         14.6940   -8.2000    5.7520 O.2    25  GLU25      -0.2715
     48  CB        13.5590  -11.1180    4.6090 C.3    25  GLU25       0.0429
     49  CG        14.8770  -11.3640    5.3720 C.3    25  GLU25       0.1163
     50  CD        15.1840  -12.7930    5.7940 C.2    25  GLU25       0.3649
     51  OE1       14.3720  -13.5900    6.2550 O.co2  25  GLU25      -0.2457
     52  OE2       16.4800  -13.0540    5.6970 O.co2  25  GLU25      -0.2457
     53  N         12.6080   -8.7300    6.5550 N.am   26  LEU26      -0.1977
     54  CA        12.7490   -7.9660    7.7740 C.3    26  LEU26       0.1596
     55  C         13.7300   -8.5980    8.7210 C.2    26  LEU26       0.2287
     56  O         13.6980   -9.8040    8.9640 O.2    26  LEU26      -0.2864
     57  CB        11.4560   -7.6660    8.5220 C.3    26  LEU26       0.0297
     58  CG        11.7520   -7.0950    9.9080 C.3    26  LEU26       0.0022
     59  CD1       12.0860   -5.6040    9.8510 C.3    26  LEU26       0.0001
     60  CD2       10.6260   -7.3900   10.8650 C.3    26  LEU26       0.0001
     61  N         18.8360   -2.3550    4.4400 N.3    60  LEU60      -0.1245
     62  CA        17.8820   -1.2830    4.1990 C.3    60  LEU60       0.1561
     63  C         17.1090   -0.9080    5.4560 C.2    60  LEU60       0.2260
     64  O         16.6490   -1.7750    6.2210 O.2    60  LEU60      -0.2867
     65  CB        16.8350   -1.7580    3.1600 C.3    60  LEU60       0.0270
     66  CG        16.6250   -0.7260    2.0820 C.3    60  LEU60       0.0019
     67  CD1       17.4360    0.5160    2.4340 C.3    60  LEU60       0.0001
     68  CD2       17.0680   -1.2820    0.7420 C.3    60  LEU60       0.0001
     69  N         13.6870    1.2830    6.6210 N.3    62  ARG62      -0.1245
     70  CA        12.3960    1.8140    6.2070 C.3    62  ARG62       0.1563
     71  C         11.6480    2.4540    7.3660 C.2    62  ARG62       0.2260
     72  O         11.4270    1.7960    8.3620 O.2    62  ARG62      -0.2867
     73  CB        11.5540    0.7260    5.5780 C.3    62  ARG62       0.0307
     74  CG        12.4290   -0.1960    4.7110 C.3    62  ARG62       0.0489
     75  CD        11.6640   -1.3990    4.2180 C.3    62  ARG62       0.2205
     76  NE        10.4050   -1.0070    3.5860 N.pl3  62  ARG62      -0.0865
     77  CZ         9.5500   -1.8580    2.9830 C.cat  62  ARG62       0.5346
     78  NH1        9.7780   -3.1570    2.9170 N.pl3  62  ARG62       0.1354
     79  NH2        8.4250   -1.3900    2.4340 N.pl3  62  ARG62       0.1354
     80  N          3.3730   -4.2490    7.2670 N.3    68  ARG68      -0.1231
     81  CA         4.5610   -5.0750    7.2870 C.3    68  ARG68       0.1694
     82  C          5.1310   -5.3740    5.9200 C.2    68  ARG68       0.2593
     83  O          6.2980   -5.0810    5.7220 O.2    68  ARG68      -0.2718
     84  CB         4.3640   -6.3540    8.1140 C.3    68  ARG68       0.0321
     85  CG         5.5720   -7.2930    8.1330 C.3    68  ARG68       0.0489
     86  CD         5.4560   -8.4280    9.1740 C.3    68  ARG68       0.2205
     87  NE         4.5100   -9.4730    8.7440 N.pl3  68  ARG68      -0.0865
     88  CZ         4.6100  -10.1390    7.5820 C.cat  68  ARG68       0.5346
     89  NH1        5.5860   -9.8970    6.7190 N.pl3  68  ARG68       0.1354
     90  NH2        3.7020  -11.0620    7.2560 N.pl3  68  ARG68       0.1354
     91  N          4.2960   -5.9200    5.0170 N.am   69  THR69      -0.1939
     92  CA         4.6770   -6.3810    3.6720 C.3    69  THR69       0.2028
     93  C          4.5920   -5.4310    2.4920 C.2    69  THR69       0.2642
     94  O          5.4250   -5.4850    1.5910 O.2    69  THR69      -0.2714
     95  CB         3.9210   -7.6570    3.3580 C.3    69  THR69       0.1808
     96  OG1        2.5700   -7.3770    3.5850 O.3    69  THR69      -0.2208
     97  CG2        4.3460   -8.7450    4.3560 C.3    69  THR69       0.0379
     98  N          3.5970   -4.5750    2.5130 N.am   70  ARG70      -0.1963
     99  CA         3.2890   -3.6630    1.4030 C.3    70  ARG70       0.1729
    100  C          4.3180   -2.5280    1.3530 C.2    70  ARG70       0.2616
    101  O          4.7990   -2.0000    2.3380 O.2    70  ARG70      -0.2715
    102  CB         1.8970   -3.0610    1.5900 C.3    70  ARG70       0.0348
    103  CG         0.7770   -4.0570    1.2950 C.3    70  ARG70       0.0492
    104  CD         1.2660   -5.5030    1.2180 C.3    70  ARG70       0.2205
    105  NE         0.5400   -6.2960    0.2170 N.pl3  70  ARG70      -0.0865
    106  CZ         0.3320   -5.9010   -1.0460 C.cat  70  ARG70       0.5346
    107  NH1       -0.8310   -5.4090   -1.4930 N.pl3  70  ARG70       0.1354
    108  NH2        1.3060   -5.9780   -1.9620 N.pl3  70  ARG70       0.1354
    109  N          4.5690   -2.1220    0.1250 N.am   71  TYR71      -0.1974
    110  CA         5.4130   -0.9710   -0.0420 C.3    71  TYR71       0.1639
    111  C          4.5210    0.2770    0.0000 C.2    71  TYR71       0.2290
    112  O          3.8760    0.5990   -0.9800 O.2    71  TYR71      -0.2864
    113  CB         6.2810   -1.1070   -1.3020 C.3    71  TYR71       0.0560
    114  CG         6.8620    0.2130   -1.6560 C.ar   71  TYR71      -0.0198
    115  CD1        7.7510    0.8580   -0.8000 C.ar   71  TYR71      -0.0009
    116  CD2        6.4150    0.8990   -2.7830 C.ar   71  TYR71      -0.0009
    117  CE1        8.2440    2.1290   -1.1070 C.ar   71  TYR71       0.0417
    118  CE2        6.8930    2.1680   -3.1060 C.ar   71  TYR71       0.0417
    119  CZ         7.8260    2.7770   -2.2730 C.ar   71  TYR71       0.1957
    120  OH         8.2980    4.0180   -2.6030 O.3    71  TYR71      -0.2866
    121  N         12.7470    5.2590    2.6760 N.3    78  ILE78      -0.1245
    122  CA        13.8270    4.2880    2.7160 C.3    78  ILE78       0.1561
    123  C         15.1610    4.9900    2.7280 C.2    78  ILE78       0.2260
    124  O         15.3850    5.9280    1.9550 O.2    78  ILE78      -0.2867
    125  CB        13.8380    3.4040    1.5190 C.3    78  ILE78       0.0252
    126  CG1       12.4880    2.7930    1.3940 C.3    78  ILE78       0.0019
    127  CG2       14.8600    2.2970    1.7610 C.3    78  ILE78       0.0019
    128  CD1       12.5920    1.4200    0.7880 C.3    78  ILE78       0.0001
    129  N         19.6020    4.6730    3.4540 N.3    80  MET80      -0.1245
    130  CA        20.7990    3.8660    3.4010 C.3    80  MET80       0.1570
    131  C         21.7140    4.3970    4.4430 C.2    80  MET80       0.2261
    132  O         21.6160    5.5940    4.8160 O.2    80  MET80      -0.2867
    133  CB        21.4890    3.8100    2.0190 C.3    80  MET80       0.0387
    134  CG        20.5130    3.6550    0.8710 C.3    80  MET80       0.0595
    135  SD        20.4120    1.9380    0.3220 S.3    80  MET80      -0.1393
    136  CE        18.8640    1.9770   -0.6050 C.3    80  MET80       0.0692
    137  N          2.2090  -14.4370   11.4030 N.3   150  GLN150     -0.1245
    138  CA         2.8630  -13.1400   11.5130 C.3   150  GLN150      0.1566
    139  C          1.8110  -12.0180   11.4460 C.2   150  GLN150      0.2260
    140  O          0.6500  -12.2260   11.0540 O.2   150  GLN150     -0.2867
    141  CB         3.9430  -12.9410   10.4220 C.3   150  GLN150      0.0367
    142  CG         5.3270  -13.5480   10.7240 C.3   150  GLN150      0.0905
    143  CD         6.0910  -13.9760    9.5040 C.2   150  GLN150      0.2608
    144  OE1        5.6760  -14.8920    8.7820 O.2   150  GLN150     -0.2717
    145  NE2        7.2200  -13.3170    9.2670 N.am  150  GLN150     -0.0878
@<TRIPOS>BOND
     1   118   116   ar
     2   118   119   ar
     3    43    41   am
     4   116   114   ar
     5   120   119    1
     6   119   117   ar
     7    42    41    2
     8    41    40    1
     9   108   106    1
    10    34    33    1
    11   114   113    1
    12   114   115   ar
    13    33    30    1
    14   107   106    1
    15   113   110    1
    16   117   115   ar
    17   106   105    2
    18   112   111    2
    19    40    39    1
    20   136   135    1
    21    23    22    2
    22    39    36    1
    23    30    31    1
    24    30    29    1
    25   110   111    1
    26   110   109    1
    27   109   100   am
    28   105   104    1
    29    25    26    1
    30    25    24    1
    31   135   134    1
    32    35    36    1
    33    22    29   am
    34    22    21    1
    35    27    26    1
    36    27    28    1
    37    31    32    2
    38    68    66    1
    39   128   126    1
    40    24    21    1
    41   134   133    1
    42    36    37    1
    43    21    20    1
    44   104   103    1
    45   103   102    1
    46   100    99    1
    47   100   101    2
    48   126   125    1
    49    99   102    1
    50    99    98    1
    51   125   127    1
    52   125   122    1
    53    94    93    2
    54    38    37    2
    55   124   123    2
    56   133   130    1
    57    37    44   am
    58    66    67    1
    59    66    65    1
    60    18    19   ar
    61    18    16   ar
    62    79    77    1
    63    93    98   am
    64    93    92    1
    65   121   122    1
    66   122   123    1
    67    78    77    1
    68    19    17   ar
    69    77    76    2
    70    65    62    1
    71    16    14   ar
    72    44    45    1
    73    95    96    1
    74    95    92    1
    75    95    97    1
    76   130   129    1
    77   130   131    1
    78    76    75    1
    79    92    91    1
    80    62    61    1
    81    62    63    1
    82    75    74    1
    83    17    15   ar
    84    45    48    1
    85    45    46    1
    86   131   132    2
    87    14    15   ar
    88    14    13    1
    89    48    49    1
    90    74    73    1
    91    12    11    2
    92    91    82   am
    93    49    50    1
    94    13    10    1
    95    63    64    2
    96    11    10    1
    97    73    70    1
    98    46    47    2
    99    46    53   am
   100    52    50   ar
   101    83    82    2
   102    50    51   ar
   103    82    81    1
   104    70    69    1
   105    70    71    1
   106    10     9    1
   107    53    54    1
   108    89    88    1
   109    90    88    1
   110    80    81    1
   111    81    84    1
   112    71    72    2
   113     7     8    1
   114     7     6    1
   115    88    87    2
   116    54    57    1
   117    54    55    1
   118    84    85    1
   119    85    86    1
   120     4     3    2
   121    57    58    1
   122    55    56    2
   123    87    86    1
   124     6     5    1
   125   144   143    2
   126     5     2    1
   127   145   143   am
   128     3     2    1
   129   143   142    1
   130    59    58    1
   131    58    60    1
   132     2     1    1
   133   141   142    1
   134   141   138    1
   135   140   139    2
   136   137   138    1
   137   139   138    1
