@<TRIPOS>MOLECULE
tmp/4timB00.pdb
 102 96 0 0 0
SMALL
GASTEIGER

@<TRIPOS>ATOM
      1  N         39.7140   15.3910  -10.1100 N.3    10  ASN10      -0.1240
      2  CA        40.0230   16.0990   -8.8690 C.3    10  ASN10       0.1653
      3  C         40.1340   17.5280   -9.3100 C.2    10  ASN10       0.2266
      4  O         41.0980   17.9040   -9.9850 O.2    10  ASN10      -0.2867
      5  CB        41.3960   15.6590   -8.2700 C.3    10  ASN10       0.1155
      6  CG        41.8260   16.5180   -7.1240 C.2    10  ASN10       0.2627
      7  OD1       41.0010   17.3270   -6.6460 O.2    10  ASN10      -0.2716
      8  ND2       43.0480   16.3180   -6.6230 N.am   10  ASN10      -0.0877
      9  N         40.2800   20.0270   -7.5740 N.3    12  LYS12      -0.1245
     10  CA        41.0790   20.7990   -6.6430 C.3    12  LYS12       0.1561
     11  C         40.3550   22.0830   -6.3320 C.2    12  LYS12       0.2260
     12  O         39.1330   22.0620   -6.3150 O.2    12  LYS12      -0.2867
     13  CB        42.5280   21.0440   -7.0600 C.3    12  LYS12       0.0271
     14  CG        43.1800   19.8070   -7.6850 C.3    12  LYS12       0.0035
     15  CD        44.6530   19.9800   -8.0300 C.3    12  LYS12       0.0206
     16  CE        45.2950   18.7250   -8.6200 C.3    12  LYS12       0.1093
     17  NZ        46.7240   18.6660   -8.3020 N.3    12  LYS12      -0.1314
     18  N         46.2890   13.7750   -0.1860 N.3    94  HIS94      -0.1241
     19  CA        46.7770   14.3060   -1.4390 C.3    94  HIS94       0.1621
     20  C         48.1210   14.9850   -1.1890 C.2    94  HIS94       0.2264
     21  O         48.3310   15.6050   -0.1260 O.2    94  HIS94      -0.2867
     22  CB        45.7810   15.3450   -1.9920 C.3    94  HIS94       0.0745
     23  CG        46.0900   15.6660   -3.4110 C.ar   94  HIS94       0.0817
     24  ND1       47.0410   16.6100   -3.7500 N.ar   94  HIS94      -0.2268
     25  CD2       45.6590   15.0590   -4.5490 C.ar   94  HIS94       0.1154
     26  CE1       47.2210   16.5000   -5.0620 C.ar   94  HIS94       0.1986
     27  NE2       46.3800   15.5990   -5.5710 N.ar   94  HIS94      -0.2212
     28  N         50.7240    8.7890   -6.9420 N.3   166  GLU166     -0.1245
     29  CA        50.8770   10.0300   -7.6490 C.3   166  GLU166      0.1567
     30  C         52.2300   10.6260   -7.3370 C.2   166  GLU166      0.2260
     31  O         52.4000   11.2760   -6.3210 O.2   166  GLU166     -0.2867
     32  CB        49.6500   10.9700   -7.3570 C.3   166  GLU166      0.0388
     33  CG        49.2810   11.1400   -5.8530 C.3   166  GLU166      0.1160
     34  CD        48.8860   12.5560   -5.4390 C.2   166  GLU166      0.3649
     35  OE1       48.6660   13.4580   -6.2290 O.co2 166  GLU166     -0.2457
     36  OE2       48.7520   12.7370   -4.1430 O.co2 166  GLU166     -0.2457
     37  N         55.3390   14.4140  -10.9550 N.3   170  ALA170     -0.1231
     38  CA        54.4980   14.4300  -12.1290 C.3   170  ALA170      0.1694
     39  C         53.2310   15.2930  -11.9450 C.2   170  ALA170      0.2592
     40  O         52.4940   15.5510  -12.8890 O.2   170  ALA170     -0.2718
     41  CB        54.2150   13.0250  -12.6020 C.3   170  ALA170      0.0304
     42  N         52.9800   15.7440  -10.7060 N.am  171  ILE171     -0.1966
     43  CA        51.8330   16.5690  -10.4130 C.3   171  ILE171      0.1727
     44  C         51.8470   17.9630  -11.0480 C.2   171  ILE171      0.2616
     45  O         52.5730   18.8490  -10.5880 O.2   171  ILE171     -0.2715
     46  CB        51.4790   16.5960   -8.9360 C.3   171  ILE171      0.0290
     47  CG1       51.2000   15.1660   -8.4980 C.3   171  ILE171      0.0022
     48  CG2       50.2210   17.4500   -8.7310 C.3   171  ILE171      0.0023
     49  CD1       51.2690   15.0210   -6.9850 C.3   171  ILE171      0.0001
     50  N         51.0390   18.0940  -12.1280 N.am  172  GLY172     -0.1955
     51  CA        50.8150   19.2910  -12.9190 C.3   172  GLY172      0.1869
     52  C         52.0850   19.9310  -13.4830 C.2   172  GLY172      0.2309
     53  O         52.2340   21.1540  -13.4800 O.2   172  GLY172     -0.2863
     54  N         48.2930    8.8570  -11.0600 N.3   210  GLY210     -0.1210
     55  CA        47.9850   10.2670  -11.0820 C.3   210  GLY210      0.1956
     56  C         49.2160   11.0970  -11.3340 C.2   210  GLY210      0.2612
     57  O         50.2630   10.9080  -10.6790 O.2   210  GLY210     -0.2717
     58  N         49.1080   11.9570  -12.3580 N.am  211  GLY211     -0.1942
     59  CA        50.2270   12.8300  -12.6360 C.3   211  GLY211      0.2014
     60  C         50.3950   13.2150  -14.0890 C.2   211  GLY211      0.2640
     61  O         51.0360   12.5170  -14.8630 O.2   211  GLY211     -0.2714
     62  N         49.8760   14.3900  -14.4320 N.am  212  SER212     -0.1935
     63  CA        49.9550   14.8780  -15.8020 C.3   212  SER212      0.2055
     64  C         49.3660   13.9040  -16.8290 C.2   212  SER212      0.2642
     65  O         49.8490   13.7940  -17.9490 O.2   212  SER212     -0.2714
     66  CB        51.3580   15.3700  -16.1180 C.3   212  SER212      0.2130
     67  OG        51.7450   16.3160  -15.1150 O.3   212  SER212     -0.2179
     68  N         48.2730   13.2240  -16.4250 N.am  213  VAL213     -0.1977
     69  CA        47.5450   12.2990  -17.2880 C.3   213  VAL213      0.1596
     70  C         46.6630   13.1220  -18.1910 C.2   213  VAL213      0.2287
     71  O         45.9810   14.0010  -17.6810 O.2   213  VAL213     -0.2864
     72  CB        46.5960   11.3420  -16.5350 C.3   213  VAL213      0.0276
     73  CG1       45.7890   10.5250  -17.5570 C.3   213  VAL213      0.0022
     74  CG2       47.3240   10.3990  -15.5840 C.3   213  VAL213      0.0022
     75  N         43.5280    9.2480  -11.3800 N.3   231  LEU231     -0.1231
     76  CA        43.2420   10.4340  -10.5880 C.3   231  LEU231      0.1693
     77  C         43.7040   11.5920  -11.4400 C.2   231  LEU231      0.2592
     78  O         44.9000   11.7590  -11.5900 O.2   231  LEU231     -0.2718
     79  CB        44.0530   10.5000   -9.2910 C.3   231  LEU231      0.0284
     80  CG        43.2130   10.9250   -8.0990 C.3   231  LEU231      0.0019
     81  CD1       44.1520   11.6050   -7.1260 C.3   231  LEU231      0.0001
     82  CD2       42.1360   11.9010   -8.5100 C.3   231  LEU231      0.0001
     83  N         42.7760   12.3400  -12.0280 N.am  232  VAL232     -0.1966
     84  CA        43.1310   13.3750  -12.9770 C.3   232  VAL232      0.1727
     85  C         42.9510   14.7820  -12.4540 C.2   232  VAL232      0.2617
     86  O         41.8710   15.1530  -11.9960 O.2   232  VAL232     -0.2715
     87  CB        42.3380   13.1430  -14.2440 C.3   232  VAL232      0.0290
     88  CG1       42.9040   14.0690  -15.2900 C.3   232  VAL232      0.0023
     89  CG2       42.4290   11.6690  -14.6870 C.3   232  VAL232      0.0023
     90  N         44.0130   15.5750  -12.5120 N.am  233  GLY233     -0.1940
     91  CA        43.9290   16.9590  -12.0190 C.3   233  GLY233      0.2014
     92  C         43.5080   17.9770  -13.0890 C.2   233  GLY233      0.2639
     93  O         42.3460   18.0980  -13.4620 O.2   233  GLY233     -0.2714
     94  N         44.5010   18.6610  -13.6650 N.am  234  GLY234     -0.1939
     95  CA        44.2360   19.6550  -14.7080 C.3   234  GLY234      0.2014
     96  C         43.2940   19.2910  -15.8910 C.2   234  GLY234      0.2638
     97  O         42.6210   20.1560  -16.4800 O.2   234  GLY234     -0.2714
     98  N         43.2710   18.0400  -16.3240 N.am  235  ALA235     -0.1977
     99  CA        42.5110   17.6980  -17.5090 C.3   235  ALA235      0.1597
    100  C         41.0750   17.3690  -17.1920 C.2   235  ALA235      0.2287
    101  O         40.2500   17.1430  -18.0910 O.2   235  ALA235     -0.2864
    102  CB        43.1700   16.5870  -18.3260 C.3   235  ALA235      0.0319
@<TRIPOS>BOND
     1   102    99    1
     2    70    71    2
     3    70    69    1
     4   101   100    2
     5    65    64    2
     6    73    72    1
     7    99   100    1
     8    99    98    1
     9    69    72    1
    10    69    68    1
    11    64    68   am
    12    64    63    1
    13    72    74    1
    14    97    96    2
    15    98    96   am
    16    66    63    1
    17    66    67    1
    18    96    95    1
    19    63    62    1
    20    88    87    1
    21    61    60    2
    22    95    94    1
    23    89    87    1
    24    62    60   am
    25    87    84    1
    26    60    59    1
    27    94    92   am
    28    52    53    2
    29    52    51    1
    30    93    92    2
    31    92    91    1
    32    84    85    1
    33    84    83    1
    34    51    50    1
    35    40    39    2
    36    59    58    1
    37    41    38    1
    38    90    85   am
    39    90    91    1
    40    85    86    2
    41    58    56   am
    42    38    39    1
    43    38    37    1
    44    50    44   am
    45    83    77   am
    46    39    42   am
    47    78    77    2
    48    77    76    1
    49    75    76    1
    50    56    55    1
    51    56    57    2
    52    55    54    1
    53    44    45    2
    54    44    43    1
    55    42    43    1
    56    76    79    1
    57    43    46    1
    58     1     2    1
    59     4     3    2
    60     3     2    1
    61    79    80    1
    62    46    48    1
    63    46    47    1
    64     2     5    1
    65    16    17    1
    66    16    15    1
    67    82    80    1
    68    47    49    1
    69     5     6    1
    70    80    81    1
    71    15    14    1
    72    14    13    1
    73    29    32    1
    74    29    30    1
    75    29    28    1
    76     9    10    1
    77    32    33    1
    78    30    31    2
    79     6     7    2
    80     6     8   am
    81    13    10    1
    82    10    11    1
    83    11    12    2
    84    35    34   ar
    85    33    34    1
    86    27    26   ar
    87    27    25   ar
    88    34    36   ar
    89    26    24   ar
    90    25    23   ar
    91    24    23   ar
    92    23    22    1
    93    22    19    1
    94    19    20    1
    95    19    18    1
    96    20    21    2
