@<TRIPOS>MOLECULE
tmp/4tjuD00.pdb
 151 149 0 0 0
SMALL
GASTEIGER

@<TRIPOS>ATOM
      1  N         16.9990   12.3080    3.2370 N.3    66  PHE66      -0.1227
      2  CA        17.1620   11.2470    2.2410 C.3    66  PHE66       0.1736
      3  C         17.7810    9.9960    2.8200 C.2    66  PHE66       0.2595
      4  O         18.4730   10.0350    3.8450 O.2    66  PHE66      -0.2718
      5  CB        17.9640   11.7450    1.0230 C.3    66  PHE66       0.0547
      6  CG        17.3440   12.9120    0.2940 C.ar   66  PHE66      -0.0202
      7  CD1       16.4550   12.7040   -0.7600 C.ar   66  PHE66      -0.0042
      8  CD2       17.6930   14.2180    0.6180 C.ar   66  PHE66      -0.0042
      9  CE1       15.9020   13.7880   -1.4540 C.ar   66  PHE66      -0.0003
     10  CE2       17.1510   15.3000   -0.0850 C.ar   66  PHE66      -0.0003
     11  CZ        16.2480   15.0770   -1.1090 C.ar   66  PHE66      -0.0000
     12  N         17.5280    8.8710    2.1670 N.am   67  HIS67      -0.1961
     13  CA        18.1060    7.5930    2.5360 C.3    67  HIS67       0.1787
     14  C         18.3600    6.8040    1.2710 C.2    67  HIS67       0.2620
     15  O         17.4470    6.6570    0.4430 O.2    67  HIS67      -0.2715
     16  CB        17.1410    6.7710    3.4190 C.3    67  HIS67       0.0785
     17  CG        17.7610    5.5160    3.9360 C.ar   67  HIS67       0.0821
     18  ND1       17.4550    4.2660    3.4040 N.ar   67  HIS67      -0.2267
     19  CD2       18.6600    5.3570    4.9300 C.ar   67  HIS67       0.1154
     20  CE1       18.1540    3.3970    4.1140 C.ar   67  HIS67       0.1986
     21  NE2       18.9400    4.0090    5.0060 N.ar   67  HIS67      -0.2212
     22  N         19.5770    6.3000    1.1630 N.am   68  GLY68      -0.1954
     23  CA        20.0240    5.4370    0.0810 C.3    68  GLY68       0.1869
     24  C         20.2120    4.0330    0.5990 C.2    68  GLY68       0.2309
     25  O         20.8110    3.8350    1.6660 O.2    68  GLY68      -0.2863
     26  N         20.2030   -0.4460   -1.0070 N.3    70  PRO70      -0.2116
     27  CA        19.8030   -1.4430   -2.0200 C.3    70  PRO70       0.1372
     28  C         18.4830   -2.1460   -1.6410 C.2    70  PRO70       0.2244
     29  O         17.9610   -2.9250   -2.4390 O.2    70  PRO70      -0.2868
     30  CB        20.9730   -2.4530   -2.0280 C.3    70  PRO70       0.0268
     31  CG        22.0520   -1.8620   -1.1990 C.3    70  PRO70       0.0207
     32  CD        21.4030   -0.8790   -0.2590 C.3    70  PRO70       0.0892
     33  N         19.0820   -4.8880   11.2450 N.3    84  HIS84      -0.1226
     34  CA        19.9250   -5.0610   10.0560 C.3    84  HIS84       0.1752
     35  C         21.1920   -4.1760   10.0710 C.2    84  HIS84       0.2596
     36  O         22.0100   -4.2470    9.1400 O.2    84  HIS84      -0.2718
     37  CB        19.1060   -4.8900    8.7770 C.3    84  HIS84       0.0759
     38  CG        18.0890   -5.9620    8.6040 C.ar   84  HIS84       0.0818
     39  ND1       18.4580   -7.2850    8.5290 N.ar   84  HIS84      -0.2268
     40  CD2       16.7500   -5.8740    8.4430 C.ar   84  HIS84       0.1154
     41  CE1       17.3330   -7.9670    8.3940 C.ar   84  HIS84       0.1986
     42  NE2       16.2810   -7.1620    8.3450 N.ar   84  HIS84      -0.2212
     43  N         21.3560   -3.3590   11.1450 N.am   85  ALA85      -0.1966
     44  CA        22.4910   -2.4650   11.3680 C.3    85  ALA85       0.1728
     45  C         23.4250   -3.0920   12.4130 C.2    85  ALA85       0.2616
     46  O         22.9770   -3.4840   13.5160 O.2    85  ALA85      -0.2715
     47  CB        21.9980   -1.0930   11.8350 C.3    85  ALA85       0.0334
     48  N         24.7140   -3.1700   12.0660 N.am   86  TYR86      -0.1974
     49  CA        25.7660   -3.7840   12.8810 C.3    86  TYR86       0.1639
     50  C         26.8980   -2.8380   13.2070 C.2    86  TYR86       0.2290
     51  O         27.1020   -1.8550   12.4890 O.2    86  TYR86      -0.2864
     52  CB        26.3400   -5.0130   12.1500 C.3    86  TYR86       0.0560
     53  CG        25.2950   -6.0450   11.7930 C.ar   86  TYR86      -0.0198
     54  CD1       24.9420   -7.0480   12.6910 C.ar   86  TYR86      -0.0009
     55  CD2       24.6410   -6.0070   10.5660 C.ar   86  TYR86      -0.0009
     56  CE1       23.9570   -7.9830   12.3780 C.ar   86  TYR86       0.0417
     57  CE2       23.6630   -6.9410   10.2380 C.ar   86  TYR86       0.0417
     58  CZ        23.3240   -7.9320   11.1460 C.ar   86  TYR86       0.1957
     59  OH        22.3810   -8.8780   10.8060 O.3    86  TYR86      -0.2866
     60  N         29.3280    1.1350   11.0820 N.3    89  GLY89      -0.1210
     61  CA        29.6070    2.2020   10.1320 C.3    89  GLY89       0.1956
     62  C         30.2560    3.3330   10.9050 C.2    89  GLY89       0.2611
     63  O         30.4860    3.1900   12.1120 O.2    89  GLY89      -0.2717
     64  N         30.5350    4.4760   10.2400 N.am   90  MET90      -0.1979
     65  CA        31.1700    5.6650   10.8480 C.3    90  MET90       0.1605
     66  C         30.6560    6.0040   12.2850 C.2    90  MET90       0.2287
     67  O         31.4610    6.3160   13.1710 O.2    90  MET90      -0.2864
     68  CB        31.0550    6.8770    9.8940 C.3    90  MET90       0.0413
     69  CG        31.6420    8.1770   10.4310 C.3    90  MET90       0.0598
     70  SD        33.4490    8.1870   10.6030 S.3    90  MET90      -0.1393
     71  CE        33.9050    9.0380    9.1110 C.3    90  MET90       0.0692
     72  N         23.7010    2.0080   13.4030 N.3    94  GLY94      -0.1225
     73  CA        22.5250    2.8240   13.1880 C.3    94  GLY94       0.1811
     74  C         22.0330    2.8400   11.7620 C.2    94  GLY94       0.2280
     75  O         22.5730    2.1450   10.8880 O.2    94  GLY94      -0.2866
     76  N         21.2420    5.4330    8.6820 N.3    96  TYR96      -0.1227
     77  CA        21.7800    6.7060    8.2330 C.3    96  TYR96       0.1736
     78  C         20.9520    7.4730    7.2240 C.2    96  TYR96       0.2595
     79  O         20.4170    6.8970    6.2700 O.2    96  TYR96      -0.2718
     80  CB        23.1910    6.4630    7.6650 C.3    96  TYR96       0.0548
     81  CG        24.2340    6.0150    8.6630 C.ar   96  TYR96      -0.0200
     82  CD1       24.2270    4.7180    9.1770 C.ar   96  TYR96      -0.0009
     83  CD2       25.2740    6.8590    9.0390 C.ar   96  TYR96      -0.0009
     84  CE1       25.1990    4.2930   10.0810 C.ar   96  TYR96       0.0417
     85  CE2       26.2750    6.4300    9.9070 C.ar   96  TYR96       0.0417
     86  CZ        26.2110    5.1620   10.4540 C.ar   96  TYR96       0.1957
     87  OH        27.1760    4.7540   11.3350 O.3    96  TYR96      -0.2866
     88  N         20.8400    8.7820    7.4500 N.am   97  PHE97      -0.1962
     89  CA        20.0720    9.7020    6.6210 C.3    97  PHE97       0.1771
     90  C         20.9080   10.9280    6.3180 C.2    97  PHE97       0.2619
     91  O         21.9110   11.1700    6.9820 O.2    97  PHE97      -0.2715
     92  CB        18.7440   10.1050    7.2800 C.3    97  PHE97       0.0574
     93  CG        17.8430    8.9340    7.5790 C.ar   97  PHE97      -0.0200
     94  CD1       18.0150    8.1790    8.7430 C.ar   97  PHE97      -0.0042
     95  CD2       16.8330    8.5700    6.6940 C.ar   97  PHE97      -0.0042
     96  CE1       17.2350    7.0470    8.9780 C.ar   97  PHE97      -0.0003
     97  CE2       16.0160    7.4640    6.9590 C.ar   97  PHE97      -0.0003
     98  CZ        16.2320    6.7070    8.0970 C.ar   97  PHE97      -0.0000
     99  N         20.5140   11.6770    5.2850 N.am   98  ALA98      -0.1977
    100  CA        21.2690   12.8570    4.8600 C.3    98  ALA98       0.1597
    101  C         20.3730   13.9800    4.4320 C.2    98  ALA98       0.2287
    102  O         19.3110   13.7390    3.8780 O.2    98  ALA98      -0.2864
    103  CB        22.2090   12.4830    3.7180 C.3    98  ALA98       0.0319
    104  N         24.5760   12.7980   -0.9940 N.3   103  LYS103     -0.1231
    105  CA        25.1990   11.9910    0.0320 C.3   103  LYS103      0.1693
    106  C         24.4790   10.6160    0.0830 C.2   103  LYS103      0.2592
    107  O         25.1410    9.5970   -0.0030 O.2   103  LYS103     -0.2718
    108  CB        25.1770   12.6850    1.4010 C.3   103  LYS103      0.0285
    109  CG        25.8910   11.8680    2.4850 C.3   103  LYS103      0.0035
    110  CD        27.3990   11.9750    2.2860 C.3   103  LYS103      0.0206
    111  CE        28.2420   11.0510    3.1070 C.3   103  LYS103      0.1093
    112  NZ        29.6570   11.1390    2.6420 N.3   103  LYS103     -0.1314
    113  N         23.1340   10.6010    0.0790 N.am  104  SER104     -0.1952
    114  CA        22.3710    9.3350    0.1300 C.3   104  SER104      0.1924
    115  C         22.5610    8.5400   -1.1340 C.2   104  SER104      0.2314
    116  O         22.5800    7.3030   -1.1120 O.2   104  SER104     -0.2863
    117  CB        20.8980    9.6170    0.3720 C.3   104  SER104      0.2116
    118  OG        20.7510   10.1400    1.6780 O.3   104  SER104     -0.2180
    119  N         24.9580    5.7200   -1.2070 N.3   107  TYR107     -0.1241
    120  CA        24.5800    4.4680   -0.5360 C.3   107  TYR107      0.1605
    121  C         23.5180    3.6030   -1.2180 C.2   107  TYR107      0.2264
    122  O         23.1850    2.5350   -0.7110 O.2   107  TYR107     -0.2867
    123  CB        24.2700    4.7580    0.9230 C.3   107  TYR107      0.0534
    124  CG        25.5210    5.2290    1.6340 C.ar  107  TYR107     -0.0201
    125  CD1       26.4710    4.3180    2.0830 C.ar  107  TYR107     -0.0009
    126  CD2       25.8290    6.5860    1.7220 C.ar  107  TYR107     -0.0009
    127  CE1       27.6590    4.7420    2.6810 C.ar  107  TYR107      0.0417
    128  CE2       27.0280    7.0230    2.2950 C.ar  107  TYR107      0.0417
    129  CZ        27.9290    6.0950    2.7980 C.ar  107  TYR107      0.1957
    130  OH        29.0980    6.4990    3.4110 O.3   107  TYR107     -0.2866
    131  N         25.0530    0.2390   -2.0390 N.3   110  GLY110     -0.1210
    132  CA        25.7750   -0.3160   -0.8990 C.3   110  GLY110      0.1956
    133  C         26.7100    0.6880   -0.2680 C.2   110  GLY110      0.2611
    134  O         26.7210    1.8570   -0.6660 O.2   110  GLY110     -0.2717
    135  N         27.5070    0.2400    0.7330 N.am  111  ILE111     -0.1979
    136  CA        28.4860    1.0800    1.4340 C.3   111  ILE111      0.1595
    137  C         29.5370    1.5430    0.4270 C.2   111  ILE111      0.2287
    138  O         30.0780    0.7160   -0.2940 O.2   111  ILE111     -0.2864
    139  CB        29.1630    0.3430    2.6350 C.3   111  ILE111      0.0276
    140  CG1       28.1170   -0.1950    3.6210 C.3   111  ILE111      0.0022
    141  CG2       30.1430    1.2890    3.3620 C.3   111  ILE111      0.0022
    142  CD1       28.6350   -1.3220    4.5860 C.3   111  ILE111      0.0001
    143  N         25.0860   14.3600    8.3020 N.3   166  GLU166     -0.1245
    144  CA        24.4090   13.0700    8.2950 C.3   166  GLU166      0.1567
    145  C         23.7420   12.8490    9.6420 C.2   166  GLU166      0.2260
    146  O         24.1630   13.4280   10.6520 O.2   166  GLU166     -0.2867
    147  CB        25.3000   11.8950    7.8760 C.3   166  GLU166      0.0388
    148  CG        26.5710   11.6410    8.6780 C.3   166  GLU166      0.1160
    149  CD        27.5370   10.7200    7.9530 C.2   166  GLU166      0.3649
    150  OE1       27.8550    9.6430    8.5090 O.co2 166  GLU166     -0.2457
    151  OE2       27.9190   11.0420    6.8020 O.co2 166  GLU166     -0.2457
@<TRIPOS>BOND
     1    29    28    2
     2   131   132    1
     3    30    27    1
     4    30    31    1
     5    27    28    1
     6    27    26    1
     7     9    11   ar
     8     9     7   ar
     9   121   122    2
    10   121   120    1
    11   119   120    1
    12    31    32    1
    13   115   116    2
    14   115   114    1
    15    11    10   ar
    16    26    32    1
    17   104   105    1
    18   132   133    1
    19     7     6   ar
    20   134   133    2
    21   120   123    1
    22   138   137    2
    23   133   135   am
    24    10     8   ar
    25   107   106    2
    26   105   106    1
    27   105   108    1
    28   113   106   am
    29   113   114    1
    30    23    24    1
    31    23    22    1
    32   114   117    1
    33     6     8   ar
    34     6     5    1
    35   117   118    1
    36   137   136    1
    37    15    14    2
    38    24    25    2
    39   135   136    1
    40   123   124    1
    41     5     2    1
    42    22    14   am
    43    14    13    1
    44   108   109    1
    45   136   139    1
    46   124   126   ar
    47   124   125   ar
    48   126   128   ar
    49   125   127   ar
    50    12    13    1
    51    12     3   am
    52     2     3    1
    53     2     1    1
    54   110   109    1
    55   110   111    1
    56   128   129   ar
    57    13    16    1
    58   139   141    1
    59   139   140    1
    60   112   111    1
    61   127   129   ar
    62   129   130    1
    63     3     4    2
    64    18    17   ar
    65    18    20   ar
    66    16    17    1
    67   140   142    1
    68   103   100    1
    69   102   101    2
    70    17    19   ar
    71    20    21   ar
    72   101   100    1
    73   100    99    1
    74    19    21   ar
    75    99    90   am
    76    79    78    2
    77    90    89    1
    78    90    91    2
    79    89    92    1
    80    89    88    1
    81    95    97   ar
    82    95    93   ar
    83   151   149   ar
    84    97    98   ar
    85    78    88   am
    86    78    77    1
    87    92    93    1
    88    93    94   ar
    89    80    77    1
    90    80    81    1
    91   147   144    1
    92   147   148    1
    93   149   150   ar
    94   149   148    1
    95    98    96   ar
    96    77    76    1
    97   144   143    1
    98   144   145    1
    99    42    41   ar
   100    42    40   ar
   101    41    39   ar
   102    40    38   ar
   103    39    38   ar
   104    38    37    1
   105    81    83   ar
   106    81    82   ar
   107    94    96   ar
   108    37    34    1
   109    83    85   ar
   110    71    70    1
   111    36    35    2
   112    82    84   ar
   113   145   146    2
   114    68    69    1
   115    68    65    1
   116    85    86   ar
   117    34    35    1
   118    34    33    1
   119    35    43   am
   120    84    86   ar
   121    61    62    1
   122    61    60    1
   123    57    55   ar
   124    57    58   ar
   125    64    65    1
   126    64    62   am
   127    69    70    1
   128    86    87    1
   129    55    53   ar
   130    59    58    1
   131    65    66    1
   132    75    74    2
   133    62    63    2
   134    43    44    1
   135    58    56   ar
   136    44    47    1
   137    44    45    1
   138    74    73    1
   139    53    52    1
   140    53    54   ar
   141    48    45   am
   142    48    49    1
   143    52    49    1
   144    66    67    2
   145    56    54   ar
   146    45    46    2
   147    51    50    2
   148    49    50    1
   149    73    72    1
