@<TRIPOS>MOLECULE
tmp/4tjxA00.pdb
 89 89 0 0 0
SMALL
GASTEIGER

@<TRIPOS>ATOM
      1  N         11.2630   40.4080   11.1160 N.3    73  ARG73      -0.1231
      2  CA        11.2630   40.8870   12.4940 C.3    73  ARG73       0.1694
      3  C         11.4880   42.4010   12.4860 C.2    73  ARG73       0.2593
      4  O         12.1570   42.9250   11.5900 O.2    73  ARG73      -0.2718
      5  CB        12.3750   40.1880   13.2840 C.3    73  ARG73       0.0321
      6  CG        12.4800   40.5990   14.7430 C.3    73  ARG73       0.0489
      7  CD        13.7180   40.0090   15.4060 C.3    73  ARG73       0.2205
      8  NE        13.7210   40.2800   16.8440 N.pl3  73  ARG73      -0.0865
      9  CZ        14.7070   39.9740   17.6750 C.cat  73  ARG73       0.5346
     10  NH1       15.8180   39.4120   17.2180 N.pl3  73  ARG73       0.1354
     11  NH2       14.5820   40.2600   18.9720 N.pl3  73  ARG73       0.1354
     12  N         10.9090   43.0990   13.4600 N.am   74  GLY74      -0.1942
     13  CA        11.2120   44.5100   13.6810 C.3    74  GLY74       0.2014
     14  C          9.9910   45.4110   13.8350 C.2    74  GLY74       0.2639
     15  O          8.9110   45.0710   13.3610 O.2    74  GLY74      -0.2714
     16  N         10.1790   46.5400   14.5260 N.am   75  ASP75      -0.1957
     17  CA         9.2080   47.6490   14.5920 C.3    75  ASP75       0.1840
     18  C          7.9580   47.4470   15.4500 C.2    75  ASP75       0.2622
     19  O          7.4200   48.4180   15.9800 O.2    75  ASP75      -0.2715
     20  CB         8.7880   48.1130   13.1950 C.3    75  ASP75       0.1450
     21  CG         9.9300   48.7340   12.4180 C.2    75  ASP75       0.3671
     22  OD1       11.0700   48.7210   12.9190 O.co2  75  ASP75      -0.2456
     23  OD2        9.6830   49.2230   11.2980 O.co2  75  ASP75      -0.2456
     24  N          7.4740   46.2130   15.5670 N.am   76  CYS76      -0.1954
     25  CA         6.2730   45.9690   16.3590 C.3    76  CYS76       0.1843
     26  C          6.3300   44.6160   17.0650 C.2    76  CYS76       0.2625
     27  O          7.2490   43.8300   16.8410 O.2    76  CYS76      -0.2714
     28  CB         5.0140   46.0560   15.4790 C.3    76  CYS76       0.0997
     29  SG         4.9350   44.8570   14.1170 S.3    76  CYS76      -0.0797
     30  N          5.3460   44.3610   17.9260 N.am   77  TYR77      -0.1960
     31  CA         5.2840   43.1280   18.7050 C.3    77  TYR77       0.1771
     32  C          5.1010   41.9400   17.7680 C.2    77  TYR77       0.2619
     33  O          4.3810   42.0590   16.7870 O.2    77  TYR77      -0.2715
     34  CB         4.0910   43.1580   19.6490 C.3    77  TYR77       0.0574
     35  CG         4.2200   44.0970   20.8210 C.ar   77  TYR77      -0.0198
     36  CD1        5.3660   44.1160   21.6070 C.ar   77  TYR77      -0.0009
     37  CD2        3.1830   44.9590   21.1500 C.ar   77  TYR77      -0.0009
     38  CE1        5.4690   44.9720   22.6940 C.ar   77  TYR77       0.0417
     39  CE2        3.2840   45.8170   22.2340 C.ar   77  TYR77       0.0417
     40  CZ         4.4230   45.8190   22.9970 C.ar   77  TYR77       0.1957
     41  OH         4.5050   46.6830   24.0690 O.3    77  TYR77      -0.2866
     42  N          5.7590   40.8160   18.0670 N.am   78  PHE78      -0.1974
     43  CA         5.5490   39.5740   17.3210 C.3    78  PHE78       0.1639
     44  C          4.0570   39.1690   17.2770 C.2    78  PHE78       0.2290
     45  O          3.5720   38.7160   16.2440 O.2    78  PHE78      -0.2864
     46  CB         6.3390   38.4270   17.9460 C.3    78  PHE78       0.0560
     47  CG         7.8340   38.5630   17.8290 C.ar   78  PHE78      -0.0200
     48  CD1        8.4420   38.7040   16.5880 C.ar   78  PHE78      -0.0042
     49  CD2        8.6380   38.4990   18.9600 C.ar   78  PHE78      -0.0042
     50  CE1        9.8300   38.8020   16.4830 C.ar   78  PHE78      -0.0003
     51  CE2       10.0210   38.6040   18.8630 C.ar   78  PHE78      -0.0003
     52  CZ        10.6150   38.7540   17.6200 C.ar   78  PHE78      -0.0000
     53  N         15.4530   32.3080   18.6120 N.3   104  ILE104     -0.1231
     54  CA        14.8970   32.7890   19.8650 C.3   104  ILE104      0.1692
     55  C         13.3940   32.4820   19.9260 C.2   104  ILE104      0.2592
     56  O         12.7500   32.2210   18.9040 O.2   104  ILE104     -0.2718
     57  CB        15.0700   34.3120   20.0130 C.3   104  ILE104      0.0266
     58  CG1       14.3570   35.0300   18.8690 C.3   104  ILE104      0.0019
     59  CG2       16.5400   34.6940   20.0550 C.3   104  ILE104      0.0020
     60  CD1       14.2540   36.5280   19.0540 C.3   104  ILE104      0.0001
     61  N         12.8390   32.5270   21.1310 N.am  105  THR105     -0.1953
     62  CA        11.4040   32.3530   21.3060 C.3   105  THR105      0.1897
     63  C         10.7100   33.7060   21.2220 C.2   105  THR105      0.2313
     64  O         11.0760   34.6520   21.9300 O.2   105  THR105     -0.2863
     65  CB        11.0900   31.7010   22.6640 C.3   105  THR105      0.1794
     66  OG1       11.6770   30.4000   22.7110 O.3   105  THR105     -0.2208
     67  CG2        9.5880   31.5780   22.8860 C.3   105  THR105      0.0378
     68  N          8.0530   35.9160   22.3930 N.3   107  ASP107     -0.1225
     69  CA         7.1870   35.9690   23.5590 C.3   107  ASP107      0.1805
     70  C          6.0430   36.9470   23.3210 C.2   107  ASP107      0.2598
     71  O          6.0460   37.6920   22.3410 O.2   107  ASP107     -0.2718
     72  CB         7.9910   36.3660   24.8000 C.3   107  ASP107      0.1424
     73  CG         7.3030   35.9690   26.0900 C.2   107  ASP107      0.3668
     74  OD1        6.2740   35.2640   26.0230 O.co2 107  ASP107     -0.2456
     75  OD2        7.7910   36.3630   27.1640 O.co2 107  ASP107     -0.2456
     76  N          5.0530   36.9140   24.2080 N.am  108  THR108     -0.1939
     77  CA         3.9420   37.8530   24.1730 C.3   108  THR108      0.2013
     78  C          4.3970   39.1220   24.8910 C.2   108  THR108      0.2481
     79  O          5.3150   39.0640   25.7030 O.2   108  THR108     -0.2729
     80  CB         2.7110   37.2700   24.8760 C.3   108  THR108      0.1807
     81  OG1        3.0570   36.9160   26.2180 O.3   108  THR108     -0.2208
     82  CG2        2.1980   36.0370   24.1370 C.3   108  THR108      0.0379
     83  N          3.7710   40.2730   24.5890 N.am  109  PRO109     -0.2771
     84  CA         4.1570   41.5140   25.2690 C.3   109  PRO109      0.1083
     85  C          4.0560   41.3940   26.7810 C.3   109  PRO109      0.2017
     86  O          3.0610   40.7960   27.1780 O.3   109  PRO109     -0.2186
     87  CB         3.1230   42.5160   24.7630 C.3   109  PRO109      0.0243
     88  CG         2.7190   41.9830   23.4330 C.3   109  PRO109      0.0233
     89  CD         2.7090   40.5040   23.5950 C.3   109  PRO109      0.0935
@<TRIPOS>BOND
     1     1     2    1
     2    23    21   ar
     3     4     3    2
     4    21    22   ar
     5    21    20    1
     6     3     2    1
     7     3    12   am
     8     2     5    1
     9    20    17    1
    10     5     6    1
    11    15    14    2
    12    12    13    1
    13    13    14    1
    14    14    16   am
    15    29    28    1
    16    16    17    1
    17    17    18    1
    18     6     7    1
    19     7     8    1
    20    18    24   am
    21    18    19    2
    22    28    25    1
    23    24    25    1
    24    45    44    2
    25    25    26    1
    26    50    48   ar
    27    50    52   ar
    28    48    47   ar
    29    33    32    2
    30    27    26    2
    31     8     9    2
    32    26    30   am
    33    10     9    1
    34    44    43    1
    35    43    46    1
    36    43    42    1
    37    52    51   ar
    38     9    11    1
    39    32    42   am
    40    32    31    1
    41    47    46    1
    42    47    49   ar
    43    30    31    1
    44    53    54    1
    45    31    34    1
    46    51    49   ar
    47    58    60    1
    48    58    57    1
    49    56    55    2
    50    34    35    1
    51    54    55    1
    52    54    57    1
    53    55    61   am
    54    57    59    1
    55    35    37   ar
    56    35    36   ar
    57    61    62    1
    58    37    39   ar
    59    63    62    1
    60    63    64    2
    61    62    65    1
    62    36    38   ar
    63    39    40   ar
    64    71    70    2
    65    68    69    1
    66    65    66    1
    67    65    67    1
    68    38    40   ar
    69    40    41    1
    70    70    69    1
    71    70    76   am
    72    88    89    1
    73    88    87    1
    74    69    72    1
    75    89    83    1
    76    82    80    1
    77    77    76    1
    78    77    80    1
    79    77    78    1
    80    83    78   am
    81    83    84    1
    82    87    84    1
    83    72    73    1
    84    80    81    1
    85    78    79    2
    86    84    85    1
    87    74    73   ar
    88    73    75   ar
    89    85    86    1
