@<TRIPOS>MOLECULE
tmp/4tjyA00.pdb
 118 113 0 0 0
SMALL
GASTEIGER

@<TRIPOS>ATOM
      1  N         18.0510   48.9580   -3.1890 N.3    70  HIS70      -0.1226
      2  CA        18.8610   47.8300   -2.7160 C.3    70  HIS70       0.1752
      3  C         19.2970   47.0410   -3.9450 C.2    70  HIS70       0.2596
      4  O         18.4610   46.6580   -4.7520 O.2    70  HIS70      -0.2718
      5  CB        18.0800   46.9220   -1.7460 C.3    70  HIS70       0.0759
      6  CG        18.9040   45.7670   -1.2260 C.ar   70  HIS70       0.0818
      7  ND1       19.8200   45.9300   -0.1830 N.ar   70  HIS70      -0.2268
      8  CD2       18.9520   44.4830   -1.6440 C.ar   70  HIS70       0.1154
      9  CE1       20.3700   44.7410    0.0040 C.ar   70  HIS70       0.1986
     10  NE2       19.8450   43.8260   -0.8190 N.ar   70  HIS70      -0.2212
     11  N         20.5950   46.8170   -4.0740 N.am   71  GLY71      -0.1957
     12  CA        21.1530   46.0370   -5.1710 C.3    71  GLY71       0.1869
     13  C         21.7220   44.7560   -4.6080 C.2    71  GLY71       0.2309
     14  O         22.3770   44.7730   -3.5510 O.2    71  GLY71      -0.2863
     15  N         27.0500   39.6720    7.1860 N.3    89  TYR89      -0.1241
     16  CA        28.2540   39.4180    7.9890 C.3    89  TYR89       0.1605
     17  C         28.9930   40.6840    8.4080 C.2    89  TYR89       0.2264
     18  O         28.8970   41.7220    7.7550 O.2    89  TYR89      -0.2867
     19  CB        29.1560   38.3060    7.4020 C.3    89  TYR89       0.0534
     20  CG        28.4050   37.0020    7.2120 C.ar   89  TYR89      -0.0201
     21  CD1       28.2450   36.1030    8.2660 C.ar   89  TYR89      -0.0009
     22  CD2       27.7840   36.7030    6.0010 C.ar   89  TYR89      -0.0009
     23  CE1       27.5020   34.9310    8.1120 C.ar   89  TYR89       0.0417
     24  CE2       27.0310   35.5400    5.8400 C.ar   89  TYR89       0.0417
     25  CZ        26.8970   34.6550    6.8960 C.ar   89  TYR89       0.1957
     26  OH        26.1860   33.4960    6.7200 O.3    89  TYR89      -0.2866
     27  N         31.2060   44.3240    6.6770 N.3    92  GLY92      -0.1210
     28  CA        30.7550   45.5750    6.0620 C.3    92  GLY92       0.1956
     29  C         31.1400   46.8130    6.8590 C.2    92  GLY92       0.2611
     30  O         31.4450   46.7030    8.0490 O.2    92  GLY92      -0.2717
     31  N         31.1300   48.0020    6.2150 N.am   93  MET93      -0.1979
     32  CA        31.5020   49.2700    6.8710 C.3    93  MET93       0.1605
     33  C         30.7940   49.4910    8.2200 C.2    93  MET93       0.2287
     34  O         31.4090   49.9850    9.1840 O.2    93  MET93      -0.2864
     35  CB        31.2410   50.4660    5.9480 C.3    93  MET93       0.0413
     36  CG        31.7610   51.7440    6.5380 C.3    93  MET93       0.0598
     37  SD        31.5500   53.1750    5.4960 S.3    93  MET93      -0.1393
     38  CE        32.3310   54.4330    6.5830 C.3    93  MET93       0.0692
     39  N         29.1230   46.9200    9.7810 N.3    95  GLY95      -0.1225
     40  CA        28.9130   45.5720   10.3010 C.3    95  GLY95       0.1811
     41  C         27.8280   44.7620    9.6050 C.2    95  GLY95       0.2280
     42  O         27.5190   44.9680    8.4240 O.2    95  GLY95      -0.2866
     43  N         24.7410   44.2330    8.7600 N.3    97  GLY97      -0.1225
     44  CA        23.4390   44.7820    8.4380 C.3    97  GLY97       0.1811
     45  C         23.0460   44.5650    6.9960 C.2    97  GLY97       0.2280
     46  O         23.7590   43.9110    6.2290 O.2    97  GLY97      -0.2866
     47  N         22.0480   46.7420    3.7410 N.3    99  TYR99      -0.1227
     48  CA        22.3990   48.0840    3.2800 C.3    99  TYR99       0.1736
     49  C         21.5240   48.5950    2.1860 C.2    99  TYR99       0.2595
     50  O         21.1640   47.8450    1.2680 O.2    99  TYR99      -0.2718
     51  CB        23.8790   48.0830    2.8090 C.3    99  TYR99       0.0548
     52  CG        24.8920   47.8810    3.9220 C.ar   99  TYR99      -0.0200
     53  CD1       25.0120   46.6470    4.5710 C.ar   99  TYR99      -0.0009
     54  CD2       25.7950   48.8810    4.2560 C.ar   99  TYR99      -0.0009
     55  CE1       25.9640   46.4450    5.5700 C.ar   99  TYR99       0.0417
     56  CE2       26.7670   48.6860    5.2480 C.ar   99  TYR99       0.0417
     57  CZ        26.8370   47.4710    5.9090 C.ar   99  TYR99       0.1957
     58  OH        27.7880   47.2850    6.8850 O.3    99  TYR99      -0.2866
     59  N         21.2120   49.9020    2.2620 N.am  100  PHE100     -0.1962
     60  CA        20.3640   50.5870    1.2740 C.3   100  PHE100      0.1771
     61  C         20.9780   51.9380    0.9040 C.2   100  PHE100      0.2619
     62  O         21.7510   52.5140    1.6720 O.2   100  PHE100     -0.2715
     63  CB        18.9330   50.8070    1.8330 C.3   100  PHE100      0.0574
     64  CG        18.2070   49.5240    2.1850 C.ar  100  PHE100     -0.0200
     65  CD1       18.4130   48.9000    3.4120 C.ar  100  PHE100     -0.0042
     66  CD2       17.3280   48.9310    1.2800 C.ar  100  PHE100     -0.0042
     67  CE1       17.7640   47.6920    3.7230 C.ar  100  PHE100     -0.0003
     68  CE2       16.6510   47.7410    1.6060 C.ar  100  PHE100     -0.0003
     69  CZ        16.8820   47.1200    2.8240 C.ar  100  PHE100     -0.0000
     70  N         20.6170   52.4390   -0.2590 N.am  101  ALA101     -0.1977
     71  CA        21.0990   53.7260   -0.7580 C.3   101  ALA101      0.1597
     72  C         19.9470   54.6350   -1.1560 C.2   101  ALA101      0.2287
     73  O         18.9130   54.1560   -1.6220 O.2   101  ALA101     -0.2864
     74  CB        21.9930   53.4830   -1.9880 C.3   101  ALA101      0.0319
     75  N         24.4480   53.9440   -6.6450 N.3   106  LYS106     -0.1231
     76  CA        25.2300   53.3260   -5.5680 C.3   106  LYS106      0.1693
     77  C         24.7850   51.8490   -5.4120 C.2   106  LYS106      0.2592
     78  O         25.6320   50.9530   -5.3790 O.2   106  LYS106     -0.2718
     79  CB        25.0950   54.1250   -4.2470 C.3   106  LYS106      0.0285
     80  CG        25.8650   53.4980   -3.0780 C.3   106  LYS106      0.0035
     81  CD        26.0720   54.4830   -1.9470 C.3   106  LYS106      0.0206
     82  CE        26.8980   53.8530   -0.8420 C.3   106  LYS106      0.1093
     83  NZ        27.1880   54.8300    0.2560 N.3   106  LYS106     -0.1314
     84  N         23.4560   51.5890   -5.3610 N.am  107  SER107     -0.1952
     85  CA        22.9200   50.2250   -5.2760 C.3   107  SER107      0.1924
     86  C         23.2660   49.3910   -6.5170 C.2   107  SER107      0.2314
     87  O         23.4910   48.1760   -6.4040 O.2   107  SER107     -0.2863
     88  CB        21.4070   50.2690   -5.0890 C.3   107  SER107      0.2116
     89  OG        21.1550   50.6660   -3.7490 O.3   107  SER107     -0.2180
     90  N         26.2280   46.9600   -6.5820 N.3   110  TYR110     -0.1241
     91  CA        26.1000   45.7000   -5.8360 C.3   110  TYR110      0.1605
     92  C         25.2590   44.6220   -6.4890 C.2   110  TYR110      0.2264
     93  O         25.1760   43.5100   -5.9570 O.2   110  TYR110     -0.2867
     94  CB        25.6020   45.9980   -4.4150 C.3   110  TYR110      0.0534
     95  CG        26.5940   46.8820   -3.6960 C.ar  110  TYR110     -0.0201
     96  CD1       27.8210   46.3790   -3.2610 C.ar  110  TYR110     -0.0009
     97  CD2       26.3530   48.2430   -3.5270 C.ar  110  TYR110     -0.0009
     98  CE1       28.7800   47.2090   -2.6820 C.ar  110  TYR110      0.0417
     99  CE2       27.3050   49.0800   -2.9270 C.ar  110  TYR110      0.0417
    100  CZ        28.5140   48.5540   -2.5020 C.ar  110  TYR110      0.1957
    101  OH        29.4650   49.3430   -1.8950 O.3   110  TYR110     -0.2866
    102  N         29.8170   42.0670   -4.4960 N.3   114  ILE114     -0.1245
    103  CA        30.6240   43.0950   -3.8090 C.3   114  ILE114      0.1561
    104  C         31.5890   43.6930   -4.8280 C.2   114  ILE114      0.2260
    105  O         32.2780   42.9540   -5.5270 O.2   114  ILE114     -0.2867
    106  CB        31.3570   42.5430   -2.5440 C.3   114  ILE114      0.0252
    107  CG1       30.3900   41.8090   -1.6040 C.3   114  ILE114      0.0019
    108  CG2       32.0910   43.6460   -1.7850 C.3   114  ILE114      0.0019
    109  CD1       30.8580   40.4480   -1.2980 C.3   114  ILE114      0.0001
    110  N         24.3460   56.0590    3.1060 N.3   177  GLU177     -0.1245
    111  CA        23.8890   54.6760    3.1110 C.3   177  GLU177      0.1567
    112  C         23.1040   54.4480    4.3940 C.2   177  GLU177      0.2260
    113  O         23.2840   55.1950    5.3550 O.2   177  GLU177     -0.2867
    114  CB        24.9870   53.6380    2.8660 C.3   177  GLU177      0.0388
    115  CG        26.1080   53.5990    3.8980 C.3   177  GLU177      0.1160
    116  CD        27.2520   52.7580    3.3730 C.2   177  GLU177      0.3649
    117  OE1       27.7640   53.0730    2.2760 O.co2 177  GLU177     -0.2457
    118  OE2       27.5730   51.7280    4.0030 O.co2 177  GLU177     -0.2457
@<TRIPOS>BOND
     1    75    76    1
     2    90    91    1
     3    86    87    2
     4    86    85    1
     5    92    93    2
     6    92    91    1
     7    91    94    1
     8    76    77    1
     9    76    79    1
    10   105   104    2
    11    77    78    2
    12    77    84   am
    13    84    85    1
    14    85    88    1
    15    12    13    1
    16    12    11    1
    17    88    89    1
    18   104   103    1
    19     4     3    2
    20    13    14    2
    21   102   103    1
    22    94    95    1
    23    79    80    1
    24    11     3   am
    25     3     2    1
    26   103   106    1
    27    95    97   ar
    28    95    96   ar
    29    97    99   ar
    30    96    98   ar
    31     1     2    1
    32    80    81    1
    33    99   100   ar
    34     2     5    1
    35    98   100   ar
    36   106   108    1
    37   106   107    1
    38   100   101    1
    39    74    71    1
    40    81    82    1
    41     5     6    1
    42     8     6   ar
    43     8    10   ar
    44    73    72    2
    45   107   109    1
    46     6     7   ar
    47    72    71    1
    48    82    83    1
    49    10     9   ar
    50    71    70    1
    51    70    61   am
    52     7     9   ar
    53    61    60    1
    54    61    62    2
    55    50    49    2
    56    60    63    1
    57    60    59    1
    58    66    68   ar
    59    66    64   ar
    60    68    69   ar
    61    63    64    1
    62    64    65   ar
    63    49    59   am
    64    49    48    1
    65   117   116   ar
    66    51    48    1
    67    51    52    1
    68    69    67   ar
    69   114   111    1
    70   114   115    1
    71   110   111    1
    72   111   112    1
    73    48    47    1
    74   116   115    1
    75   116   118   ar
    76    65    67   ar
    77    52    54   ar
    78    52    53   ar
    79    54    56   ar
    80   112   113    2
    81    53    55   ar
    82    56    57   ar
    83    37    36    1
    84    37    38    1
    85    55    57   ar
    86    24    22   ar
    87    24    25   ar
    88    57    58    1
    89    35    36    1
    90    35    32    1
    91    22    20   ar
    92    28    27    1
    93    28    29    1
    94    31    29   am
    95    31    32    1
    96    46    45    2
    97    26    25    1
    98    29    30    2
    99    32    33    1
   100    25    23   ar
   101    45    44    1
   102    15    16    1
   103    20    19    1
   104    20    21   ar
   105    19    16    1
   106    18    17    2
   107    16    17    1
   108    23    21   ar
   109    33    34    2
   110    42    41    2
   111    44    43    1
   112    41    40    1
   113    39    40    1
