@<TRIPOS>MOLECULE
tmp/4tk0B00.pdb
 133 130 0 0 0
SMALL
GASTEIGER

@<TRIPOS>ATOM
      1  N         17.2480   -9.1480   38.3310 N.3    76  HIS76      -0.1226
      2  CA        18.1730   -8.1320   37.8570 C.3    76  HIS76       0.1752
      3  C         18.8360   -7.4870   39.0610 C.2    76  HIS76       0.2596
      4  O         18.1500   -6.9650   39.9250 O.2    76  HIS76      -0.2718
      5  CB        17.4540   -7.0610   37.0080 C.3    76  HIS76       0.0759
      6  CG        18.3930   -6.0520   36.4130 C.ar   76  HIS76       0.0818
      7  ND1       19.0820   -6.3120   35.2290 N.ar   76  HIS76      -0.2268
      8  CD2       18.7550   -4.8280   36.8740 C.ar   76  HIS76       0.1154
      9  CE1       19.8280   -5.2350   35.0050 C.ar   76  HIS76       0.1986
     10  NE2       19.6580   -4.3140   35.9690 N.ar   76  HIS76      -0.2212
     11  N         20.1580   -7.4930   39.0790 N.am   77  GLY77      -0.1957
     12  CA        20.9490   -6.8470   40.1220 C.3    77  GLY77       0.1869
     13  C         21.6510   -5.6400   39.5470 C.2    77  GLY77       0.2309
     14  O         22.1930   -5.7060   38.4440 O.2    77  GLY77      -0.2863
     15  N         22.0680    2.9780   28.4890 N.3    93  HIS93      -0.1226
     16  CA        23.0660    2.8040   29.5370 C.3    93  HIS93       0.1752
     17  C         23.8340    1.4900   29.3610 C.2    93  HIS93       0.2596
     18  O         24.6890    1.1780   30.1960 O.2    93  HIS93      -0.2718
     19  CB        22.4280    2.9040   30.9370 C.3    93  HIS93       0.0759
     20  CG        21.9250    4.2750   31.2400 C.ar   93  HIS93       0.0818
     21  ND1       22.7800    5.3610   31.2970 N.ar   93  HIS93      -0.2268
     22  CD2       20.6660    4.7030   31.4660 C.ar   93  HIS93       0.1154
     23  CE1       22.0140    6.4040   31.5540 C.ar   93  HIS93       0.1986
     24  NE2       20.7370    6.0630   31.6330 N.ar   93  HIS93      -0.2212
     25  N         23.5660    0.7440   28.2560 N.am   94  ALA94      -0.1966
     26  CA        24.2380   -0.5180   27.9100 C.3    94  ALA94       0.1728
     27  C         25.2410   -0.2860   26.7460 C.2    94  ALA94       0.2616
     28  O         24.8930    0.3290   25.7210 O.2    94  ALA94      -0.2715
     29  CB        23.2130   -1.5520   27.4930 C.3    94  ALA94       0.0334
     30  N         26.4870   -0.7520   26.9370 N.am   95  TYR95      -0.1974
     31  CA        27.5970   -0.6960   25.9800 C.3    95  TYR95       0.1639
     32  C         28.1700   -2.0840   25.6530 C.2    95  TYR95       0.2290
     33  O         27.8620   -3.0420   26.3040 O.2    95  TYR95      -0.2864
     34  CB        28.7120    0.2390   26.4940 C.3    95  TYR95       0.0560
     35  CG        28.2050    1.5990   26.8410 C.ar   95  TYR95      -0.0198
     36  CD1       28.2290    2.6430   25.9300 C.ar   95  TYR95      -0.0009
     37  CD2       27.6330    1.8350   28.0580 C.ar   95  TYR95      -0.0009
     38  CE1       27.7100    3.8750   26.2580 C.ar   95  TYR95       0.0417
     39  CE2       27.1210    3.0450   28.3790 C.ar   95  TYR95       0.0417
     40  CZ        27.1580    4.0530   27.4920 C.ar   95  TYR95       0.1957
     41  OH        26.6540    5.2140   27.8920 O.3    95  TYR95      -0.2866
     42  N         30.7190   -4.2410   25.8990 N.3    97  GLY97      -0.1210
     43  CA        31.5140   -5.2400   26.6060 C.3    97  GLY97       0.1956
     44  C         30.9890   -6.2640   27.6160 C.2    97  GLY97       0.2612
     45  O         31.5200   -6.3700   28.7070 O.2    97  GLY97      -0.2717
     46  N         29.9400   -7.0050   27.2780 N.am   98  GLY98      -0.1942
     47  CA        29.4050   -8.0370   28.1350 C.3    98  GLY98       0.2014
     48  C         29.3140   -9.1260   27.1280 C.2    98  GLY98       0.2638
     49  O         29.4330   -8.8270   25.9870 O.2    98  GLY98      -0.2714
     50  N         29.1220  -10.3550   27.5380 N.am   99  MET99      -0.1976
     51  CA        29.1780  -11.4720   26.6420 C.3    99  MET99       0.1605
     52  C         28.3320  -11.3830   25.3940 C.2    99  MET99       0.2287
     53  O         28.7130  -11.9030   24.3520 O.2    99  MET99      -0.2864
     54  CB        28.7530  -12.7180   27.3840 C.3    99  MET99       0.0413
     55  CG        29.2710  -13.9740   26.7720 C.3    99  MET99       0.0598
     56  SD        28.8750  -15.4010   27.7510 S.3    99  MET99      -0.1393
     57  CE        30.2390  -15.4370   28.9060 C.3    99  MET99       0.0692
     58  N         23.3750   -4.9660   25.7400 N.3   103  GLY103     -0.1225
     59  CA        22.0460   -5.3120   26.2250 C.3   103  GLY103      0.1811
     60  C         21.8620   -5.1390   27.7080 C.2   103  GLY103      0.2280
     61  O         22.7610   -4.6650   28.4200 O.2   103  GLY103     -0.2866
     62  N         20.8710   -7.2340   31.0340 N.3   105  TYR105     -0.1227
     63  CA        21.0260   -8.6240   31.4530 C.3   105  TYR105      0.1736
     64  C         20.1970   -9.0350   32.6560 C.2   105  TYR105      0.2595
     65  O         20.0860   -8.2900   33.6440 O.2   105  TYR105     -0.2718
     66  CB        22.5330   -8.8940   31.7310 C.3   105  TYR105      0.0548
     67  CG        23.4490   -8.8500   30.5350 C.ar  105  TYR105     -0.0200
     68  CD1       23.7460   -7.6380   29.8900 C.ar  105  TYR105     -0.0009
     69  CD2       24.0090  -10.0150   30.0200 C.ar  105  TYR105     -0.0009
     70  CE1       24.5570   -7.6010   28.7600 C.ar  105  TYR105      0.0417
     71  CE2       24.8650   -9.9790   28.9180 C.ar  105  TYR105      0.0417
     72  CZ        25.1230   -8.7720   28.2830 C.ar  105  TYR105      0.1957
     73  OH        25.9320   -8.7380   27.1730 O.3   105  TYR105     -0.2866
     74  N         19.6410  -10.2610   32.5730 N.am  106  PHE106     -0.1962
     75  CA        18.8020  -10.8330   33.6270 C.3   106  PHE106      0.1771
     76  C         19.2220  -12.2840   33.8660 C.2   106  PHE106      0.2619
     77  O         19.8060  -12.9190   33.0000 O.2   106  PHE106     -0.2715
     78  CB        17.3050  -10.7990   33.1980 C.3   106  PHE106      0.0574
     79  CG        16.7680   -9.4030   32.9730 C.ar  106  PHE106     -0.0200
     80  CD1       16.9620   -8.7440   31.7470 C.ar  106  PHE106     -0.0042
     81  CD2       16.0860   -8.7350   33.9840 C.ar  106  PHE106     -0.0042
     82  CE1       16.4990   -7.4220   31.5680 C.ar  106  PHE106     -0.0003
     83  CE2       15.6200   -7.4300   33.7920 C.ar  106  PHE106     -0.0003
     84  CZ        15.8380   -6.7850   32.5930 C.ar  106  PHE106     -0.0000
     85  N         18.8910  -12.7980   35.0590 N.am  107  ALA107     -0.1977
     86  CA        19.2020  -14.1680   35.4400 C.3   107  ALA107      0.1597
     87  C         17.9630  -14.8720   35.9370 C.2   107  ALA107      0.2287
     88  O         17.0470  -14.2270   36.4830 O.2   107  ALA107     -0.2864
     89  CB        20.3010  -14.1640   36.5350 C.3   107  ALA107      0.0319
     90  N         22.9900  -15.2470   40.9670 N.3   112  LYS112     -0.1231
     91  CA        23.7560  -14.6850   39.8420 C.3   112  LYS112      0.1693
     92  C         23.5280  -13.1680   39.8180 C.2   112  LYS112      0.2592
     93  O         24.4850  -12.4030   39.7230 O.2   112  LYS112     -0.2718
     94  CB        23.3480  -15.3390   38.4950 C.3   112  LYS112      0.0285
     95  CG        24.1310  -14.7900   37.3110 C.3   112  LYS112      0.0035
     96  CD        24.0140  -15.7280   36.1030 C.3   112  LYS112      0.0206
     97  CE        24.7270  -15.1330   34.9020 C.3   112  LYS112      0.1093
     98  NZ        24.8090  -16.1010   33.7650 N.3   112  LYS112     -0.1314
     99  N         22.2510  -12.7250   39.9560 N.am  113  SER113     -0.1952
    100  CA        21.9550  -11.2900   39.9780 C.3   113  SER113      0.1924
    101  C         22.5610  -10.5980   41.2200 C.2   113  SER113      0.2314
    102  O         22.9740   -9.4400   41.1640 O.2   113  SER113     -0.2863
    103  CB        20.4440  -11.0760   39.9310 C.3   113  SER113      0.2116
    104  OG        19.9670  -11.4630   38.6510 O.3   113  SER113     -0.2180
    105  N         25.8600   -8.6300   41.0220 N.3   116  TYR116     -0.1241
    106  CA        25.8730   -7.3080   40.3650 C.3   116  TYR116      0.1605
    107  C         25.3050   -6.1730   41.1960 C.2   116  TYR116      0.2264
    108  O         25.3260   -5.0230   40.7570 O.2   116  TYR116     -0.2867
    109  CB        25.1360   -7.4110   39.0180 C.3   116  TYR116      0.0534
    110  CG        25.9210   -8.2750   38.0600 C.ar  116  TYR116     -0.0201
    111  CD1       27.0420   -7.7750   37.4090 C.ar  116  TYR116     -0.0009
    112  CD2       25.6490   -9.6350   37.9320 C.ar  116  TYR116     -0.0009
    113  CE1       27.8000   -8.5710   36.5540 C.ar  116  TYR116      0.0417
    114  CE2       26.4230  -10.4530   37.1050 C.ar  116  TYR116      0.0417
    115  CZ        27.4990   -9.9110   36.4150 C.ar  116  TYR116      0.1957
    116  OH        28.3030  -10.6630   35.5930 O.3   116  TYR116     -0.2866
    117  N         29.8950   -4.2610   38.8500 N.3   120  ILE120     -0.1245
    118  CA        30.4220   -5.3420   38.0180 C.3   120  ILE120      0.1561
    119  C         31.4140   -6.1630   38.8570 C.2   120  ILE120      0.2260
    120  O         32.2800   -5.5960   39.5160 O.2   120  ILE120     -0.2867
    121  CB        31.0200   -4.8150   36.6800 C.3   120  ILE120      0.0252
    122  CG1       29.9230   -4.1370   35.8360 C.3   120  ILE120      0.0019
    123  CG2       31.6640   -5.9260   35.8740 C.3   120  ILE120      0.0019
    124  CD1       30.1250   -2.6760   35.7330 C.3   120  ILE120      0.0001
    125  N         21.6590  -16.7600   31.1360 N.3   183  GLU183     -0.1245
    126  CA        21.4250  -15.3330   31.2360 C.3   183  GLU183      0.1567
    127  C         20.5580  -14.9370   30.0750 C.2   183  GLU183      0.2260
    128  O         20.5600  -15.6100   29.0350 O.2   183  GLU183     -0.2867
    129  CB        22.6830  -14.4750   31.3820 C.3   183  GLU183      0.0388
    130  CG        23.6900  -14.6220   30.2530 C.3   183  GLU183      0.1160
    131  CD        25.0340  -14.0230   30.6250 C.2   183  GLU183      0.3649
    132  OE1       25.5760  -14.3480   31.7120 O.co2 183  GLU183     -0.2457
    133  OE2       25.5420  -13.2110   29.8210 O.co2 183  GLU183     -0.2457
@<TRIPOS>BOND
     1    53    52    2
     2    52    51    1
     3    32    31    1
     4    32    33    2
     5    28    27    2
     6    58    59    1
     7    42    43    1
     8    36    38   ar
     9    36    35   ar
    10    31    34    1
    11    31    30    1
    12    49    48    2
    13    59    60    1
    14    38    40   ar
    15    34    35    1
    16    43    44    1
    17    51    54    1
    18    51    50    1
    19    27    30   am
    20    27    26    1
    21    55    54    1
    22    55    56    1
    23    35    37   ar
    24    48    50   am
    25    48    47    1
    26    73    72    1
    27    46    44   am
    28    46    47    1
    29    40    41    1
    30    40    39   ar
    31    29    26    1
    32    44    45    2
    33    60    61    2
    34    56    57    1
    35    26    25    1
    36    37    39   ar
    37    25    17   am
    38    72    70   ar
    39    72    71   ar
    40    15    16    1
    41    70    68   ar
    42    71    69   ar
    43   128   127    2
    44    17    16    1
    45    17    18    2
    46    16    19    1
    47   133   131   ar
    48    68    67   ar
    49    69    67   ar
    50   127   126    1
    51   130   131    1
    52   130   129    1
    53    67    66    1
    54   131   132   ar
    55    19    20    1
    56    62    63    1
    57   125   126    1
    58   126   129    1
    59    20    21   ar
    60    20    22   ar
    61    21    23   ar
    62    63    66    1
    63    63    64    1
    64    22    24   ar
    65    23    24   ar
    66    82    80   ar
    67    82    84   ar
    68    80    79   ar
    69    74    64   am
    70    74    75    1
    71    84    83   ar
    72    64    65    2
    73    79    78    1
    74    79    81   ar
    75    77    76    2
    76    78    75    1
    77    75    76    1
    78    98    97    1
    79    83    81   ar
    80    76    85   am
    81    97    96    1
    82     9     7   ar
    83     9    10   ar
    84    85    86    1
    85     7     6   ar
    86    86    87    1
    87    86    89    1
    88   116   115    1
    89   124   122    1
    90   122   121    1
    91   123   121    1
    92    87    88    2
    93    10     8   ar
    94    96    95    1
    95     6     8   ar
    96     6     5    1
    97   115   113   ar
    98   115   114   ar
    99   113   111   ar
   100   121   118    1
   101     5     2    1
   102   114   112   ar
   103    95    94    1
   104   111   110   ar
   105     2     1    1
   106     2     3    1
   107   112   110   ar
   108   118   117    1
   109   118   119    1
   110   110   109    1
   111    14    13    2
   112    94    91    1
   113   104   103    1
   114   119   120    2
   115   109   106    1
   116     3    11   am
   117     3     4    2
   118    11    12    1
   119    13    12    1
   120    93    92    2
   121    92    91    1
   122    92    99   am
   123    91    90    1
   124   103   100    1
   125    99   100    1
   126   100   101    1
   127   106   105    1
   128   106   107    1
   129   108   107    2
   130   102   101    2
