@<TRIPOS>MOLECULE
tmp/4tk2A00.pdb
 195 188 0 0 0
SMALL
GASTEIGER

@<TRIPOS>ATOM
      1  N        -50.0450   -2.7970   -0.0420 N.3     7  MET7       -0.1230
      2  CA       -51.3130   -3.4040   -0.4320 C.3     7  MET7        0.1702
      3  C        -51.3030   -4.9210   -0.2660 C.2     7  MET7        0.2592
      4  O        -52.2880   -5.5130    0.1750 O.2     7  MET7       -0.2718
      5  CB       -51.6530   -3.0420   -1.8780 C.3     7  MET7        0.0401
      6  CG       -53.0190   -3.5280   -2.3270 C.3     7  MET7        0.0596
      7  SD       -54.3480   -2.8680   -1.3040 S.3     7  MET7       -0.1393
      8  CE       -55.7750   -3.6360   -2.0650 C.3     7  MET7        0.0692
      9  N        -50.1840   -5.5420   -0.6230 N.am    8  ASP8       -0.1974
     10  CA       -50.0430   -6.9900   -0.5180 C.3     8  ASP8        0.1709
     11  C        -50.0730   -7.4540    0.9340 C.2     8  ASP8        0.2293
     12  O        -50.7530   -8.4230    1.2690 O.2     8  ASP8       -0.2864
     13  CB       -48.7470   -7.4520   -1.1870 C.3     8  ASP8        0.1436
     14  CG       -48.7860   -7.3040   -2.6940 C.2     8  ASP8        0.3671
     15  OD1      -49.8890   -7.3970   -3.2740 O.co2   8  ASP8       -0.2456
     16  OD2      -47.7140   -7.0990   -3.3000 O.co2   8  ASP8       -0.2456
     17  N        -53.6940   -7.1470    2.3990 N.3    11  PHE11      -0.1241
     18  CA       -54.6400   -8.1180    1.8560 C.3    11  PHE11       0.1605
     19  C        -54.4130   -9.5150    2.4290 C.2    11  PHE11       0.2264
     20  O        -55.3650  -10.2060    2.7940 O.2    11  PHE11      -0.2867
     21  CB       -54.5490   -8.1560    0.3280 C.3    11  PHE11       0.0534
     22  CG       -55.5350   -9.0910   -0.3170 C.ar   11  PHE11      -0.0203
     23  CD1      -56.8490   -8.7010   -0.5170 C.ar   11  PHE11      -0.0042
     24  CD2      -55.1460  -10.3540   -0.7320 C.ar   11  PHE11      -0.0042
     25  CE1      -57.7590   -9.5570   -1.1120 C.ar   11  PHE11      -0.0003
     26  CE2      -56.0500  -11.2140   -1.3280 C.ar   11  PHE11      -0.0003
     27  CZ       -57.3580  -10.8140   -1.5190 C.ar   11  PHE11      -0.0000
     28  N        -62.5740   -4.9930   -1.8930 N.3   314  LEU314     -0.1245
     29  CA       -61.1780   -5.4140   -1.8550 C.3   314  LEU314      0.1561
     30  C        -60.8370   -6.2170   -0.6020 C.2   314  LEU314      0.2260
     31  O        -60.0590   -7.1700   -0.6640 O.2   314  LEU314     -0.2867
     32  CB       -60.2540   -4.1980   -1.9520 C.3   314  LEU314      0.0270
     33  CG       -60.1440   -3.5350   -3.3260 C.3   314  LEU314      0.0019
     34  CD1      -59.3420   -2.2480   -3.2360 C.3   314  LEU314      0.0001
     35  CD2      -59.5220   -4.4890   -4.3340 C.3   314  LEU314      0.0001
     36  N        -60.1830  -15.5970   -3.0020 N.3   330  ARG330     -0.1231
     37  CA       -59.5780  -14.5130   -3.7680 C.3   330  ARG330      0.1679
     38  C        -60.4400  -14.1720   -4.9780 C.2   330  ARG330      0.2434
     39  O        -60.9300  -15.0650   -5.6690 O.2   330  ARG330     -0.2733
     40  CB       -58.1600  -14.8850   -4.2090 C.3   330  ARG330      0.0321
     41  CG       -57.1950  -15.1080   -3.0560 C.3   330  ARG330      0.0489
     42  CD       -55.8190  -15.5210   -3.5530 C.3   330  ARG330      0.2205
     43  NE       -55.8650  -16.7460   -4.3450 N.pl3 330  ARG330     -0.0865
     44  CZ       -54.8100  -17.2910   -4.9410 C.cat 330  ARG330      0.5346
     45  NH1      -53.6170  -16.7230   -4.8310 N.pl3 330  ARG330      0.1354
     46  NH2      -54.9450  -18.4080   -5.6430 N.pl3 330  ARG330      0.1354
     47  N        -60.6270  -12.8700   -5.2360 N.am  331  PRO331     -0.2729
     48  CA       -61.5080  -12.3920   -6.3060 C.3   331  PRO331      0.1401
     49  C        -60.9870  -12.7300   -7.7000 C.2   331  PRO331      0.2269
     50  O        -59.8060  -13.0330   -7.8680 O.2   331  PRO331     -0.2865
     51  CB       -61.5300  -10.8780   -6.0880 C.3   331  PRO331      0.0296
     52  CG       -60.2360  -10.5830   -5.4110 C.3   331  PRO331      0.0237
     53  CD       -59.9740  -11.7590   -4.5210 C.3   331  PRO331      0.0939
     54  N        -59.8060  -11.8640  -11.3810 N.3   333  ILE333     -0.1245
     55  CA       -59.1880  -10.7570  -12.1020 C.3   333  ILE333      0.1561
     56  C        -58.9690  -11.1190  -13.5670 C.2   333  ILE333      0.2260
     57  O        -58.3660  -12.1460  -13.8780 O.2   333  ILE333     -0.2867
     58  CB       -57.8410  -10.3560  -11.4700 C.3   333  ILE333      0.0252
     59  CG1      -58.0300   -9.9930   -9.9960 C.3   333  ILE333      0.0019
     60  CG2      -57.2160   -9.1980  -12.2320 C.3   333  ILE333      0.0019
     61  CD1      -56.7340   -9.7200   -9.2650 C.3   333  ILE333      0.0001
     62  N        -58.2700   -9.6360  -17.8760 N.3   335  LYS335     -0.1245
     63  CA       -57.5480   -8.6550  -18.6760 C.3   335  LYS335      0.1561
     64  C        -58.5100   -7.8520  -19.5470 C.2   335  LYS335      0.2260
     65  O        -59.4610   -8.4020  -20.1020 O.2   335  LYS335     -0.2867
     66  CB       -56.4930   -9.3420  -19.5440 C.3   335  LYS335      0.0271
     67  CG       -55.4060  -10.0530  -18.7520 C.3   335  LYS335      0.0035
     68  CD       -54.6020   -9.0730  -17.9120 C.3   335  LYS335      0.0206
     69  CE       -53.3610   -9.7320  -17.3300 C.3   335  LYS335      0.1093
     70  NZ       -52.5680   -8.7910  -16.4910 N.3   335  LYS335     -0.1314
     71  N        -50.8840    2.7040   -5.7060 N.3   348  PRO348     -0.2116
     72  CA       -51.7130    1.8060   -6.5170 C.3   348  PRO348      0.1372
     73  C        -53.1610    2.2790   -6.5390 C.2   348  PRO348      0.2244
     74  O        -53.7250    2.5850   -5.4890 O.2   348  PRO348     -0.2868
     75  CB       -51.5760    0.4570   -5.8050 C.3   348  PRO348      0.0268
     76  CG       -51.1620    0.7950   -4.4130 C.3   348  PRO348      0.0207
     77  CD       -50.3100    2.0210   -4.5350 C.3   348  PRO348      0.0892
     78  N        -57.3400    2.1910   -7.7170 N.3   350  TYR350     -0.1241
     79  CA       -58.5180    1.3830   -8.0020 C.3   350  TYR350      0.1605
     80  C        -59.6940    2.2920   -8.3260 C.2   350  TYR350      0.2264
     81  O        -59.9300    3.2840   -7.6360 O.2   350  TYR350     -0.2867
     82  CB       -58.8550    0.4620   -6.8270 C.3   350  TYR350      0.0534
     83  CG       -57.6840   -0.3570   -6.3370 C.ar  350  TYR350     -0.0201
     84  CD1      -56.8740    0.0900   -5.3020 C.ar  350  TYR350     -0.0009
     85  CD2      -57.3940   -1.5870   -6.9120 C.ar  350  TYR350     -0.0009
     86  CE1      -55.8040   -0.6660   -4.8570 C.ar  350  TYR350      0.0417
     87  CE2      -56.3310   -2.3460   -6.4770 C.ar  350  TYR350      0.0417
     88  CZ       -55.5400   -1.8840   -5.4500 C.ar  350  TYR350      0.1957
     89  OH       -54.4810   -2.6480   -5.0210 O.3   350  TYR350     -0.2866
     90  N        -60.5860   -9.2680  -26.1770 N.3   363  LEU363     -0.1245
     91  CA       -60.5120   -8.5680  -24.8990 C.3   363  LEU363      0.1561
     92  C        -61.6360   -7.5470  -24.7460 C.2   363  LEU363      0.2260
     93  O        -61.9800   -6.8480  -25.7000 O.2   363  LEU363     -0.2867
     94  CB       -59.1550   -7.8780  -24.7470 C.3   363  LEU363      0.0270
     95  CG       -57.9410   -8.8000  -24.6340 C.3   363  LEU363      0.0019
     96  CD1      -56.6650   -7.9900  -24.4650 C.3   363  LEU363      0.0001
     97  CD2      -58.1160   -9.7760  -23.4800 C.3   363  LEU363      0.0001
     98  N        -57.8480   -1.8670  -12.0260 N.3   386  MET386     -0.1230
     99  CA       -56.6480   -1.9670  -11.2020 C.3   386  MET386      0.1702
    100  C        -55.4510   -1.3380  -11.9060 C.2   386  MET386      0.2592
    101  O        -54.7740   -1.9880  -12.7030 O.2   386  MET386     -0.2718
    102  CB       -56.3500   -3.4270  -10.8590 C.3   386  MET386      0.0401
    103  CG       -57.5610   -4.2090  -10.3790 C.3   386  MET386      0.0596
    104  SD       -57.2280   -5.9710  -10.2010 S.3   386  MET386     -0.1393
    105  CE       -56.3630   -5.9970   -8.6330 C.3   386  MET386      0.0692
    106  N        -55.1950   -0.0690  -11.6060 N.am  387  LEU387     -0.1966
    107  CA       -54.1090    0.6650  -12.2430 C.3   387  LEU387      0.1713
    108  C        -52.8050    0.5110  -11.4660 C.2   387  LEU387      0.2458
    109  O        -52.7980    0.5650  -10.2370 O.2   387  LEU387     -0.2730
    110  CB       -54.4710    2.1450  -12.3760 C.3   387  LEU387      0.0310
    111  CG       -55.6520    2.4640  -13.2940 C.3   387  LEU387      0.0022
    112  CD1      -55.9470    3.9550  -13.2880 C.3   387  LEU387      0.0001
    113  CD2      -55.3840    1.9730  -14.7080 C.3   387  LEU387      0.0001
    114  N        -51.6930    0.3200  -12.1910 N.am  388  PRO388     -0.2716
    115  CA       -50.3670    0.1310  -11.5960 C.3   388  PRO388      0.1521
    116  C        -49.7730    1.4290  -11.0590 C.2   388  PRO388      0.2440
    117  O        -50.1040    2.5040  -11.5590 O.2   388  PRO388     -0.2731
    118  CB       -49.5370   -0.3990  -12.7660 C.3   388  PRO388      0.0310
    119  CG       -50.1700    0.2230  -13.9600 C.3   388  PRO388      0.0237
    120  CD       -51.6450    0.2720  -13.6640 C.3   388  PRO388      0.0939
    121  N        -48.9000    1.3260  -10.0460 N.am  389  PRO389     -0.2727
    122  CA       -48.1960    2.4800   -9.4750 C.3   389  PRO389      0.1402
    123  C        -47.2410    3.1190  -10.4780 C.2   389  PRO389      0.2269
    124  O        -46.8200    2.4600  -11.4300 O.2   389  PRO389     -0.2865
    125  CB       -47.4230    1.8750   -8.2970 C.3   389  PRO389      0.0296
    126  CG       -48.1290    0.5960   -7.9860 C.3   389  PRO389      0.0237
    127  CD       -48.6140    0.0870   -9.3040 C.3   389  PRO389      0.0939
    128  N        -40.1430    4.0480  -15.7500 N.3   393  GLN393     -0.1231
    129  CA       -40.4340    4.0410  -17.1800 C.3   393  GLN393      0.1698
    130  C        -41.8560    4.5230  -17.4700 C.2   393  GLN393      0.2592
    131  O        -42.0760    5.3040  -18.3970 O.2   393  GLN393     -0.2718
    132  CB       -40.2200    2.6420  -17.7670 C.3   393  GLN393      0.0381
    133  CG       -40.8980    1.5190  -16.9970 C.3   393  GLN393      0.0905
    134  CD       -40.7470    0.1740  -17.6790 C.2   393  GLN393      0.2608
    135  OE1      -39.6720   -0.4240  -17.6650 O.2   393  GLN393     -0.2717
    136  NE2      -41.8270   -0.3090  -18.2810 N.am  393  GLN393     -0.0878
    137  N        -42.8170    4.0570  -16.6780 N.am  394  TYR394     -0.1976
    138  CA       -44.2160    4.4150  -16.8830 C.3   394  TYR394      0.1639
    139  C        -44.7040    5.5040  -15.9360 C.2   394  TYR394      0.2290
    140  O        -44.7620    5.3190  -14.7200 O.2   394  TYR394     -0.2864
    141  CB       -45.1120    3.1800  -16.7560 C.3   394  TYR394      0.0560
    142  CG       -45.1830    2.3440  -18.0150 C.ar  394  TYR394     -0.0198
    143  CD1      -44.8140    2.8760  -19.2440 C.ar  394  TYR394     -0.0009
    144  CD2      -45.6330    1.0310  -17.9780 C.ar  394  TYR394     -0.0009
    145  CE1      -44.8830    2.1200  -20.4000 C.ar  394  TYR394      0.0417
    146  CE2      -45.7050    0.2670  -19.1290 C.ar  394  TYR394      0.0417
    147  CZ       -45.3280    0.8170  -20.3360 C.ar  394  TYR394      0.1957
    148  OH       -45.3990    0.0590  -21.4820 O.3   394  TYR394     -0.2866
    149  N        -50.1760    5.9780  -18.9640 N.3   397  LEU397     -0.1245
    150  CA       -50.6740    4.8000  -19.6630 C.3   397  LEU397      0.1561
    151  C        -51.4550    5.2230  -20.9030 C.2   397  LEU397      0.2260
    152  O        -52.0900    6.2780  -20.9150 O.2   397  LEU397     -0.2867
    153  CB       -51.5530    3.9520  -18.7410 C.3   397  LEU397      0.0270
    154  CG       -50.8290    2.9870  -17.7980 C.3   397  LEU397      0.0019
    155  CD1      -51.8260    2.1320  -17.0280 C.3   397  LEU397      0.0001
    156  CD2      -49.8500    2.1160  -18.5650 C.3   397  LEU397      0.0001
    157  N        -53.9640   -0.3210  -24.1010 N.3   401  GLU401     -0.1231
    158  CA       -53.0580   -1.1830  -23.3510 C.3   401  GLU401      0.1699
    159  C        -53.8150   -2.0660  -22.3630 C.2   401  GLU401      0.2592
    160  O        -54.8420   -1.6660  -21.8130 O.2   401  GLU401     -0.2718
    161  CB       -52.0060   -0.3500  -22.6170 C.3   401  GLU401      0.0402
    162  CG       -51.0200    0.3480  -23.5420 C.3   401  GLU401      0.1161
    163  CD       -49.9230    1.0730  -22.7890 C.2   401  GLU401      0.3649
    164  OE1      -49.7950    0.8540  -21.5660 O.co2 401  GLU401     -0.2457
    165  OE2      -49.1870    1.8620  -23.4190 O.co2 401  GLU401     -0.2457
    166  N        -53.2980   -3.2710  -22.1480 N.am  402  VAL402     -0.1966
    167  CA       -53.9630   -4.2590  -21.3060 C.3   402  VAL402      0.1727
    168  C        -53.7140   -3.9930  -19.8250 C.2   402  VAL402      0.2616
    169  O        -52.5700   -3.8620  -19.3890 O.2   402  VAL402     -0.2715
    170  CB       -53.5000   -5.6890  -21.6470 C.3   402  VAL402      0.0290
    171  CG1      -54.2070   -6.7030  -20.7620 C.3   402  VAL402      0.0023
    172  CG2      -53.7520   -5.9900  -23.1160 C.3   402  VAL402      0.0023
    173  N        -54.7960   -3.9180  -19.0570 N.am  403  VAL403     -0.1963
    174  CA       -54.7140   -3.6840  -17.6200 C.3   403  VAL403      0.1727
    175  C        -55.5350   -4.7160  -16.8570 C.2   403  VAL403      0.2616
    176  O        -56.3540   -5.4250  -17.4410 O.2   403  VAL403     -0.2715
    177  CB       -55.2040   -2.2730  -17.2500 C.3   403  VAL403      0.0290
    178  CG1      -54.2360   -1.2180  -17.7640 C.3   403  VAL403      0.0023
    179  CG2      -56.6000   -2.0420  -17.8030 C.3   403  VAL403      0.0023
    180  N        -55.3130   -4.7980  -15.5490 N.am  404  ASP404     -0.1971
    181  CA       -56.0410   -5.7430  -14.7090 C.3   404  ASP404      0.1709
    182  C        -57.3840   -5.1770  -14.2610 C.2   404  ASP404      0.2293
    183  O        -57.4760   -4.0200  -13.8510 O.2   404  ASP404     -0.2864
    184  CB       -55.1990   -6.1240  -13.4890 C.3   404  ASP404      0.1436
    185  CG       -53.9360   -6.8750  -13.8630 C.2   404  ASP404      0.3671
    186  OD1      -53.9890   -7.7070  -14.7920 O.co2 404  ASP404     -0.2456
    187  OD2      -52.8890   -6.6320  -13.2260 O.co2 404  ASP404     -0.2456
    188  N        -60.8000   -6.2890  -11.8260 N.3   406  MET406     -0.1245
    189  CA       -61.4160   -7.2230  -10.8900 C.3   406  MET406      0.1570
    190  C        -62.9330   -7.2630  -11.0660 C.2   406  MET406      0.2261
    191  O        -63.6050   -6.2390  -10.9490 O.2   406  MET406     -0.2867
    192  CB       -61.0640   -6.8440   -9.4500 C.3   406  MET406      0.0387
    193  CG       -61.5370   -7.8440   -8.4100 C.3   406  MET406      0.0595
    194  SD       -61.0750   -7.3660   -6.7340 S.3   406  MET406     -0.1393
    195  CE       -62.1760   -5.9830   -6.4550 C.3   406  MET406      0.0692
@<TRIPOS>BOND
     1    90    91    1
     2    93    92    2
     3    91    94    1
     4    91    92    1
     5    94    95    1
     6    95    96    1
     7    95    97    1
     8   157   158    1
     9   162   163    1
    10   162   161    1
    11   165   163   ar
    12   158   161    1
    13   158   159    1
    14   172   170    1
    15   163   164   ar
    16   159   166   am
    17   159   160    2
    18   166   167    1
    19   170   167    1
    20   170   171    1
    21   148   147    1
    22   167   168    1
    23   152   151    2
    24   151   150    1
    25   145   147   ar
    26   145   143   ar
    27   147   146   ar
    28    65    64    2
    29   168   169    2
    30   168   173   am
    31   150   149    1
    32   150   153    1
    33    64    63    1
    34    66    67    1
    35    66    63    1
    36   143   142   ar
    37   146   144   ar
    38   173   174    1
    39    67    68    1
    40   153   154    1
    41    63    62    1
    42   156   154    1
    43   131   130    2
    44   136   134   am
    45   142   144   ar
    46   142   141    1
    47    68    69    1
    48   179   177    1
    49   154   155    1
    50   132   129    1
    51   132   133    1
    52   178   177    1
    53   134   135    2
    54   134   133    1
    55   174   177    1
    56   174   175    1
    57   130   129    1
    58   130   137   am
    59   176   175    2
    60    69    70    1
    61   129   128    1
    62   138   141    1
    63   138   137    1
    64   138   139    1
    65   175   180   am
    66   139   140    2
    67   180   181    1
    68   186   185   ar
    69   181   182    1
    70   181   184    1
    71   113   111    1
    72   182   183    2
    73   119   120    1
    74   119   118    1
    75    57    56    2
    76   185   184    1
    77   185   187   ar
    78   120   114    1
    79    56    55    1
    80   111   112    1
    81   111   110    1
    82   118   115    1
    83   101   100    2
    84   110   107    1
    85   107   106    1
    86   107   108    1
    87    60    58    1
    88   114   115    1
    89   114   108   am
    90    55    58    1
    91    55    54    1
    92    98    99    1
    93   100   106   am
    94   100    99    1
    95   188   189    1
    96   115   116    1
    97   117   116    2
    98    58    59    1
    99   108   109    2
   100   124   123    2
   101    99   102    1
   102   190   191    2
   103   190   189    1
   104   116   121   am
   105   189   192    1
   106   102   103    1
   107   123   122    1
   108   103   104    1
   109   104   105    1
   110   121   122    1
   111   121   127    1
   112    59    61    1
   113   122   125    1
   114   192   193    1
   115   127   126    1
   116   193   194    1
   117    80    79    1
   118    80    81    2
   119   125   126    1
   120    79    78    1
   121    79    82    1
   122    50    49    2
   123    49    48    1
   124    85    87   ar
   125    85    83   ar
   126    82    83    1
   127   194   195    1
   128    73    72    1
   129    73    74    2
   130    72    75    1
   131    72    71    1
   132    87    88   ar
   133    83    84   ar
   134    48    51    1
   135    48    47    1
   136    51    52    1
   137    75    76    1
   138    71    77    1
   139    39    38    2
   140    46    44    1
   141    88    89    1
   142    88    86   ar
   143    52    53    1
   144    84    86   ar
   145    47    38   am
   146    47    53    1
   147    38    37    1
   148    44    45    1
   149    44    43    2
   150    77    76    1
   151    43    42    1
   152    35    33    1
   153    40    37    1
   154    40    41    1
   155    37    36    1
   156    42    41    1
   157    33    34    1
   158    33    32    1
   159    16    14   ar
   160    15    14   ar
   161    14    13    1
   162     6     5    1
   163     6     7    1
   164     8     7    1
   165    32    29    1
   166    28    29    1
   167     5     2    1
   168    29    30    1
   169    27    26   ar
   170    27    25   ar
   171    26    24   ar
   172    13    10    1
   173    25    23   ar
   174    24    22   ar
   175    31    30    2
   176     9    10    1
   177     9     3   am
   178    10    11    1
   179    23    22   ar
   180     2     3    1
   181     2     1    1
   182    22    21    1
   183     3     4    2
   184    21    18    1
   185    11    12    2
   186    18    17    1
   187    18    19    1
   188    19    20    2
