@<TRIPOS>MOLECULE
tmp/4tk3A00.pdb
 186 180 0 0 0
SMALL
GASTEIGER

@<TRIPOS>ATOM
      1  N        241.3480  165.2060  126.6510 N.3     8  MET8       -0.1230
      2  CA       242.4660  165.9680  126.1130 C.3     8  MET8        0.1702
      3  C        242.9910  166.9840  127.1210 C.2     8  MET8        0.2592
      4  O        244.2000  167.1880  127.2370 O.2     8  MET8       -0.2718
      5  CB       242.0580  166.6780  124.8240 C.3     8  MET8        0.0401
      6  CG       243.1930  167.4360  124.1710 C.3     8  MET8        0.0596
      7  SD       244.5660  166.3530  123.7400 S.3     8  MET8       -0.1393
      8  CE       245.7980  167.5570  123.2530 C.3     8  MET8        0.0692
      9  N        242.0760  167.6130  127.8510 N.am    9  ASP9       -0.1974
     10  CA       242.4480  168.5960  128.8610 C.3     9  ASP9        0.1709
     11  C        243.2740  167.9650  129.9790 C.2     9  ASP9        0.2293
     12  O        244.3000  168.5110  130.3830 O.2     9  ASP9       -0.2864
     13  CB       241.2000  169.2670  129.4400 C.3     9  ASP9        0.1436
     14  CG       240.5940  170.2880  128.4930 C.2     9  ASP9        0.3671
     15  OD1      241.3630  171.0240  127.8380 O.co2   9  ASP9       -0.2456
     16  OD2      239.3500  170.3570  128.4040 O.co2   9  ASP9       -0.2456
     17  N        246.8810  166.8130  128.9400 N.3    12  PHE12      -0.1227
     18  CA       247.8470  167.8940  128.7920 C.3    12  PHE12       0.1736
     19  C        248.3910  168.3610  130.1410 C.2    12  PHE12       0.2595
     20  O        249.5970  168.5600  130.2920 O.2    12  PHE12      -0.2718
     21  CB       247.2170  169.0710  128.0430 C.3    12  PHE12       0.0547
     22  CG       248.1720  170.2020  127.7790 C.ar   12  PHE12      -0.0202
     23  CD1      249.0850  170.1270  126.7400 C.ar   12  PHE12      -0.0042
     24  CD2      248.1550  171.3410  128.5680 C.ar   12  PHE12      -0.0042
     25  CE1      249.9630  171.1640  126.4960 C.ar   12  PHE12      -0.0003
     26  CE2      249.0320  172.3820  128.3280 C.ar   12  PHE12      -0.0003
     27  CZ       249.9360  172.2930  127.2920 C.ar   12  PHE12      -0.0000
     28  N        247.5070  168.5340  131.1200 N.am   13  ILE13      -0.1980
     29  CA       247.9280  169.0040  132.4360 C.3    13  ILE13       0.1595
     30  C        248.7150  167.9200  133.1690 C.2    13  ILE13       0.2287
     31  O        249.5640  168.2220  134.0070 O.2    13  ILE13      -0.2864
     32  CB       246.7250  169.4620  133.3020 C.3    13  ILE13       0.0276
     33  CG1      245.8260  168.2820  133.6800 C.3    13  ILE13       0.0022
     34  CG2      245.9250  170.5370  132.5820 C.3    13  ILE13       0.0022
     35  CD1      245.9310  167.8720  135.1400 C.3    13  ILE13       0.0001
     36  N        251.7500  168.8780  120.6750 N.3   319  LEU319     -0.1245
     37  CA       250.7480  169.0630  121.7190 C.3   319  LEU319      0.1561
     38  C        251.2580  168.6680  123.1030 C.2   319  LEU319      0.2260
     39  O        250.9480  169.3310  124.0920 O.2   319  LEU319     -0.2867
     40  CB       249.4820  168.2700  121.3840 C.3   319  LEU319      0.0270
     41  CG       248.6280  168.8330  120.2450 C.3   319  LEU319      0.0019
     42  CD1      247.4590  167.9160  119.9300 C.3   319  LEU319      0.0001
     43  CD2      248.1310  170.2240  120.5900 C.3   319  LEU319      0.0001
     44  N        253.3410  176.5740  128.2040 N.3   335  ARG335     -0.1231
     45  CA       252.1500  176.3910  127.3870 C.3   335  ARG335      0.1679
     46  C        252.3380  177.0180  126.0100 C.2   335  ARG335      0.2434
     47  O        253.0160  178.0360  125.8740 O.2   335  ARG335     -0.2733
     48  CB       250.9300  176.9820  128.0940 C.3   335  ARG335      0.0321
     49  CG       250.6100  176.2980  129.4140 C.3   335  ARG335      0.0489
     50  CD       249.4840  176.9990  130.1450 C.3   335  ARG335      0.2205
     51  NE       249.8270  178.3790  130.4740 N.pl3 335  ARG335     -0.0865
     52  CZ       249.0250  179.2120  131.1280 C.cat 335  ARG335      0.5346
     53  NH1      247.8270  178.8050  131.5280 N.pl3 335  ARG335      0.1354
     54  NH2      249.4200  180.4520  131.3840 N.pl3 335  ARG335      0.1354
     55  N        251.7480  176.3960  124.9780 N.am  336  PRO336     -0.2729
     56  CA       251.8710  176.8820  123.6010 C.3   336  PRO336      0.1401
     57  C        251.0590  178.1480  123.3540 C.2   336  PRO336      0.2269
     58  O        250.0700  178.3910  124.0430 O.2   336  PRO336     -0.2865
     59  CB       251.3230  175.7180  122.7740 C.3   336  PRO336      0.0296
     60  CG       250.3410  175.0670  123.6770 C.3   336  PRO336      0.0237
     61  CD       250.9290  175.1730  125.0560 C.3   336  PRO336      0.0939
     62  N        248.3860  180.2620  121.5040 N.3   338  ILE338     -0.1245
     63  CA       247.1810  180.0170  120.7230 C.3   338  ILE338      0.1561
     64  C        246.5660  181.3330  120.2650 C.2   338  ILE338      0.2260
     65  O        246.2670  182.2060  121.0790 O.2   338  ILE338     -0.2867
     66  CB       246.1480  179.2100  121.5240 C.3   338  ILE338      0.0252
     67  CG1      246.7530  177.8720  121.9540 C.3   338  ILE338      0.0019
     68  CG2      244.8840  178.9910  120.7040 C.3   338  ILE338      0.0019
     69  CD1      245.8760  177.0760  122.8780 C.3   338  ILE338      0.0001
     70  N        243.9010  183.6230  117.3420 N.3   340  LYS340     -0.1245
     71  CA       242.6340  183.5750  116.6250 C.3   340  LYS340      0.1561
     72  C        242.8470  183.7780  115.1290 C.2   340  LYS340      0.2260
     73  O        243.6430  184.6210  114.7140 O.2   340  LYS340     -0.2867
     74  CB       241.6690  184.6300  117.1670 C.3   340  LYS340      0.0271
     75  CG       241.1540  184.3460  118.5670 C.3   340  LYS340      0.0035
     76  CD       240.3620  183.0490  118.6060 C.3   340  LYS340      0.0206
     77  CE       239.5860  182.9130  119.9050 C.3   340  LYS340      0.1093
     78  NZ       238.7120  181.7070  119.9000 N.3   340  LYS340     -0.1314
     79  N        237.8690  166.0330  120.0320 N.3   353  PRO353     -0.2116
     80  CA       238.5660  167.2820  119.7080 C.3   353  PRO353      0.1372
     81  C        239.6520  167.0240  118.6720 C.2   353  PRO353      0.2244
     82  O        240.5560  166.2250  118.9140 O.2   353  PRO353     -0.2868
     83  CB       239.1630  167.7190  121.0500 C.3   353  PRO353      0.0268
     84  CG       239.1910  166.4810  121.8860 C.3   353  PRO353      0.0207
     85  CD       238.0040  165.6770  121.4540 C.3   353  PRO353      0.0892
     86  N        242.6330  168.0570  115.6870 N.3   355  TYR355     -0.1241
     87  CA       243.7210  168.9850  115.4020 C.3   355  TYR355      0.1605
     88  C        244.2700  168.7750  113.9910 C.2   355  TYR355      0.2264
     89  O        244.6220  167.6570  113.6130 O.2   355  TYR355     -0.2867
     90  CB       244.8430  168.8300  116.4330 C.3   355  TYR355      0.0534
     91  CG       244.3970  169.0310  117.8650 C.ar  355  TYR355     -0.0201
     92  CD1      243.9160  167.9680  118.6200 C.ar  355  TYR355     -0.0009
     93  CD2      244.4620  170.2820  118.4640 C.ar  355  TYR355     -0.0009
     94  CE1      243.5080  168.1470  119.9300 C.ar  355  TYR355      0.0417
     95  CE2      244.0570  170.4700  119.7730 C.ar  355  TYR355      0.0417
     96  CZ       243.5810  169.3990  120.5000 C.ar  355  TYR355      0.1957
     97  OH       243.1770  169.5840  121.8020 O.3   355  TYR355     -0.2866
     98  N        242.7600  174.0800  115.7610 N.3   393  MET393     -0.1230
     99  CA       242.1820  173.4660  116.9530 C.3   393  MET393      0.1702
    100  C        240.6590  173.4270  116.8810 C.2   393  MET393      0.2592
    101  O        239.9810  174.3680  117.2940 O.2   393  MET393     -0.2718
    102  CB       242.6350  174.2170  118.2050 C.3   393  MET393      0.0401
    103  CG       244.1470  174.3330  118.3320 C.3   393  MET393      0.0596
    104  SD       244.6730  175.3780  119.7040 S.3   393  MET393     -0.1393
    105  CE       243.9270  174.5140  121.0860 C.3   393  MET393      0.0692
    106  N        240.1280  172.3270  116.3570 N.am  394  LEU394     -0.1966
    107  CA       238.6900  172.1760  116.1720 C.3   394  LEU394      0.1713
    108  C        238.0070  171.6450  117.4280 C.2   394  LEU394      0.2458
    109  O        238.4810  170.6890  118.0420 O.2   394  LEU394     -0.2730
    110  CB       238.4030  171.2430  114.9940 C.3   394  LEU394      0.0310
    111  CG       238.9620  171.6740  113.6390 C.3   394  LEU394      0.0022
    112  CD1      238.7110  170.6030  112.5890 C.3   394  LEU394      0.0001
    113  CD2      238.3520  172.9980  113.2140 C.3   394  LEU394      0.0001
    114  N        236.8830  172.2670  117.8110 N.am  395  PRO395     -0.2716
    115  CA       236.0960  171.8060  118.9580 C.3   395  PRO395      0.1521
    116  C        235.3770  170.5000  118.6400 C.2   395  PRO395      0.2440
    117  O        235.1130  170.2290  117.4680 O.2   395  PRO395     -0.2731
    118  CB       235.1010  172.9460  119.1770 C.3   395  PRO395      0.0310
    119  CG       234.9270  173.5400  117.8220 C.3   395  PRO395      0.0237
    120  CD       236.2730  173.4390  117.1580 C.3   395  PRO395      0.0939
    121  N        235.0730  169.6940  119.6680 N.am  396  PRO396     -0.2727
    122  CA       234.3310  168.4490  119.4460 C.3   396  PRO396      0.1402
    123  C        232.9060  168.7400  118.9920 C.2   396  PRO396      0.2269
    124  O        232.3050  169.7020  119.4700 O.2   396  PRO396     -0.2865
    125  CB       234.3530  167.7740  120.8200 C.3   396  PRO396      0.0296
    126  CG       234.5380  168.8890  121.7860 C.3   396  PRO396      0.0237
    127  CD       235.3930  169.9050  121.0900 C.3   396  PRO396      0.0939
    128  N        226.7870  172.7650  117.1170 N.3   401  TYR401     -0.1241
    129  CA       227.7670  172.9280  116.0510 C.3   401  TYR401      0.1605
    130  C        228.2380  171.5790  115.5230 C.2   401  TYR401      0.2264
    131  O        229.0380  170.8930  116.1600 O.2   401  TYR401     -0.2867
    132  CB       228.9620  173.7500  116.5360 C.3   401  TYR401      0.0534
    133  CG       228.6400  175.2020  116.8120 C.ar  401  TYR401     -0.0201
    134  CD1      227.4740  175.7830  116.3300 C.ar  401  TYR401     -0.0009
    135  CD2      229.5080  175.9940  117.5510 C.ar  401  TYR401     -0.0009
    136  CE1      227.1800  177.1120  116.5820 C.ar  401  TYR401      0.0417
    137  CE2      229.2230  177.3220  117.8070 C.ar  401  TYR401      0.0417
    138  CZ       228.0590  177.8760  117.3210 C.ar  401  TYR401      0.1957
    139  OH       227.7740  179.1980  117.5750 O.3   401  TYR401     -0.2866
    140  N        231.7130  173.5470  110.8180 N.3   404  LEU404     -0.1245
    141  CA       232.1980  174.9240  110.7980 C.3   404  LEU404      0.1561
    142  C        232.3560  175.4190  109.3660 C.2   404  LEU404      0.2260
    143  O        232.6990  174.6480  108.4690 O.2   404  LEU404     -0.2867
    144  CB       233.5260  175.0380  111.5500 C.3   404  LEU404      0.0270
    145  CG       233.4660  175.6260  112.9620 C.3   404  LEU404      0.0019
    146  CD1      232.3810  174.9550  113.7890 C.3   404  LEU404      0.0001
    147  CD2      234.8180  175.4990  113.6480 C.3   404  LEU404      0.0001
    148  N        234.6740  181.7300  109.9430 N.3   408  GLU408     -0.1231
    149  CA       234.4820  181.7160  111.3900 C.3   408  GLU408      0.1699
    150  C        235.8060  181.7940  112.1390 C.2   408  GLU408      0.2592
    151  O        236.8180  181.2540  111.6940 O.2   408  GLU408     -0.2718
    152  CB       233.7150  180.4660  111.8220 C.3   408  GLU408      0.0402
    153  CG       232.2710  180.4390  111.3600 C.3   408  GLU408      0.1161
    154  CD       231.4370  179.4480  112.1420 C.2   408  GLU408      0.3649
    155  OE1      231.8960  179.0120  113.2180 O.co2 408  GLU408     -0.2457
    156  OE2      230.3250  179.1080  111.6840 O.co2 408  GLU408     -0.2457
    157  N        235.7870  182.4710  113.2810 N.am  409  VAL409     -0.1966
    158  CA       236.9820  182.6280  114.0990 C.3   409  VAL409      0.1727
    159  C        237.2730  181.3520  114.8790 C.2   409  VAL409      0.2616
    160  O        236.4410  180.8850  115.6570 O.2   409  VAL409     -0.2715
    161  CB       236.8440  183.8070  115.0770 C.3   409  VAL409      0.0290
    162  CG1      238.1090  183.9590  115.9040 C.3   409  VAL409      0.0023
    163  CG2      236.5430  185.0890  114.3180 C.3   409  VAL409      0.0023
    164  N        238.4580  180.7910  114.6640 N.am  410  VAL410     -0.1963
    165  CA       238.8430  179.5370  115.3000 C.3   410  VAL410      0.1727
    166  C        240.1960  179.6450  115.9960 C.2   410  VAL410      0.2616
    167  O        240.9670  180.5680  115.7360 O.2   410  VAL410     -0.2715
    168  CB       238.9020  178.3890  114.2770 C.3   410  VAL410      0.0290
    169  CG1      237.5190  178.1030  113.7150 C.3   410  VAL410      0.0023
    170  CG2      239.8750  178.7290  113.1630 C.3   410  VAL410      0.0023
    171  N        240.4760  178.6920  116.8790 N.am  411  ASP411     -0.1971
    172  CA       241.7490  178.6520  117.5890 C.3   411  ASP411      0.1709
    173  C        242.8200  177.9510  116.7670 C.2   411  ASP411      0.2293
    174  O        242.6100  176.8470  116.2680 O.2   411  ASP411     -0.2864
    175  CB       241.5940  177.9470  118.9370 C.3   411  ASP411      0.1436
    176  CG       240.7980  178.7610  119.9290 C.2   411  ASP411      0.3671
    177  OD1      240.8910  180.0050  119.8830 O.co2 411  ASP411     -0.2456
    178  OD2      240.0830  178.1570  120.7560 O.co2 411  ASP411     -0.2456
    179  N        247.0420  176.9540  116.9350 N.3   413  MET413     -0.1245
    180  CA       248.2590  176.8900  117.7310 C.3   413  MET413      0.1570
    181  C        249.4950  177.0350  116.8550 C.2   413  MET413      0.2261
    182  O        249.7280  176.2290  115.9550 O.2   413  MET413     -0.2867
    183  CB       248.3170  175.5750  118.5060 C.3   413  MET413      0.0387
    184  CG       249.6230  175.3390  119.2410 C.3   413  MET413      0.0595
    185  SD       249.6550  173.7120  120.0130 S.3   413  MET413     -0.1393
    186  CE       248.1480  173.7890  120.9760 C.3   413  MET413      0.0692
@<TRIPOS>BOND
     1   143   142    2
     2   142   141    1
     3   148   149    1
     4   141   140    1
     5   141   144    1
     6   153   152    1
     7   153   154    1
     8   149   152    1
     9   149   150    1
    10   144   145    1
    11   156   154   ar
    12   151   150    2
    13   150   157   am
    14   154   155   ar
    15   112   111    1
    16   145   147    1
    17   145   146    1
    18   170   168    1
    19   113   111    1
    20   157   158    1
    21    89    88    2
    22   111   110    1
    23   169   168    1
    24    88    87    1
    25   158   159    1
    26   158   161    1
    27   168   165    1
    28   163   161    1
    29   164   159   am
    30   164   165    1
    31    73    72    2
    32   159   160    2
    33   110   107    1
    34   161   162    1
    35    72    71    1
    36   165   166    1
    37    87    86    1
    38    87    90    1
    39   130   129    1
    40   130   131    2
    41   167   166    2
    42    98    99    1
    43   182   181    2
    44   166   171   am
    45   129   132    1
    46   129   128    1
    47   107   106    1
    48   107   108    1
    49   174   173    2
    50   134   136   ar
    51   134   133   ar
    52   106   100   am
    53    90    91    1
    54   132   133    1
    55   136   138   ar
    56    71    74    1
    57    71    70    1
    58   173   172    1
    59   133   135   ar
    60   181   180    1
    61   171   172    1
    62   100    99    1
    63   100   101    2
    64   179   180    1
    65    99   102    1
    66   120   114    1
    67   120   119    1
    68    74    75    1
    69   138   139    1
    70   138   137   ar
    71   108   114   am
    72   108   109    2
    73   117   116    2
    74   135   137   ar
    75   172   175    1
    76   180   183    1
    77   114   115    1
    78   119   118    1
    79    91    93   ar
    80    91    92   ar
    81   102   103    1
    82   103   104    1
    83    93    95   ar
    84   183   184    1
    85    75    76    1
    86    76    77    1
    87    92    94   ar
    88   116   115    1
    89   116   121   am
    90    81    82    2
    91    81    80    1
    92   175   176    1
    93   115   118    1
    94   123   122    1
    95   123   124    2
    96   184   185    1
    97   122   121    1
    98   122   125    1
    99   121   127    1
   100   104   105    1
   101    80    79    1
   102    80    83    1
   103    95    96   ar
   104   177   176   ar
   105    78    77    1
   106   176   178   ar
   107    94    96   ar
   108    42    41    1
   109   185   186    1
   110    79    85    1
   111    41    43    1
   112    41    40    1
   113    64    63    1
   114    64    65    2
   115    96    97    1
   116    36    37    1
   117    68    66    1
   118    63    62    1
   119    63    66    1
   120   125   126    1
   121    83    84    1
   122   127   126    1
   123    40    37    1
   124    85    84    1
   125    66    67    1
   126    37    38    1
   127    67    69    1
   128    59    56    1
   129    59    60    1
   130    38    39    2
   131     8     7    1
   132    57    56    1
   133    57    58    2
   134    56    55    1
   135    60    61    1
   136     7     6    1
   137     6     5    1
   138     5     2    1
   139    55    61    1
   140    55    46   am
   141    47    46    2
   142    46    45    1
   143     2     1    1
   144     2     3    1
   145    25    23   ar
   146    25    27   ar
   147    23    22   ar
   148     3     4    2
   149     3     9   am
   150    27    26   ar
   151    45    48    1
   152    45    44    1
   153    22    21    1
   154    22    24   ar
   155    15    14   ar
   156     9    10    1
   157    21    18    1
   158    48    49    1
   159    26    24   ar
   160    16    14   ar
   161    14    13    1
   162    18    17    1
   163    18    19    1
   164    10    13    1
   165    10    11    1
   166    49    50    1
   167    11    12    2
   168    19    20    2
   169    19    28   am
   170    50    51    1
   171    51    52    2
   172    28    29    1
   173    52    54    1
   174    52    53    1
   175    29    30    1
   176    29    32    1
   177    34    32    1
   178    30    31    2
   179    32    33    1
   180    33    35    1
