@<TRIPOS>MOLECULE
tmp/4tk5B00.pdb
 217 216 0 0 0
SMALL
GASTEIGER

@<TRIPOS>ATOM
      1  N         15.5960  -12.2210   37.5270 N.3    74  PHE74      -0.1227
      2  CA        16.2600  -11.2920   38.4330 C.3    74  PHE74       0.1736
      3  C         17.1820  -10.3170   37.7300 C.2    74  PHE74       0.2595
      4  O         17.7770  -10.6310   36.6940 O.2    74  PHE74      -0.2718
      5  CB        17.0430  -12.0560   39.5250 C.3    74  PHE74       0.0547
      6  CG        16.1720  -12.9480   40.3820 C.ar   74  PHE74      -0.0202
      7  CD1       15.5050  -12.4390   41.4890 C.ar   74  PHE74      -0.0042
      8  CD2       16.0500  -14.3100   40.1010 C.ar   74  PHE74      -0.0042
      9  CE1       14.7120  -13.2680   42.2930 C.ar   74  PHE74      -0.0003
     10  CE2       15.2380  -15.1330   40.8910 C.ar   74  PHE74      -0.0003
     11  CZ        14.5630  -14.6040   41.9680 C.ar   74  PHE74      -0.0000
     12  N         17.3360   -9.1300   38.3350 N.am   75  HIS75      -0.1961
     13  CA        18.2840   -8.1240   37.8690 C.3    75  HIS75       0.1787
     14  C         18.9390   -7.4570   39.0690 C.2    75  HIS75       0.2621
     15  O         18.2520   -6.8710   39.9000 O.2    75  HIS75      -0.2715
     16  CB        17.6230   -7.0850   36.9440 C.3    75  HIS75       0.0785
     17  CG        18.5990   -6.1100   36.3620 C.ar   75  HIS75       0.0821
     18  ND1       19.3760   -6.4340   35.2490 N.ar   75  HIS75      -0.2267
     19  CD2       18.9050   -4.8550   36.7590 C.ar   75  HIS75       0.1154
     20  CE1       20.1090   -5.3600   35.0000 C.ar   75  HIS75       0.1986
     21  NE2       19.8600   -4.3850   35.8810 N.ar   75  HIS75      -0.2212
     22  N         20.2560   -7.5610   39.1480 N.am   76  GLY76      -0.1940
     23  CA        21.0520   -6.9020   40.1810 C.3    76  GLY76       0.2014
     24  C         21.7270   -5.6870   39.5860 C.2    76  GLY76       0.2640
     25  O         22.2380   -5.7490   38.4640 O.2    76  GLY76      -0.2714
     26  N         21.6970   -4.5630   40.3030 N.am   77  SER77      -0.1936
     27  CA        22.2880   -3.3140   39.8150 C.3    77  SER77       0.2040
     28  C         22.3950   -2.2680   40.9130 C.2    77  SER77       0.2485
     29  O         21.4350   -2.0920   41.6670 O.2    77  SER77      -0.2729
     30  CB        21.4060   -2.7230   38.7100 C.3    77  SER77       0.2129
     31  OG        21.8680   -1.4560   38.2850 O.3    77  SER77      -0.2179
     32  N         23.4610   -1.4350   40.9210 N.am   78  PRO78      -0.2715
     33  CA        23.4790   -0.2970   41.8630 C.3    78  PRO78       0.1536
     34  C         22.4310    0.7780   41.4730 C.2    78  PRO78       0.2598
     35  O         22.1520    1.6690   42.2680 O.2    78  PRO78      -0.2715
     36  CB        24.9190    0.2540   41.7200 C.3    78  PRO78       0.0310
     37  CG        25.6890   -0.7770   40.9370 C.3    78  PRO78       0.0237
     38  CD        24.6820   -1.4580   40.0830 C.3    78  PRO78       0.0939
     39  N         21.8360    0.6810   40.2680 N.am   79  PHE79      -0.1974
     40  CA        20.8850    1.6660   39.7220 C.3    79  PHE79       0.1639
     41  C         19.4010    1.2890   39.7850 C.2    79  PHE79       0.2290
     42  O         18.5880    1.8220   39.0160 O.2    79  PHE79      -0.2864
     43  CB        21.3100    2.0930   38.3070 C.3    79  PHE79       0.0560
     44  CG        22.7780    2.4600   38.2270 C.ar   79  PHE79      -0.0200
     45  CD1       23.2370    3.6700   38.7270 C.ar   79  PHE79      -0.0042
     46  CD2       23.7040    1.5750   37.6880 C.ar   79  PHE79      -0.0042
     47  CE1       24.5980    3.9920   38.6900 C.ar   79  PHE79      -0.0003
     48  CE2       25.0620    1.9010   37.6410 C.ar   79  PHE79      -0.0003
     49  CZ        25.4990    3.1080   38.1380 C.ar   79  PHE79      -0.0000
     50  N         16.7760    4.2510   39.8670 N.3    82  ALA82      -0.1231
     51  CA        16.5660    4.9070   38.5750 C.3    82  ALA82       0.1694
     52  C         15.7160    3.9850   37.6670 C.2    82  ALA82       0.2591
     53  O         14.8510    4.4770   36.9450 O.2    82  ALA82      -0.2718
     54  CB        17.9060    5.2150   37.9130 C.3    82  ALA82       0.0304
     55  N         15.9290    2.6440   37.7500 N.am   83  ILE83      -0.1980
     56  CA        15.1660    1.6740   36.9660 C.3    83  ILE83       0.1595
     57  C         13.6650    1.6970   37.3390 C.2    83  ILE83       0.2287
     58  O         12.8170    1.7340   36.4440 O.2    83  ILE83      -0.2864
     59  CB        15.7840    0.2440   37.0420 C.3    83  ILE83       0.0276
     60  CG1       17.2200    0.2240   36.4050 C.3    83  ILE83       0.0022
     61  CG2       14.8470   -0.7920   36.3450 C.3    83  ILE83       0.0022
     62  CD1       18.0900   -1.0050   36.7740 C.3    83  ILE83       0.0001
     63  N         12.3760    5.3150   36.0500 N.3    86  LYS86      -0.1231
     64  CA        12.5130    5.6110   34.6260 C.3    86  LYS86       0.1693
     65  C         12.4350    4.4140   33.7000 C.2    86  LYS86       0.2593
     66  O         12.2950    4.6040   32.5010 O.2    86  LYS86      -0.2718
     67  CB        13.8210    6.4090   34.3720 C.3    86  LYS86       0.0285
     68  CG        13.9540    7.6830   35.2240 C.3    86  LYS86       0.0035
     69  CD        14.4490    8.8980   34.4280 C.3    86  LYS86       0.0206
     70  CE        14.1670   10.2070   35.1350 C.3    86  LYS86       0.1093
     71  NZ        12.8780   10.8320   34.7070 N.3    86  LYS86      -0.1314
     72  N         12.5410    3.2040   34.2540 N.am   87  GLY87      -0.1942
     73  CA        12.5250    1.9620   33.4830 C.3    87  GLY87       0.2014
     74  C         13.9100    1.5480   33.0560 C.2    87  GLY87       0.2639
     75  O         14.8660    2.3060   33.2280 O.2    87  GLY87      -0.2714
     76  N         14.0240    0.3310   32.5000 N.am   88  PHE88      -0.1959
     77  CA        15.2950   -0.1540   31.9720 C.3    88  PHE88       0.1771
     78  C         15.6240    0.6980   30.7450 C.2    88  PHE88       0.2619
     79  O         14.7230    1.1320   30.0240 O.2    88  PHE88      -0.2715
     80  CB        15.1930   -1.6330   31.6020 C.3    88  PHE88       0.0574
     81  CG        15.1850   -2.5150   32.8280 C.ar   88  PHE88      -0.0200
     82  CD1       16.3800   -2.8540   33.4730 C.ar   88  PHE88      -0.0042
     83  CD2       13.9920   -2.9870   33.3530 C.ar   88  PHE88      -0.0042
     84  CE1       16.3810   -3.7160   34.5720 C.ar   88  PHE88      -0.0003
     85  CE2       13.9920   -3.8560   34.4500 C.ar   88  PHE88      -0.0003
     86  CZ        15.1850   -4.1960   35.0590 C.ar   88  PHE88      -0.0000
     87  N         16.8970    1.0120   30.5790 N.am   89  ASP89      -0.1971
     88  CA        17.3430    1.8710   29.5070 C.3    89  ASP89       0.1709
     89  C         18.5900    1.2780   28.8640 C.2    89  ASP89       0.2293
     90  O         19.6650    1.3050   29.4620 O.2    89  ASP89      -0.2864
     91  CB        17.5850    3.3030   30.0500 C.3    89  ASP89       0.1436
     92  CG        17.8440    4.3720   28.9850 C.2    89  ASP89       0.3671
     93  OD1       17.9750    4.0140   27.8000 O.co2  89  ASP89      -0.2456
     94  OD2       17.9030    5.5510   29.3390 O.co2  89  ASP89      -0.2456
     95  N         22.2460    2.8630   28.5160 N.3    92  HIS92      -0.1226
     96  CA        23.2360    2.6910   29.5840 C.3    92  HIS92       0.1752
     97  C         24.0370    1.4090   29.3910 C.2    92  HIS92       0.2596
     98  O         24.9590    1.1510   30.1680 O.2    92  HIS92      -0.2718
     99  CB        22.5840    2.7320   30.9750 C.3    92  HIS92       0.0759
    100  CG        22.0640    4.0830   31.3260 C.ar   92  HIS92       0.0818
    101  ND1       22.9140    5.1130   31.6400 N.ar   92  HIS92      -0.2268
    102  CD2       20.7930    4.5250   31.4030 C.ar   92  HIS92       0.1154
    103  CE1       22.1400    6.1560   31.8790 C.ar   92  HIS92       0.1986
    104  NE2       20.8570    5.8490   31.7420 N.ar   92  HIS92      -0.2212
    105  N         23.7220    0.6330   28.3340 N.am   93  ALA93      -0.1966
    106  CA        24.4250   -0.5970   27.9770 C.3    93  ALA93       0.1728
    107  C         25.4540   -0.3250   26.8570 C.2    93  ALA93       0.2616
    108  O         25.1170    0.2170   25.7900 O.2    93  ALA93      -0.2715
    109  CB        23.4340   -1.6590   27.5310 C.3    93  ALA93       0.0334
    110  N         26.7110   -0.6730   27.1330 N.am   94  TYR94      -0.1974
    111  CA        27.8450   -0.5690   26.2090 C.3    94  TYR94       0.1639
    112  C         28.5470   -1.9420   26.2130 C.2    94  TYR94       0.2290
    113  O         28.7160   -2.5280   27.2900 O.2    94  TYR94      -0.2864
    114  CB        28.8630    0.5150   26.6420 C.3    94  TYR94       0.0560
    115  CG        28.2900    1.8650   27.0090 C.ar   94  TYR94      -0.0198
    116  CD1       28.1570    2.8680   26.0570 C.ar   94  TYR94      -0.0009
    117  CD2       27.9570    2.1690   28.3270 C.ar   94  TYR94      -0.0009
    118  CE1       27.6490    4.1220   26.3940 C.ar   94  TYR94       0.0417
    119  CE2       27.4590    3.4210   28.6780 C.ar   94  TYR94       0.0417
    120  CZ        27.3060    4.3940   27.7080 C.ar   94  TYR94       0.1957
    121  OH        26.8390    5.6310   28.0670 O.3    94  TYR94      -0.2866
    122  N         31.2330   -4.1680   28.0410 N.3    95  GLY95      -0.1210
    123  CA        31.4770   -5.5630   28.3400 C.3    95  GLY95       0.1956
    124  C         30.1880   -6.3270   28.2580 C.2    95  GLY95       0.2612
    125  O         29.2000   -5.8320   27.7690 O.2    95  GLY95      -0.2717
    126  N         30.1910   -7.5440   28.7530 N.am   96  GLY96      -0.1956
    127  CA        29.0150   -8.3740   28.6720 C.3    96  GLY96       0.1869
    128  C         29.2010   -9.2890   27.4970 C.2    96  GLY96       0.2309
    129  O         29.5450   -8.8720   26.4260 O.2    96  GLY96      -0.2863
    130  N         27.1280   -8.5050   24.2350 N.3    99  GLY99      -0.1225
    131  CA        27.1410   -7.1270   23.7710 C.3    99  GLY99       0.1811
    132  C         26.3160   -6.1490   24.5890 C.2    99  GLY99       0.2280
    133  O         26.0770   -6.3450   25.7850 O.2    99  GLY99      -0.2866
    134  N         23.3950   -5.1200   25.7410 N.3   101  GLY101     -0.1210
    135  CA        22.0410   -5.4090   26.1580 C.3   101  GLY101      0.1956
    136  C         21.8160   -5.2280   27.6420 C.2   101  GLY101      0.2612
    137  O         22.7170   -4.7870   28.3650 O.2   101  GLY101     -0.2717
    138  N         20.5830   -5.5670   28.0900 N.am  102  ILE102     -0.1965
    139  CA        20.1600   -5.5220   29.4870 C.3   102  ILE102      0.1727
    140  C         20.0690   -6.9990   29.8680 C.2   102  ILE102      0.2616
    141  O         19.3720   -7.7530   29.1930 O.2   102  ILE102     -0.2715
    142  CB        18.8180   -4.7700   29.7020 C.3   102  ILE102      0.0290
    143  CG1       18.8780   -3.3470   29.0690 C.3   102  ILE102      0.0022
    144  CG2       18.5010   -4.6790   31.2200 C.3   102  ILE102      0.0023
    145  CD1       17.5180   -2.7830   28.7370 C.3   102  ILE102      0.0001
    146  N         20.8210   -7.3940   30.8980 N.am  103  TYR103     -0.1960
    147  CA        21.0220   -8.7770   31.3380 C.3   103  TYR103      0.1771
    148  C         20.2150   -9.1550   32.5420 C.2   103  TYR103      0.2620
    149  O         20.1220   -8.3950   33.5030 O.2   103  TYR103     -0.2715
    150  CB        22.5110   -9.0470   31.6360 C.3   103  TYR103      0.0574
    151  CG        23.4450   -8.9860   30.4490 C.ar  103  TYR103     -0.0198
    152  CD1       23.6810   -7.7840   29.7810 C.ar  103  TYR103     -0.0009
    153  CD2       24.1170  -10.1260   30.0050 C.ar  103  TYR103     -0.0009
    154  CE1       24.5280   -7.7250   28.6760 C.ar  103  TYR103      0.0417
    155  CE2       25.0060  -10.0680   28.9280 C.ar  103  TYR103      0.0417
    156  CZ        25.2040   -8.8640   28.2640 C.ar  103  TYR103      0.1957
    157  OH        26.0600   -8.7840   27.1900 O.3   103  TYR103     -0.2866
    158  N         19.6730  -10.3760   32.5070 N.am  104  PHE104     -0.1960
    159  CA        18.8470  -10.9340   33.5830 C.3   104  PHE104      0.1771
    160  C         19.2780  -12.3680   33.8590 C.2   104  PHE104      0.2619
    161  O         19.8510  -13.0340   32.9880 O.2   104  PHE104     -0.2715
    162  CB        17.3460  -10.9040   33.1820 C.3   104  PHE104      0.0574
    163  CG        16.8130   -9.5150   32.9470 C.ar  104  PHE104     -0.0200
    164  CD1       16.9370   -8.9060   31.6990 C.ar  104  PHE104     -0.0042
    165  CD2       16.1900   -8.8100   33.9710 C.ar  104  PHE104     -0.0042
    166  CE1       16.4780   -7.6030   31.4930 C.ar  104  PHE104     -0.0003
    167  CE2       15.7210   -7.5140   33.7590 C.ar  104  PHE104     -0.0003
    168  CZ        15.8720   -6.9200   32.5230 C.ar  104  PHE104     -0.0000
    169  N         18.9830  -12.8480   35.0630 N.am  105  ALA105     -0.1977
    170  CA        19.3350  -14.2080   35.4480 C.3   105  ALA105      0.1597
    171  C         18.1160  -14.9350   35.9870 C.2   105  ALA105      0.2287
    172  O         17.2210  -14.3010   36.5410 O.2   105  ALA105     -0.2864
    173  CB        20.4340  -14.1620   36.5170 C.3   105  ALA105      0.0319
    174  N         23.1160  -15.2580   41.0180 N.3   110  LYS110     -0.1231
    175  CA        23.8820  -14.7180   39.8810 C.3   110  LYS110      0.1693
    176  C         23.6630  -13.1890   39.8610 C.2   110  LYS110      0.2592
    177  O         24.6350  -12.4450   39.7520 O.2   110  LYS110     -0.2718
    178  CB        23.4440  -15.3510   38.5410 C.3   110  LYS110      0.0285
    179  CG        24.2800  -14.8770   37.3560 C.3   110  LYS110      0.0035
    180  CD        24.0460  -15.7350   36.1240 C.3   110  LYS110      0.0206
    181  CE        24.9010  -15.3010   34.9580 C.3   110  LYS110      0.1093
    182  NZ        24.8630  -16.2560   33.8280 N.3   110  LYS110     -0.1314
    183  N         22.3960  -12.7320   39.9710 N.am  111  SER111     -0.1952
    184  CA        22.0630  -11.3000   39.9950 C.3   111  SER111      0.1924
    185  C         22.6670  -10.6060   41.2300 C.2   111  SER111      0.2314
    186  O         23.0520   -9.4440   41.1560 O.2   111  SER111     -0.2863
    187  CB        20.5490  -11.1070   39.9470 C.3   111  SER111      0.2116
    188  OG        20.1180  -11.3920   38.6240 O.3   111  SER111     -0.2180
    189  N         25.9880   -8.7420   40.9960 N.3   114  TYR114     -0.1241
    190  CA        25.9890   -7.4530   40.2960 C.3   114  TYR114      0.1605
    191  C         25.4140   -6.2810   41.0850 C.2   114  TYR114      0.2264
    192  O         25.4540   -5.1480   40.5900 O.2   114  TYR114     -0.2867
    193  CB        25.2560   -7.5860   38.9510 C.3   114  TYR114      0.0534
    194  CG        26.0000   -8.4480   37.9590 C.ar  114  TYR114     -0.0201
    195  CD1       26.9550   -7.8980   37.1100 C.ar  114  TYR114     -0.0009
    196  CD2       25.7780   -9.8210   37.8940 C.ar  114  TYR114     -0.0009
    197  CE1       27.6310   -8.6820   36.1770 C.ar  114  TYR114      0.0417
    198  CE2       26.4770  -10.6230   36.9950 C.ar  114  TYR114      0.0417
    199  CZ        27.3950  -10.0450   36.1290 C.ar  114  TYR114      0.1957
    200  OH        28.0560  -10.8230   35.2080 O.3   114  TYR114     -0.2866
    201  N         29.9470   -4.5210   38.6470 N.3   118  ILE118     -0.1245
    202  CA        30.4570   -5.6520   37.8580 C.3   118  ILE118      0.1561
    203  C         31.4760   -6.4090   38.7090 C.2   118  ILE118      0.2260
    204  O         32.3680   -5.7930   39.2970 O.2   118  ILE118     -0.2867
    205  CB        31.0370   -5.1900   36.4800 C.3   118  ILE118      0.0252
    206  CG1       29.9770   -4.4540   35.6080 C.3   118  ILE118      0.0019
    207  CG2       31.7210   -6.3420   35.7060 C.3   118  ILE118      0.0019
    208  CD1       28.5930   -5.0810   35.4690 C.3   118  ILE118      0.0001
    209  N         21.7360  -16.8600   31.2460 N.3   181  GLU181     -0.1245
    210  CA        21.5310  -15.4280   31.2430 C.3   181  GLU181      0.1567
    211  C         20.6870  -15.0370   30.0400 C.2   181  GLU181      0.2260
    212  O         20.6710  -15.7560   29.0260 O.2   181  GLU181     -0.2867
    213  CB        22.7910  -14.5910   31.4690 C.3   181  GLU181      0.0388
    214  CG        23.8320  -14.6380   30.3650 C.3   181  GLU181      0.1160
    215  CD        25.1170  -13.9850   30.8310 C.2   181  GLU181      0.3649
    216  OE1       25.6310  -14.3690   31.9050 O.co2 181  GLU181     -0.2457
    217  OE2       25.5810  -13.0480   30.1530 O.co2 181  GLU181     -0.2457
@<TRIPOS>BOND
     1   131   130    1
     2   131   132    1
     3   132   133    2
     4   134   135    1
     5   108   107    2
     6   116   118   ar
     7   116   115   ar
     8   135   136    1
     9   111   112    1
    10   111   114    1
    11   111   110    1
    12   112   113    2
    13   118   120   ar
    14   129   128    2
    15   114   115    1
    16   107   110   am
    17   107   106    1
    18   115   117   ar
    19   157   156    1
    20   128   127    1
    21   109   106    1
    22   136   138   am
    23   136   137    2
    24   120   121    1
    25   120   119   ar
    26   125   124    2
    27    93    92   ar
    28   106   105    1
    29   122   123    1
    30   138   139    1
    31   124   123    1
    32   124   126   am
    33   156   154   ar
    34   156   155   ar
    35   117   119   ar
    36   105    97   am
    37    95    96    1
    38   127   126    1
    39   154   152   ar
    40   145   143    1
    41    89    90    2
    42    89    88    1
    43   155   153   ar
    44    92    94   ar
    45    92    91    1
    46   212   211    2
    47   143   142    1
    48   141   140    2
    49    97    96    1
    50    97    98    2
    51   139   142    1
    52   139   140    1
    53    88    91    1
    54    88    87    1
    55    96    99    1
    56   142   144    1
    57   152   151   ar
    58   140   146   am
    59   153   151   ar
    60    79    78    2
    61   211   210    1
    62   217   215   ar
    63   214   215    1
    64   214   213    1
    65   151   150    1
    66    87    78   am
    67    78    77    1
    68   215   216   ar
    69   146   147    1
    70    99   100    1
    71   210   209    1
    72   210   213    1
    73   100   102   ar
    74   100   101   ar
    75   147   150    1
    76   147   148    1
    77   102   104   ar
    78   166   164   ar
    79   166   168   ar
    80    80    77    1
    81    80    81    1
    82   101   103   ar
    83   164   163   ar
    84   104   103   ar
    85    77    76    1
    86    76    74   am
    87    66    65    2
    88   158   148   am
    89   158   159    1
    90   168   167   ar
    91   148   149    2
    92    81    83   ar
    93    81    82   ar
    94   163   162    1
    95   163   165   ar
    96   161   160    2
    97    74    75    2
    98    74    73    1
    99   162   159    1
   100    83    85   ar
   101    82    84   ar
   102    73    72    1
   103   159   160    1
   104    65    72   am
   105    65    64    1
   106   167   165   ar
   107   182   181    1
   108   160   169   am
   109    67    64    1
   110    67    68    1
   111    69    70    1
   112    69    68    1
   113    85    86   ar
   114    84    86   ar
   115    64    63    1
   116    71    70    1
   117   181   180    1
   118    20    18   ar
   119    20    21   ar
   120   169   170    1
   121   200   199    1
   122    18    17   ar
   123   170   171    1
   124   170   173    1
   125   208   206    1
   126   206   205    1
   127   207   205    1
   128    21    19   ar
   129   171   172    2
   130   180   179    1
   131   199   197   ar
   132   199   198   ar
   133   197   195   ar
   134    61    59    1
   135    17    19   ar
   136    17    16    1
   137    60    62    1
   138    60    59    1
   139    58    57    2
   140   205   202    1
   141     4     3    2
   142    16    13    1
   143    53    52    2
   144    56    59    1
   145    56    57    1
   146    56    55    1
   147   198   196   ar
   148   195   194   ar
   149   179   178    1
   150     1     2    1
   151    48    46   ar
   152    48    49   ar
   153    52    55   am
   154    52    51    1
   155    46    44   ar
   156     3    12   am
   157     3     2    1
   158   202   201    1
   159   202   203    1
   160    13    12    1
   161    13    14    1
   162   196   194   ar
   163    54    51    1
   164   194   193    1
   165    49    47   ar
   166    44    43    1
   167    44    45   ar
   168    31    30    1
   169    43    40    1
   170     2     5    1
   171    25    24    2
   172   178   175    1
   173    51    50    1
   174   188   187    1
   175    47    45   ar
   176   203   204    2
   177    30    27    1
   178   193   190    1
   179    42    41    2
   180    14    22   am
   181    14    15    2
   182    22    23    1
   183     5     6    1
   184    24    23    1
   185    24    26   am
   186    40    41    1
   187    40    39    1
   188   177   176    2
   189    27    26    1
   190    27    28    1
   191   176   175    1
   192   176   183   am
   193   175   174    1
   194   187   184    1
   195   183   184    1
   196   184   185    1
   197    38    32    1
   198    38    37    1
   199     8     6   ar
   200     8    10   ar
   201    39    34   am
   202   190   189    1
   203   190   191    1
   204     6     7   ar
   205   192   191    2
   206    10    11   ar
   207    28    32   am
   208    28    29    2
   209    32    33    1
   210    37    36    1
   211   186   185    2
   212    34    33    1
   213    34    35    2
   214     7     9   ar
   215    36    33    1
   216    11     9   ar
