@<TRIPOS>MOLECULE
tmp/4tkbA00.pdb
 197 183 0 0 0
SMALL
GASTEIGER

@<TRIPOS>ATOM
      1  N          2.6680   20.6370   12.3920 N.3    17  PHE17      -0.1241
      2  CA         1.2800   21.0640   12.3990 C.3    17  PHE17       0.1605
      3  C          1.1300   22.5100   11.9490 C.2    17  PHE17       0.2264
      4  O          0.1450   22.8560   11.2800 O.2    17  PHE17      -0.2867
      5  CB         0.6470   20.8120   13.7670 C.3    17  PHE17       0.0534
      6  CG        -0.8530   20.9690   13.8290 C.ar   17  PHE17      -0.0203
      7  CD1       -1.7120   20.4270   12.8780 C.ar   17  PHE17      -0.0042
      8  CD2       -1.4140   21.5880   14.9400 C.ar   17  PHE17      -0.0042
      9  CE1       -3.0790   20.4940   13.0200 C.ar   17  PHE17      -0.0003
     10  CE2       -2.7890   21.6570   15.0760 C.ar   17  PHE17      -0.0003
     11  CZ        -3.6280   21.1220   14.1330 C.ar   17  PHE17      -0.0000
     12  N          1.0380   22.5570    8.2170 N.3    20  TYR20      -0.1227
     13  CA        -0.2430   22.0680    7.7250 C.3    20  TYR20       0.1736
     14  C         -1.3310   23.1430    7.8550 C.2    20  TYR20       0.2595
     15  O         -2.0600   23.4380    6.9020 O.2    20  TYR20      -0.2718
     16  CB        -0.5990   20.7910    8.4760 C.3    20  TYR20       0.0548
     17  CG        -1.9270   20.1970    8.0810 C.ar   20  TYR20      -0.0200
     18  CD1       -2.0710   19.5140    6.8770 C.ar   20  TYR20      -0.0009
     19  CD2       -3.0500   20.3440    8.8790 C.ar   20  TYR20      -0.0009
     20  CE1       -3.2860   18.9850    6.4900 C.ar   20  TYR20       0.0417
     21  CE2       -4.2700   19.8120    8.5170 C.ar   20  TYR20       0.0417
     22  CZ        -4.3960   19.1390    7.3070 C.ar   20  TYR20       0.1957
     23  OH        -5.6230   18.6170    6.9710 O.3    20  TYR20      -0.2866
     24  N         -1.4350   23.7260    9.0530 N.am   21  MET21      -0.1979
     25  CA        -2.4240   24.7850    9.2580 C.3    21  MET21       0.1605
     26  C         -2.1870   25.9620    8.3120 C.2    21  MET21       0.2287
     27  O         -3.1340   26.5400    7.7740 O.2    21  MET21      -0.2864
     28  CB        -2.3990   25.2650   10.7100 C.3    21  MET21       0.0413
     29  CG        -2.9170   24.2520   11.7230 C.3    21  MET21       0.0598
     30  SD        -3.0490   24.9510   13.3770 S.3    21  MET21      -0.1393
     31  CE        -1.2950   25.0300   13.8330 C.3    21  MET21       0.0692
     32  N         -3.4950   25.2830    4.8270 N.3    24  LEU24      -0.1301
     33  CA        -4.9150   25.4950    4.8310 C.3    24  LEU24       0.1247
     34  C         -5.3750   26.9550    4.9530 C.3    24  LEU24       0.2009
     35  O         -6.5840   27.1350    4.7840 O.3    24  LEU24      -0.2188
     36  CB        -5.5570   24.7500    6.0230 C.3    24  LEU24       0.0217
     37  CG        -5.5030   23.2240    5.8390 C.3    24  LEU24       0.0015
     38  CD1       -6.0080   22.5700    7.1100 C.3    24  LEU24       0.0000
     39  CD2       -6.3200   22.7820    4.6120 C.3    24  LEU24       0.0000
     40  N         -4.9730   28.8940    7.7720 N.3    26  VAL26      -0.1245
     41  CA        -5.3080   29.2470    9.1530 C.3    26  VAL26       0.1561
     42  C         -4.4800   30.4530    9.6100 C.2    26  VAL26       0.2260
     43  O         -3.2640   30.5200    9.4820 O.2    26  VAL26      -0.2867
     44  CB        -5.0640   28.0020   10.0210 C.3    26  VAL26       0.0252
     45  CG1       -5.3620   28.3060   11.5030 C.3    26  VAL26       0.0019
     46  CG2       -5.8620   26.8060    9.5260 C.3    26  VAL26       0.0019
     47  N         -4.6180   31.8070   15.5140 N.3    30  THR30      -0.1218
     48  CA        -5.1570   30.4620   15.6890 C.3    30  THR30       0.1862
     49  C         -4.0650   29.4130   15.6540 C.2    30  THR30       0.2287
     50  O         -4.0600   28.4990   16.4640 O.2    30  THR30      -0.2866
     51  CB        -6.2580   30.2120   14.6120 C.3    30  THR30       0.1770
     52  OG1       -7.3220   31.0960   14.8640 O.3    30  THR30      -0.2211
     53  CG2       -6.7830   28.8020   14.6570 C.3    30  THR30       0.0375
     54  N         -3.2420   26.7620   18.6410 N.3    34  ALA34      -0.1245
     55  CA        -3.2840   25.3350   18.3020 C.3    34  ALA34       0.1562
     56  C         -1.9540   24.6560   18.4710 C.2    34  ALA34       0.2260
     57  O         -1.9100   23.4510   18.8360 O.2    34  ALA34      -0.2867
     58  CB        -3.8240   25.1900   16.8720 C.3    34  ALA34       0.0290
     59  N         -5.0450   18.0010   22.0760 N.3    39  PRO39      -0.2116
     60  CA        -6.3830   17.4900   22.0900 C.3    39  PRO39       0.1372
     61  C         -6.4700   16.0500   22.5920 C.2    39  PRO39       0.2244
     62  O         -5.5310   15.2740   22.5720 O.2    39  PRO39      -0.2868
     63  CB        -6.7990   17.5760   20.6010 C.3    39  PRO39       0.0268
     64  CG        -5.8760   18.5910   19.9690 C.3    39  PRO39       0.0207
     65  CD        -4.5910   18.3400   20.7110 C.3    39  PRO39       0.0892
     66  N         -8.7370   12.8390   21.4380 N.3    41  THR41      -0.1218
     67  CA        -9.5590   12.2850   20.3680 C.3    41  THR41       0.1862
     68  C        -10.2960   11.0680   20.9250 C.2    41  THR41       0.2287
     69  O         -9.6680   10.1790   21.5290 O.2    41  THR41      -0.2866
     70  CB        -8.6550   11.8810   19.1670 C.3    41  THR41       0.1770
     71  OG1       -8.0450   13.0910   18.7000 O.3    41  THR41      -0.2211
     72  CG2       -9.4650   11.2800   18.0410 C.3    41  THR41       0.0375
     73  N        -13.0770   15.4290   18.8170 N.3    54  THR54      -0.1218
     74  CA       -11.7950   16.0350   19.1600 C.3    54  THR54       0.1862
     75  C        -12.1100   17.1460   20.1790 C.2    54  THR54       0.2287
     76  O        -12.9630   17.9900   19.9880 O.2    54  THR54      -0.2866
     77  CB       -11.0800   16.5370   17.8920 C.3    54  THR54       0.1770
     78  OG1      -10.9800   15.4320   16.9320 O.3    54  THR54      -0.2211
     79  CG2       -9.6160   16.8740   18.0990 C.3    54  THR54       0.0375
     80  N         -9.3010   24.8200   23.2170 N.3    58  PHE58      -0.1227
     81  CA        -9.4810   25.8270   22.1820 C.3    58  PHE58       0.1736
     82  C        -10.6560   25.4880   21.3380 C.2    58  PHE58       0.2595
     83  O        -11.6160   26.1350   21.4060 O.2    58  PHE58      -0.2718
     84  CB        -8.1850   25.9640   21.3870 C.3    58  PHE58       0.0547
     85  CG        -8.1880   26.9710   20.3070 C.ar   58  PHE58      -0.0202
     86  CD1       -8.9080   28.1370   20.3790 C.ar   58  PHE58      -0.0042
     87  CD2       -7.3350   26.7830   19.1820 C.ar   58  PHE58      -0.0042
     88  CE1       -8.8100   29.0880   19.3700 C.ar   58  PHE58      -0.0003
     89  CE2       -7.2090   27.7420   18.2290 C.ar   58  PHE58      -0.0003
     90  CZ        -7.9450   28.8770   18.2930 C.ar   58  PHE58      -0.0000
     91  N        -10.5560   24.5180   20.4130 N.am   59  LYS59      -0.1980
     92  CA       -11.7190   24.1210   19.6100 C.3    59  LYS59       0.1596
     93  C        -12.1430   22.7290   19.9610 C.2    59  LYS59       0.2287
     94  O        -11.3100   21.8970   20.3500 O.2    59  LYS59      -0.2864
     95  CB       -11.2430   24.1550   18.1360 C.3    59  LYS59       0.0298
     96  CG       -10.6940   25.3620   17.4720 C.3    59  LYS59       0.0038
     97  CD       -11.7230   26.4370   17.2940 C.3    59  LYS59       0.0206
     98  CE       -11.3590   27.8450   16.6940 C.3    59  LYS59       0.1093
     99  NZ       -12.5920   28.6670   16.7450 N.3    59  LYS59      -0.1314
    100  N        -15.0610   21.7900    9.3770 N.3    75  THR75      -0.1203
    101  CA       -13.8610   21.4960   10.1250 C.3    75  THR75       0.1994
    102  C        -13.5960   22.5160   11.2280 C.2    75  THR75       0.2618
    103  O        -14.2560   23.5580   11.3290 O.2    75  THR75      -0.2717
    104  CB       -12.6690   21.4430    9.1570 C.3    75  THR75       0.1784
    105  OG1      -12.4720   22.7610    8.6270 O.3    75  THR75      -0.2211
    106  CG2      -12.8880   20.4520    8.0440 C.3    75  THR75       0.0376
    107  N        -12.5800   22.2260   12.0580 N.am   76  ALA76      -0.1965
    108  CA       -12.2610   23.1120   13.1820 C.3    76  ALA76       0.1728
    109  C        -11.8830   24.5130   12.7330 C.2    76  ALA76       0.2616
    110  O        -12.1150   25.4820   13.4550 O.2    76  ALA76      -0.2715
    111  CB       -11.1180   22.5130   13.9990 C.3    76  ALA76       0.0334
    112  N        -11.2930   24.6130   11.5260 N.am   77  ASP77      -0.1971
    113  CA       -10.9420   25.8720   10.9000 C.3    77  ASP77       0.1709
    114  C        -12.0230   26.3890    9.9450 C.2    77  ASP77       0.2293
    115  O        -11.7610   27.2950    9.1420 O.2    77  ASP77      -0.2864
    116  CB        -9.5910   25.7910   10.1910 C.3    77  ASP77       0.1436
    117  CG        -9.5310   24.7150    9.0950 C.2    77  ASP77       0.3671
    118  OD1      -10.0160   23.5750    9.3520 O.co2  77  ASP77      -0.2456
    119  OD2       -8.9840   25.0160    8.0070 O.co2  77  ASP77      -0.2456
    120  N        -13.7780   25.1410    7.3920 N.3    79  ARG79      -0.1245
    121  CA       -13.9860   24.7190    6.0150 C.3    79  ARG79       0.1563
    122  C        -15.2270   23.8150    5.9390 C.2    79  ARG79       0.2260
    123  O        -15.3900   22.9120    6.7540 O.2    79  ARG79      -0.2867
    124  CB       -12.7990   23.9320    5.4710 C.3    79  ARG79       0.0307
    125  CG       -11.5460   24.7840    5.2470 C.3    79  ARG79       0.0489
    126  CD       -10.3580   23.9200    4.8490 C.3    79  ARG79       0.2205
    127  NE        -9.8190   23.2200    6.0170 N.pl3  79  ARG79      -0.0865
    128  CZ        -9.7660   21.9270    6.2310 C.cat  79  ARG79       0.5346
    129  NH1      -10.0000   21.0240    5.2660 N.pl3  79  ARG79       0.1354
    130  NH2       -9.4660   21.5000    7.4580 N.pl3  79  ARG79       0.1354
    131  N        -10.9910   14.7920    2.7320 N.3    96  GLN96      -0.1245
    132  CA       -11.8450   15.9590    2.6650 C.3    96  GLN96       0.1566
    133  C        -11.6340   16.6780    1.3280 C.2    96  GLN96       0.2260
    134  O        -10.4980   16.8710    0.9170 O.2    96  GLN96      -0.2867
    135  CB       -11.5000   16.9600    3.7840 C.3    96  GLN96       0.0367
    136  CG       -11.7150   16.3820    5.1810 C.3    96  GLN96       0.0905
    137  CD       -11.2450   17.3180    6.2750 C.2    96  GLN96       0.2608
    138  OE1      -10.3450   18.1490    6.0710 O.2    96  GLN96      -0.2717
    139  NE2      -11.7990   17.1510    7.4620 N.am   96  GLN96      -0.0878
    140  N         -6.3030   12.8000    6.0600 N.3   105  LEU105     -0.1245
    141  CA        -6.0330   12.5890    7.4880 C.3   105  LEU105      0.1561
    142  C         -5.9760   11.0780    7.6550 C.2   105  LEU105      0.2260
    143  O         -7.0220   10.4190    7.5910 O.2   105  LEU105     -0.2867
    144  CB        -7.1090   13.2150    8.3770 C.3   105  LEU105      0.0270
    145  CG        -7.4130   14.7360    8.1240 C.3   105  LEU105      0.0019
    146  CD1       -8.4960   14.9140    7.0400 C.3   105  LEU105      0.0001
    147  CD2       -7.9160   15.3830    9.3950 C.3   105  LEU105      0.0001
    148  N         -4.8800    7.6920    9.7590 N.3   107  ARG107     -0.1245
    149  CA        -4.5800    7.1790   11.0960 C.3   107  ARG107      0.1563
    150  C         -4.1090    5.7280   10.9910 C.2   107  ARG107      0.2260
    151  O         -4.7470    4.8990   10.3440 O.2   107  ARG107     -0.2867
    152  CB        -5.7880    7.2700   12.0090 C.3   107  ARG107      0.0307
    153  CG        -6.1230    8.7160   12.3590 C.3   107  ARG107      0.0489
    154  CD        -7.3670    8.8330   13.2190 C.3   107  ARG107      0.2205
    155  NE        -7.5810   10.1690   13.7370 N.pl3 107  ARG107     -0.0865
    156  CZ        -8.2830   11.1000   13.1150 C.cat 107  ARG107      0.5346
    157  NH1       -8.8350   10.9100   11.9330 N.pl3 107  ARG107      0.1354
    158  NH2       -8.4670   12.2810   13.7160 N.pl3 107  ARG107      0.1354
    159  N         -1.3580    9.9750   13.3320 N.3   116  LEU116     -0.1245
    160  CA        -2.2030   10.7240   12.4130 C.3   116  LEU116      0.1561
    161  C         -1.2930   11.5260   11.4860 C.2   116  LEU116      0.2260
    162  O         -0.5200   12.3720   11.9350 O.2   116  LEU116     -0.2867
    163  CB        -3.0950   11.6710   13.2410 C.3   116  LEU116      0.0270
    164  CG        -3.8710   12.7150   12.4370 C.3   116  LEU116      0.0019
    165  CD1       -4.8730   12.0860   11.4870 C.3   116  LEU116      0.0001
    166  CD2       -4.5780   13.6770   13.4070 C.3   116  LEU116      0.0001
    167  N         -1.3520   14.1350    8.3440 N.3   118  LEU118     -0.1245
    168  CA        -2.1560   15.2030    7.7450 C.3   118  LEU118      0.1561
    169  C         -1.4050   15.8130    6.5570 C.2   118  LEU118      0.2260
    170  O         -0.3230   16.3620    6.7480 O.2   118  LEU118     -0.2867
    171  CB        -2.3850   16.3350    8.7670 C.3   118  LEU118      0.0270
    172  CG        -2.9970   15.9020   10.1160 C.3   118  LEU118      0.0019
    173  CD1       -3.0520   17.0880   11.0380 C.3   118  LEU118      0.0001
    174  CD2       -4.3880   15.3410    9.8920 C.3   118  LEU118      0.0001
    175  N          1.2240   13.5150   13.8490 N.3   127  ARG127     -0.1245
    176  CA         0.8270   13.7420   15.2300 C.3   127  ARG127      0.1563
    177  C          0.4480   12.4120   15.8740 C.2   127  ARG127      0.2260
    178  O         -0.3730   11.6100   15.3740 O.2   127  ARG127     -0.2867
    179  CB        -0.4470   14.5960   15.2830 C.3   127  ARG127      0.0307
    180  CG        -0.1430   16.0730   15.0080 C.3   127  ARG127      0.0489
    181  CD        -1.2700   16.9500   14.6680 C.3   127  ARG127      0.2205
    182  NE        -2.2690   17.2010   15.6880 N.pl3 127  ARG127     -0.0865
    183  CZ        -2.1410   18.1470   16.6330 C.cat 127  ARG127      0.5346
    184  NH1       -1.0050   18.8030   16.7700 N.pl3 127  ARG127      0.1354
    185  NH2       -3.1840   18.3660   17.4190 N.pl3 127  ARG127      0.1354
    186  N         -0.7160   10.0650   19.0570 N.3   129  TYR129     -0.1241
    187  CA        -1.6280    9.9640   20.1700 C.3   129  TYR129      0.1605
    188  C         -1.3830    8.6610   20.9240 C.2   129  TYR129      0.2264
    189  O         -1.0730    7.6340   20.3340 O.2   129  TYR129     -0.2867
    190  CB        -3.0730    9.9570   19.6210 C.3   129  TYR129      0.0534
    191  CG        -3.6090   11.3010   19.1880 C.ar  129  TYR129     -0.0201
    192  CD1       -3.3510   11.8490   17.9470 C.ar  129  TYR129     -0.0009
    193  CD2       -4.3900   12.0380   20.0540 C.ar  129  TYR129     -0.0009
    194  CE1       -3.8670   13.1350   17.6010 C.ar  129  TYR129      0.0417
    195  CE2       -4.8970   13.2950   19.7450 C.ar  129  TYR129      0.0417
    196  CZ        -4.6270   13.8330   18.5030 C.ar  129  TYR129      0.1957
    197  OH        -5.1410   15.0760   18.2430 O.3   129  TYR129     -0.2866
@<TRIPOS>BOND
     1   134   133    2
     2   133   132    1
     3   132   131    1
     4   132   135    1
     5   135   136    1
     6    39    37    1
     7    35    34    1
     8    32    33    1
     9    33    34    1
    10    33    36    1
    11   126   125    1
    12   126   127    1
    13   136   137    1
    14   125   124    1
    15   129   128    1
    16   124   121    1
    17    37    36    1
    18    37    38    1
    19   122   121    1
    20   122   123    2
    21   121   120    1
    22   127   128    2
    23   140   141    1
    24   138   137    2
    25   128   130    1
    26   137   139   am
    27    20    18   ar
    28    20    22   ar
    29   169   170    2
    30   169   168    1
    31    18    17   ar
    32    15    14    2
    33    23    22    1
    34   146   145    1
    35    22    21   ar
    36   141   142    1
    37   141   144    1
    38   143   142    2
    39    13    14    1
    40    13    12    1
    41    13    16    1
    42   168   167    1
    43   168   171    1
    44    40    41    1
    45    27    26    2
    46    14    24   am
    47   119   117   ar
    48   106   104    1
    49    17    16    1
    50    17    19   ar
    51   145   144    1
    52   145   147    1
    53    26    25    1
    54    21    19   ar
    55   105   104    1
    56   171   172    1
    57    24    25    1
    58   117   118   ar
    59   117   116    1
    60   115   114    2
    61    41    42    1
    62    41    44    1
    63   104   101    1
    64    25    28    1
    65   100   101    1
    66    43    42    2
    67    46    44    1
    68   148   149    1
    69   174   172    1
    70   114   113    1
    71    44    45    1
    72   172   173    1
    73   101   102    1
    74   116   113    1
    75   151   150    2
    76    28    29    1
    77   113   112    1
    78   150   149    1
    79   149   152    1
    80   102   103    2
    81   102   107   am
    82     4     3    2
    83   161   162    2
    84   161   160    1
    85   165   164    1
    86   112   109   am
    87    29    30    1
    88   157   156    1
    89     3     2    1
    90   152   153    1
    91   107   108    1
    92   153   154    1
    93     1     2    1
    94     2     5    1
    95   160   163    1
    96   160   159    1
    97   164   163    1
    98   164   166    1
    99   109   108    1
   100   109   110    2
   101     7     9   ar
   102     7     6   ar
   103     9    11   ar
   104   156   158    1
   105   156   155    2
   106   108   111    1
   107   154   155    1
   108    30    31    1
   109     5     6    1
   110     6     8   ar
   111   175   176    1
   112    11    10   ar
   113    51    53    1
   114    51    52    1
   115    51    48    1
   116   181   180    1
   117   181   182    1
   118     8    10   ar
   119   180   179    1
   120   176   179    1
   121   176   177    1
   122   178   177    2
   123    47    48    1
   124    49    48    1
   125    49    50    2
   126   182   183    2
   127   183   184    1
   128   183   185    1
   129    98    99    1
   130    98    97    1
   131    58    55    1
   132    78    77    1
   133    97    96    1
   134    96    95    1
   135   194   192   ar
   136   194   196   ar
   137    77    79    1
   138    77    74    1
   139   192   191   ar
   140    72    70    1
   141    95    92    1
   142    89    90   ar
   143    89    87   ar
   144   197   196    1
   145    90    88   ar
   146    55    56    1
   147    55    54    1
   148    56    57    2
   149   196   195   ar
   150    71    70    1
   151    73    74    1
   152   186   187    1
   153    74    75    1
   154    70    67    1
   155    87    85   ar
   156   191   190    1
   157   191   193   ar
   158    88    86   ar
   159    92    93    1
   160    92    91    1
   161   190   187    1
   162   195   193   ar
   163    93    94    2
   164    64    63    1
   165    64    65    1
   166    76    75    2
   167   187   188    1
   168    85    86   ar
   169    85    84    1
   170   189   188    2
   171    67    68    1
   172    67    66    1
   173    91    82   am
   174    63    60    1
   175    65    59    1
   176    68    69    2
   177    82    83    2
   178    82    81    1
   179    84    81    1
   180    59    60    1
   181    60    61    1
   182    81    80    1
   183    62    61    2
