@<TRIPOS>MOLECULE
tmp/4tkfC00.pdb
 146 146 0 0 0
SMALL
GASTEIGER

@<TRIPOS>ATOM
      1  N         18.6860   31.8380   32.5450 N.3    79  HIS79      -0.1226
      2  CA        19.4270   33.0360   32.2080 C.3    79  HIS79       0.1752
      3  C         19.8890   33.7250   33.5000 C.2    79  HIS79       0.2597
      4  O         19.0660   34.0450   34.3790 O.2    79  HIS79      -0.2718
      5  CB        18.6370   34.0220   31.3440 C.3    79  HIS79       0.0759
      6  CG        19.5030   35.1480   30.8700 C.ar   79  HIS79       0.0818
      7  ND1       20.3930   34.9830   29.7990 N.ar   79  HIS79      -0.2268
      8  CD2       19.6910   36.3750   31.4000 C.ar   79  HIS79       0.1154
      9  CE1       21.0350   36.1290   29.6790 C.ar   79  HIS79       0.1986
     10  NE2       20.6470   37.0010   30.6140 N.ar   79  HIS79      -0.2212
     11  N         21.2150   33.8970   33.5980 N.am   80  GLY80      -0.1942
     12  CA        21.8550   34.6050   34.6790 C.3    80  GLY80       0.2014
     13  C         22.4910   35.8460   34.1020 C.2    80  GLY80       0.2640
     14  O         23.2450   35.7580   33.1370 O.2    80  GLY80      -0.2714
     15  N         22.1670   37.0130   34.6630 N.am   81  SER81      -0.1936
     16  CA        22.7140   38.2970   34.2290 C.3    81  SER81       0.2040
     17  C         22.5990   39.3520   35.3230 C.2    81  SER81       0.2485
     18  O         21.5830   39.3550   36.0110 O.2    81  SER81      -0.2729
     19  CB        21.9770   38.7930   32.9900 C.3    81  SER81       0.2129
     20  OG        21.9140   40.2090   32.9550 O.3    81  SER81      -0.2179
     21  N         23.5390   40.3270   35.4590 N.am   82  PRO82      -0.2715
     22  CA        23.3010   41.4240   36.4390 C.3    82  PRO82       0.1536
     23  C         22.0390   42.2320   36.0850 C.2    82  PRO82       0.2598
     24  O         21.3060   42.6230   36.9800 O.2    82  PRO82      -0.2715
     25  CB        24.5650   42.2950   36.3330 C.3    82  PRO82       0.0310
     26  CG        25.5590   41.4730   35.5730 C.3    82  PRO82       0.0237
     27  CD        24.8080   40.5180   34.7170 C.3    82  PRO82       0.0939
     28  N         21.7310   42.3580   34.7740 N.am   83  PHE83      -0.1974
     29  CA        20.6250   43.1150   34.1590 C.3    83  PHE83       0.1639
     30  C         19.2340   42.4650   34.2100 C.2    83  PHE83       0.2290
     31  O         18.3350   42.8370   33.4470 O.2    83  PHE83      -0.2864
     32  CB        21.0190   43.4580   32.7060 C.3    83  PHE83       0.0560
     33  CG        22.4180   44.0200   32.6400 C.ar   83  PHE83      -0.0200
     34  CD1       22.7420   45.2100   33.3010 C.ar   83  PHE83      -0.0042
     35  CD2       23.4330   43.3260   31.9890 C.ar   83  PHE83      -0.0042
     36  CE1       24.0480   45.7070   33.2820 C.ar   83  PHE83      -0.0003
     37  CE2       24.7420   43.8360   31.9480 C.ar   83  PHE83      -0.0003
     38  CZ        25.0440   45.0170   32.6060 C.ar   83  PHE83      -0.0000
     39  N         16.0640   44.7290   34.3050 N.3    86  ALA86      -0.1231
     40  CA        15.8660   45.4390   33.0310 C.3    86  ALA86       0.1694
     41  C         15.2520   44.4640   32.0250 C.2    86  ALA86       0.2591
     42  O         14.4120   44.8720   31.2220 O.2    86  ALA86      -0.2718
     43  CB        17.1920   45.9580   32.5000 C.3    86  ALA86       0.0304
     44  N         15.6740   43.1760   32.0740 N.am   87  ILE87      -0.1980
     45  CA        15.1370   42.1340   31.2200 C.3    87  ILE87       0.1595
     46  C         13.6640   41.9690   31.5210 C.2    87  ILE87       0.2287
     47  O         12.8810   41.8830   30.5750 O.2    87  ILE87      -0.2864
     48  CB        15.9070   40.7860   31.3060 C.3    87  ILE87       0.0276
     49  CG1       17.3210   40.9060   30.7190 C.3    87  ILE87       0.0022
     50  CG2       15.1150   39.6750   30.6290 C.3    87  ILE87       0.0022
     51  CD1       18.2870   40.0160   31.3610 C.3    87  ILE87       0.0001
     52  N         11.8940   45.5870   30.1530 N.3    90  LYS90      -0.1231
     53  CA        12.2030   45.8850   28.7530 C.3    90  LYS90       0.1693
     54  C         12.4330   44.6710   27.8240 C.2    90  LYS90       0.2593
     55  O         12.6460   44.8550   26.6320 O.2    90  LYS90      -0.2718
     56  CB        13.4110   46.8400   28.7120 C.3    90  LYS90       0.0285
     57  CG        13.1250   48.2350   29.2860 C.3    90  LYS90       0.0035
     58  CD        12.4490   49.1840   28.2680 C.3    90  LYS90       0.0206
     59  CE        11.3000   49.9650   28.8700 C.3    90  LYS90       0.1093
     60  NZ        10.4810   50.6500   27.8310 N.3    90  LYS90      -0.1314
     61  N         12.4140   43.4580   28.3670 N.am   91  GLY91      -0.1942
     62  CA        12.6290   42.2370   27.5890 C.3    91  GLY91       0.2014
     63  C         14.0660   41.9840   27.2240 C.2    91  GLY91       0.2639
     64  O         14.9300   42.8150   27.5070 O.2    91  GLY91      -0.2714
     65  N         14.3360   40.8180   26.6120 N.am   92  PHE92      -0.1959
     66  CA        15.6900   40.5140   26.1280 C.3    92  PHE92       0.1771
     67  C         15.9440   41.3980   24.8990 C.2    92  PHE92       0.2619
     68  O         15.0020   41.7160   24.1760 O.2    92  PHE92      -0.2715
     69  CB        15.8400   39.0300   25.7830 C.3    92  PHE92       0.0574
     70  CG        15.9060   38.1440   26.9990 C.ar   92  PHE92      -0.0200
     71  CD1       17.0940   37.9750   27.6870 C.ar   92  PHE92      -0.0042
     72  CD2       14.7720   37.4920   27.4640 C.ar   92  PHE92      -0.0042
     73  CE1       17.1520   37.1630   28.8300 C.ar   92  PHE92      -0.0003
     74  CE2       14.8260   36.6700   28.5870 C.ar   92  PHE92      -0.0003
     75  CZ        16.0120   36.5200   29.2740 C.ar   92  PHE92      -0.0000
     76  N         17.1820   41.8360   24.6900 N.am   93  ASP93      -0.1971
     77  CA        17.4650   42.7550   23.6000 C.3    93  ASP93       0.1709
     78  C         18.7980   42.4400   22.9850 C.2    93  ASP93       0.2293
     79  O         19.8210   42.6790   23.6110 O.2    93  ASP93      -0.2864
     80  CB        17.4380   44.1980   24.1320 C.3    93  ASP93       0.1436
     81  CG        17.3380   45.2890   23.0920 C.2    93  ASP93       0.3671
     82  OD1       17.9260   45.1290   22.0130 O.co2  93  ASP93      -0.2456
     83  OD2       16.7320   46.3450   23.3940 O.co2  93  ASP93      -0.2456
     84  N         21.8270   44.8160   22.9690 N.3    96  HIS96      -0.1226
     85  CA        22.6590   44.8270   24.1700 C.3    96  HIS96       0.1752
     86  C         23.6360   43.6460   24.1910 C.2    96  HIS96       0.2595
     87  O         24.3730   43.4750   25.1710 O.2    96  HIS96      -0.2718
     88  CB        21.7970   44.8410   25.4370 C.3    96  HIS96       0.0759
     89  CG        21.1580   46.1630   25.7060 C.ar   96  HIS96       0.0818
     90  ND1       21.8980   47.3290   25.7470 N.ar   96  HIS96      -0.2268
     91  CD2       19.8660   46.4610   25.9740 C.ar   96  HIS96       0.1154
     92  CE1       21.0320   48.3010   25.9970 C.ar   96  HIS96       0.1986
     93  NE2       19.7990   47.8300   26.1530 N.ar   96  HIS96      -0.2212
     94  N         23.6540   42.8470   23.1040 N.am   97  ALA97      -0.1980
     95  CA        24.5630   41.7220   22.8940 C.3    97  ALA97       0.1597
     96  C         25.5810   42.1220   21.8340 C.2    97  ALA97       0.2287
     97  O         25.2120   42.4540   20.7030 O.2    97  ALA97      -0.2864
     98  CB        23.7950   40.4880   22.4280 C.3    97  ALA97       0.0319
     99  N         24.6460   37.1040   20.4500 N.3   106  GLY106     -0.1210
    100  CA        23.3190   36.6490   20.8310 C.3   106  GLY106      0.1956
    101  C         23.1190   36.7080   22.3130 C.2   106  GLY106      0.2612
    102  O         24.0090   37.1690   23.0360 O.2   106  GLY106     -0.2717
    103  N         21.9120   36.2910   22.7590 N.am  107  ILE107     -0.1965
    104  CA        21.4940   36.1430   24.1570 C.3   107  ILE107      0.1727
    105  C         21.6450   34.6520   24.5520 C.2   107  ILE107      0.2616
    106  O         21.0230   33.7660   23.9460 O.2   107  ILE107     -0.2715
    107  CB        20.0810   36.6570   24.3940 C.3   107  ILE107      0.0290
    108  CG1       19.9080   38.0860   23.8370 C.3   107  ILE107      0.0022
    109  CG2       19.7240   36.5820   25.9050 C.3   107  ILE107      0.0023
    110  CD1       18.9160   38.2070   22.8180 C.3   107  ILE107      0.0001
    111  N         22.4830   34.3920   25.5760 N.am  108  TYR108     -0.1974
    112  CA        22.8080   33.0580   26.0260 C.3   108  TYR108      0.1639
    113  C         21.9350   32.5640   27.1850 C.2   108  TYR108      0.2290
    114  O         21.7670   33.2640   28.1960 O.2   108  TYR108     -0.2864
    115  CB        24.2960   32.9940   26.4020 C.3   108  TYR108      0.0560
    116  CG        25.2550   33.2440   25.2620 C.ar  108  TYR108     -0.0198
    117  CD1       25.3050   34.4850   24.6210 C.ar  108  TYR108     -0.0009
    118  CD2       26.1380   32.2590   24.8410 C.ar  108  TYR108     -0.0009
    119  CE1       26.1380   34.7010   23.5190 C.ar  108  TYR108      0.0417
    120  CE2       27.0270   32.4860   23.7820 C.ar  108  TYR108      0.0417
    121  CZ        26.9960   33.6960   23.1040 C.ar  108  TYR108      0.1957
    122  OH        27.8140   33.9100   22.0360 O.3   108  TYR108     -0.2866
    123  N         26.8990   33.7220   35.9430 N.3   119  TYR119     -0.1241
    124  CA        26.7210   34.9870   35.2380 C.3   119  TYR119      0.1605
    125  C         25.8600   36.0030   35.9560 C.2   119  TYR119      0.2264
    126  O         25.7310   37.0910   35.4080 O.2   119  TYR119     -0.2867
    127  CB        26.1600   34.7500   33.8360 C.3   119  TYR119      0.0534
    128  CG        27.0610   33.9800   32.9080 C.ar  119  TYR119     -0.0201
    129  CD1       27.9610   34.6390   32.0760 C.ar  119  TYR119     -0.0009
    130  CD2       26.9570   32.6010   32.7920 C.ar  119  TYR119     -0.0009
    131  CE1       28.8030   33.9360   31.2140 C.ar  119  TYR119      0.0417
    132  CE2       27.8020   31.8830   31.9390 C.ar  119  TYR119      0.0417
    133  CZ        28.7180   32.5590   31.1470 C.ar  119  TYR119      0.1957
    134  OH        29.5630   31.8710   30.3150 O.3   119  TYR119     -0.2866
    135  N         27.9320   39.0250   36.5920 N.3   122  GLY122     -0.1210
    136  CA        28.7100   39.3460   35.3910 C.3   122  GLY122      0.1956
    137  C         29.5070   38.1880   34.8010 C.2   122  GLY122      0.2611
    138  O         29.4410   37.0610   35.3070 O.2   122  GLY122     -0.2717
    139  N         30.2810   38.4510   33.7320 N.am  123  ILE123     -0.1979
    140  CA        31.1370   37.4250   33.1040 C.3   123  ILE123      0.1595
    141  C         32.1150   36.8910   34.1470 C.2   123  ILE123      0.2287
    142  O         32.7910   37.6830   34.8160 O.2   123  ILE123     -0.2864
    143  CB        31.9180   37.9080   31.8350 C.3   123  ILE123      0.0276
    144  CG1       31.1820   39.0060   31.0170 C.3   123  ILE123      0.0022
    145  CG2       32.3790   36.7220   30.9570 C.3   123  ILE123      0.0022
    146  CD1       29.9740   38.5530   30.2070 C.3   123  ILE123      0.0001
@<TRIPOS>BOND
     1    99   100    1
     2    97    96    2
     3   100   101    1
     4    96    95    1
     5    82    81   ar
     6   122   121    1
     7   101   103   am
     8   101   102    2
     9    98    95    1
    10   103   104    1
    11   110   108    1
    12    95    94    1
    13    84    85    1
    14    78    77    1
    15    78    79    2
    16    81    83   ar
    17    81    80    1
    18    94    86   am
    19   121   119   ar
    20   121   120   ar
    21   119   117   ar
    22    77    80    1
    23    77    76    1
    24   120   118   ar
    25   108   107    1
    26   106   105    2
    27   104   107    1
    28   104   105    1
    29    85    86    1
    30    85    88    1
    31    68    67    2
    32    86    87    2
    33   107   109    1
    34   105   111   am
    35   117   116   ar
    36    76    67   am
    37   118   116   ar
    38    67    66    1
    39   116   115    1
    40    88    89    1
    41   111   112    1
    42    89    90   ar
    43    89    91   ar
    44    90    92   ar
    45    69    66    1
    46    69    70    1
    47    91    93   ar
    48    92    93   ar
    49   112   115    1
    50   112   113    1
    51    66    65    1
    52    65    63   am
    53    55    54    2
    54    70    72   ar
    55    70    71   ar
    56   113   114    2
    57    63    64    2
    58    63    62    1
    59    72    74   ar
    60    62    61    1
    61    71    73   ar
    62    54    61   am
    63    54    53    1
    64    60    59    1
    65    58    59    1
    66    58    57    1
    67    74    75   ar
    68    56    53    1
    69    56    57    1
    70    53    52    1
    71    73    75   ar
    72     9     7   ar
    73     9    10   ar
    74     7     6   ar
    75   146   144    1
    76   134   133    1
    77    47    46    2
    78    10     8   ar
    79    50    48    1
    80    49    48    1
    81    49    51    1
    82     6     5    1
    83     6     8   ar
    84   145   143    1
    85   144   143    1
    86   133   131   ar
    87   133   132   ar
    88   131   129   ar
    89    45    48    1
    90    45    46    1
    91    45    44    1
    92    42    41    2
    93     5     2    1
    94   143   140    1
    95   132   130   ar
    96    37    35   ar
    97    37    38   ar
    98    35    33   ar
    99    41    44   am
   100    41    40    1
   101   129   128   ar
   102     2     1    1
   103     2     3    1
   104    43    40    1
   105    38    36   ar
   106    33    32    1
   107    33    34   ar
   108    32    29    1
   109   130   128   ar
   110   128   127    1
   111    20    19    1
   112    19    16    1
   113    40    39    1
   114   140   139    1
   115   140   141    1
   116    14    13    2
   117    36    34   ar
   118    31    30    2
   119     3    11   am
   120     3     4    2
   121    11    12    1
   122   139   137   am
   123   127   124    1
   124    13    15   am
   125    13    12    1
   126   141   142    2
   127    29    30    1
   128    29    28    1
   129    16    15    1
   130    16    17    1
   131    27    21    1
   132    27    26    1
   133    28    23   am
   134   137   138    2
   135   137   136    1
   136   124   123    1
   137   124   125    1
   138    17    21   am
   139    17    18    2
   140   136   135    1
   141   126   125    2
   142    21    22    1
   143    26    25    1
   144    23    22    1
   145    23    24    2
   146    25    22    1
