@<TRIPOS>MOLECULE
tmp/4tkfC01.pdb
 89 89 0 0 0
SMALL
GASTEIGER

@<TRIPOS>ATOM
      1  N         17.3770   28.6400   31.5610 N.3    78  PHE78      -0.1227
      2  CA        17.9000   29.5770   32.5460 C.3    78  PHE78       0.1736
      3  C         18.7020   30.6660   31.9120 C.2    78  PHE78       0.2595
      4  O         19.3070   30.4570   30.8830 O.2    78  PHE78      -0.2718
      5  CB        18.7730   28.8460   33.5500 C.3    78  PHE78       0.0547
      6  CG        18.0410   27.8100   34.3580 C.ar   78  PHE78      -0.0202
      7  CD1       17.2150   28.1840   35.4190 C.ar   78  PHE78      -0.0042
      8  CD2       18.1770   26.4550   34.0670 C.ar   78  PHE78      -0.0042
      9  CE1       16.5570   27.2160   36.1810 C.ar   78  PHE78      -0.0003
     10  CE2       17.5080   25.4890   34.8300 C.ar   78  PHE78      -0.0003
     11  CZ        16.7180   25.8780   35.8850 C.ar   78  PHE78      -0.0000
     12  N         18.6860   31.8380   32.5450 N.am   79  HIS79      -0.1961
     13  CA        19.4270   33.0360   32.2080 C.3    79  HIS79       0.1787
     14  C         19.8890   33.7250   33.5000 C.2    79  HIS79       0.2620
     15  O         19.0660   34.0450   34.3790 O.2    79  HIS79      -0.2715
     16  CB        18.6370   34.0220   31.3440 C.3    79  HIS79       0.0785
     17  CG        19.5030   35.1480   30.8700 C.ar   79  HIS79       0.0821
     18  ND1       20.3930   34.9830   29.7990 N.ar   79  HIS79      -0.2267
     19  CD2       19.6910   36.3750   31.4000 C.ar   79  HIS79       0.1154
     20  CE1       21.0350   36.1290   29.6790 C.ar   79  HIS79       0.1986
     21  NE2       20.6470   37.0010   30.6140 N.ar   79  HIS79      -0.2212
     22  N         21.2150   33.8970   33.5980 N.am   80  GLY80      -0.1954
     23  CA        21.8550   34.6050   34.6790 C.3    80  GLY80       0.1869
     24  C         22.4910   35.8460   34.1020 C.2    80  GLY80       0.2309
     25  O         23.2450   35.7580   33.1370 O.2    80  GLY80      -0.2863
     26  N         22.4830   34.3920   25.5760 N.3   108  TYR108     -0.1227
     27  CA        22.8080   33.0580   26.0260 C.3   108  TYR108      0.1736
     28  C         21.9350   32.5640   27.1850 C.2   108  TYR108      0.2595
     29  O         21.7670   33.2640   28.1960 O.2   108  TYR108     -0.2718
     30  CB        24.2960   32.9940   26.4020 C.3   108  TYR108      0.0548
     31  CG        25.2550   33.2440   25.2620 C.ar  108  TYR108     -0.0200
     32  CD1       25.3050   34.4850   24.6210 C.ar  108  TYR108     -0.0009
     33  CD2       26.1380   32.2590   24.8410 C.ar  108  TYR108     -0.0009
     34  CE1       26.1380   34.7010   23.5190 C.ar  108  TYR108      0.0417
     35  CE2       27.0270   32.4860   23.7820 C.ar  108  TYR108      0.0417
     36  CZ        26.9960   33.6960   23.1040 C.ar  108  TYR108      0.1957
     37  OH        27.8140   33.9100   22.0360 O.3   108  TYR108     -0.2866
     38  N         21.4580   31.3040   27.0550 N.am  109  PHE109     -0.1962
     39  CA        20.6880   30.5540   28.0450 C.3   109  PHE109      0.1771
     40  C         21.4170   29.2400   28.3110 C.2   109  PHE109      0.2619
     41  O         22.2810   28.8370   27.5150 O.2   109  PHE109     -0.2715
     42  CB        19.2680   30.2650   27.5270 C.3   109  PHE109      0.0574
     43  CG        18.5010   31.5320   27.2470 C.ar  109  PHE109     -0.0200
     44  CD1       18.6260   32.1880   26.0140 C.ar  109  PHE109     -0.0042
     45  CD2       17.7280   32.1300   28.2380 C.ar  109  PHE109     -0.0042
     46  CE1       17.9480   33.3800   25.7710 C.ar  109  PHE109     -0.0003
     47  CE2       17.0860   33.3360   27.9990 C.ar  109  PHE109     -0.0003
     48  CZ        17.2040   33.9520   26.7680 C.ar  109  PHE109     -0.0000
     49  N         21.1030   28.5930   29.4370 N.am  110  ALA110     -0.1977
     50  CA        21.6660   27.2980   29.7990 C.3   110  ALA110      0.1597
     51  C         20.5240   26.3980   30.2970 C.2   110  ALA110      0.2287
     52  O         19.4830   26.8940   30.7520 O.2   110  ALA110     -0.2864
     53  CB        22.7040   27.4520   30.9000 C.3   110  ALA110      0.0319
     54  N         25.2460   26.7170   35.5200 N.3   115  LYS115     -0.1231
     55  CA        25.9490   27.4480   34.4330 C.3   115  LYS115      0.1693
     56  C         25.4980   28.9140   34.4200 C.2   115  LYS115      0.2592
     57  O         26.3640   29.7840   34.4230 O.2   115  LYS115     -0.2718
     58  CB        25.7440   26.8230   33.0480 C.3   115  LYS115      0.0285
     59  CG        26.5810   27.5030   31.9560 C.3   115  LYS115      0.0035
     60  CD        26.4990   26.7440   30.6490 C.3   115  LYS115      0.0206
     61  CE        27.5920   27.1470   29.7060 C.3   115  LYS115      0.1093
     62  NZ        27.6370   26.3210   28.4660 N.3   115  LYS115     -0.1314
     63  N         24.1430   29.1840   34.4570 N.am  116  SER116     -0.1952
     64  CA        23.5540   30.5270   34.5200 C.3   116  SER116      0.1924
     65  C         23.9320   31.2550   35.8040 C.2   116  SER116      0.2314
     66  O         24.0830   32.4850   35.8030 O.2   116  SER116     -0.2863
     67  CB        22.0490   30.4500   34.3840 C.3   116  SER116      0.2116
     68  OG        21.7530   30.1290   33.0390 O.3   116  SER116     -0.2180
     69  N         26.8990   33.7220   35.9430 N.3   119  TYR119     -0.1241
     70  CA        26.7210   34.9870   35.2380 C.3   119  TYR119      0.1605
     71  C         25.8600   36.0030   35.9560 C.2   119  TYR119      0.2264
     72  O         25.7310   37.0910   35.4080 O.2   119  TYR119     -0.2867
     73  CB        26.1600   34.7500   33.8360 C.3   119  TYR119      0.0534
     74  CG        27.0610   33.9800   32.9080 C.ar  119  TYR119     -0.0201
     75  CD1       27.9610   34.6390   32.0760 C.ar  119  TYR119     -0.0009
     76  CD2       26.9570   32.6010   32.7920 C.ar  119  TYR119     -0.0009
     77  CE1       28.8030   33.9360   31.2140 C.ar  119  TYR119      0.0417
     78  CE2       27.8020   31.8830   31.9390 C.ar  119  TYR119      0.0417
     79  CZ        28.7180   32.5590   31.1470 C.ar  119  TYR119      0.1957
     80  OH        29.5630   31.8710   30.3150 O.3   119  TYR119     -0.2866
     81  N         24.7560   25.1870   25.8860 N.3   186  GLU186     -0.1245
     82  CA        24.3000   26.5730   25.9500 C.3   186  GLU186      0.1567
     83  C         23.5380   26.8540   24.6950 C.2   186  GLU186      0.2260
     84  O         23.8600   26.2870   23.6550 O.2   186  GLU186     -0.2867
     85  CB        25.4280   27.5780   26.1920 C.3   186  GLU186      0.0388
     86  CG        26.6080   27.5800   25.2340 C.3   186  GLU186      0.1160
     87  CD        27.6690   28.5810   25.6500 C.2   186  GLU186      0.3649
     88  OE1       28.2270   28.4350   26.7650 O.co2 186  GLU186     -0.2457
     89  OE2       27.9280   29.5230   24.8660 O.co2 186  GLU186     -0.2457
@<TRIPOS>BOND
     1    37    36    1
     2    36    34   ar
     3    36    35   ar
     4    34    32   ar
     5    84    83    2
     6    35    33   ar
     7    32    31   ar
     8    83    82    1
     9    33    31   ar
    10    89    87   ar
    11    86    87    1
    12    86    85    1
    13    31    30    1
    14    26    27    1
    15    87    88   ar
    16    46    44   ar
    17    46    48   ar
    18    81    82    1
    19    82    85    1
    20    44    43   ar
    21    27    30    1
    22    27    28    1
    23    48    47   ar
    24    38    28   am
    25    38    39    1
    26    28    29    2
    27    43    42    1
    28    43    45   ar
    29    41    40    2
    30    42    39    1
    31    47    45   ar
    32    39    40    1
    33    40    49   am
    34    62    61    1
    35    49    50    1
    36    20    18   ar
    37    20    21   ar
    38    61    60    1
    39    18    17   ar
    40    50    51    1
    41    50    53    1
    42    51    52    2
    43    80    79    1
    44    21    19   ar
    45    60    59    1
    46    17    16    1
    47    17    19   ar
    48     4     3    2
    49    79    77   ar
    50    79    78   ar
    51    77    75   ar
    52    16    13    1
    53     1     2    1
    54     3    12   am
    55     3     2    1
    56    78    76   ar
    57    59    58    1
    58    75    74   ar
    59    13    12    1
    60    13    14    1
    61     2     5    1
    62    76    74   ar
    63    74    73    1
    64    68    67    1
    65    58    55    1
    66    25    24    2
    67    14    22   am
    68    14    15    2
    69     5     6    1
    70    22    23    1
    71    73    70    1
    72     8     6   ar
    73     8    10   ar
    74    24    23    1
    75     6     7   ar
    76    67    64    1
    77    56    57    2
    78    56    55    1
    79    56    63   am
    80    55    54    1
    81    63    64    1
    82    64    65    1
    83    10    11   ar
    84    70    69    1
    85    70    71    1
    86    72    71    2
    87     7     9   ar
    88    66    65    2
    89    11     9   ar
