@<TRIPOS>MOLECULE
tmp/4tkhA00.pdb
 210 194 0 0 0
SMALL
GASTEIGER

@<TRIPOS>ATOM
      1  N          2.7890  -20.5680    4.5620 N.3    17  PHE17      -0.1241
      2  CA         1.3800  -20.9970    4.5520 C.3    17  PHE17       0.1605
      3  C          1.2530  -22.4410    4.9910 C.2    17  PHE17       0.2264
      4  O          0.2540  -22.7840    5.6550 O.2    17  PHE17      -0.2867
      5  CB         0.7730  -20.7460    3.1730 C.3    17  PHE17       0.0534
      6  CG        -0.7380  -20.9020    3.1000 C.ar   17  PHE17      -0.0203
      7  CD1       -1.5940  -20.3620    4.0550 C.ar   17  PHE17      -0.0042
      8  CD2       -1.2800  -21.4970    1.9910 C.ar   17  PHE17      -0.0042
      9  CE1       -2.9640  -20.4290    3.8960 C.ar   17  PHE17      -0.0003
     10  CE2       -2.6790  -21.5720    1.8260 C.ar   17  PHE17      -0.0003
     11  CZ        -3.4950  -21.0390    2.7730 C.ar   17  PHE17      -0.0000
     12  N          1.1370  -22.4850    8.7240 N.3    20  TYR20      -0.1227
     13  CA        -0.1590  -21.9930    9.2110 C.3    20  TYR20       0.1736
     14  C         -1.2260  -23.0560    9.0790 C.2    20  TYR20       0.2595
     15  O         -1.9810  -23.3510   10.0230 O.2    20  TYR20      -0.2718
     16  CB        -0.4830  -20.7200    8.4580 C.3    20  TYR20       0.0548
     17  CG        -1.8380  -20.1410    8.8520 C.ar   20  TYR20      -0.0200
     18  CD1       -1.9980  -19.4640   10.0430 C.ar   20  TYR20      -0.0009
     19  CD2       -2.9500  -20.2910    8.0140 C.ar   20  TYR20      -0.0009
     20  CE1       -3.2290  -18.9560   10.3990 C.ar   20  TYR20       0.0417
     21  CE2       -4.1840  -19.7730    8.3790 C.ar   20  TYR20       0.0417
     22  CZ        -4.3220  -19.1020    9.5780 C.ar   20  TYR20       0.1957
     23  OH        -5.5650  -18.5860    9.9030 O.3    20  TYR20      -0.2866
     24  N         -1.3330  -23.6630    7.8880 N.am   21  MET21      -0.1979
     25  CA        -2.3120  -24.7060    7.6750 C.3    21  MET21       0.1605
     26  C         -2.1000  -25.8870    8.6090 C.2    21  MET21       0.2287
     27  O         -3.0460  -26.4580    9.1520 O.2    21  MET21      -0.2864
     28  CB        -2.2940  -25.1760    6.2280 C.3    21  MET21       0.0413
     29  CG        -2.7980  -24.1590    5.2300 C.3    21  MET21       0.0598
     30  SD        -2.9310  -24.8570    3.5430 S.3    21  MET21      -0.1393
     31  CE        -1.1770  -24.9450    3.1130 C.3    21  MET21       0.0692
     32  N         -3.4120  -25.2810   12.0420 N.3    24  LEU24      -0.1245
     33  CA        -4.8670  -25.4040   12.0600 C.3    24  LEU24       0.1561
     34  C         -5.3070  -26.8470   11.9150 C.2    24  LEU24       0.2260
     35  O         -6.5470  -27.1190   11.9750 O.2    24  LEU24      -0.2867
     36  CB        -5.4650  -24.5790   10.9350 C.3    24  LEU24       0.0270
     37  CG        -5.3680  -23.0760   11.0530 C.3    24  LEU24       0.0019
     38  CD1       -5.8720  -22.4650    9.7670 C.3    24  LEU24       0.0001
     39  CD2       -6.1700  -22.5440   12.2530 C.3    24  LEU24       0.0001
     40  N         -4.9460  -28.7940    9.1200 N.3    26  VAL26      -0.1245
     41  CA        -5.2720  -29.1310    7.7640 C.3    26  VAL26       0.1561
     42  C         -4.4480  -30.3450    7.3240 C.2    26  VAL26       0.2260
     43  O         -3.2430  -30.3900    7.5540 O.2    26  VAL26      -0.2867
     44  CB        -5.0170  -27.9190    6.8370 C.3    26  VAL26       0.0252
     45  CG1       -5.2990  -28.2720    5.3910 C.3    26  VAL26       0.0019
     46  CG2       -5.8190  -26.7140    7.2930 C.3    26  VAL26       0.0019
     47  N         -4.5650  -31.6850    1.3980 N.3    30  THR30      -0.1218
     48  CA        -5.0730  -30.3320    1.2010 C.3    30  THR30       0.1862
     49  C         -3.9570  -29.3100    1.2330 C.2    30  THR30       0.2287
     50  O         -3.9390  -28.3850    0.4310 O.2    30  THR30      -0.2866
     51  CB        -6.1600  -30.0510    2.2790 C.3    30  THR30       0.1770
     52  OG1       -7.2480  -30.9200    2.0540 O.3    30  THR30      -0.2211
     53  CG2       -6.6500  -28.6340    2.2370 C.3    30  THR30       0.0375
     54  N         -3.0850  -26.7270   -1.7610 N.3    34  ALA34      -0.1245
     55  CA        -3.1090  -25.3110   -1.3880 C.3    34  ALA34       0.1562
     56  C         -1.8000  -24.6140   -1.6300 C.2    34  ALA34       0.2260
     57  O         -1.7570  -23.4160   -1.9880 O.2    34  ALA34      -0.2867
     58  CB        -3.5250  -25.1730    0.0570 C.3    34  ALA34       0.0290
     59  N         -1.7550  -23.3510   -5.1700 N.3    37  THR37      -0.1218
     60  CA        -2.9120  -22.5700   -5.6290 C.3    37  THR37       0.1862
     61  C         -2.6180  -21.0910   -5.4660 C.2    37  THR37       0.2287
     62  O         -2.0070  -20.6600   -4.4710 O.2    37  THR37      -0.2866
     63  CB        -4.0940  -23.0480   -4.7800 C.3    37  THR37       0.1770
     64  OG1       -4.2880  -24.4950   -4.9760 O.3    37  THR37      -0.2211
     65  CG2       -5.3480  -22.3850   -5.1530 C.3    37  THR37       0.0375
     66  N         -4.9650  -17.9670   -5.1880 N.3    39  PRO39      -0.2116
     67  CA        -6.3280  -17.4490   -5.1800 C.3    39  PRO39       0.1372
     68  C         -6.3940  -16.0190   -5.6890 C.2    39  PRO39       0.2244
     69  O         -5.4420  -15.2540   -5.6900 O.2    39  PRO39      -0.2868
     70  CB        -6.7100  -17.4870   -3.6820 C.3    39  PRO39       0.0268
     71  CG        -5.7680  -18.4960   -3.0590 C.3    39  PRO39       0.0207
     72  CD        -4.4840  -18.2720   -3.8320 C.3    39  PRO39       0.0892
     73  N         -8.6900  -12.7750   -4.5520 N.3    41  THR41      -0.1218
     74  CA        -9.5450  -12.2530   -3.4890 C.3    41  THR41       0.1862
     75  C        -10.2210  -10.9980   -4.0160 C.2    41  THR41       0.2287
     76  O         -9.5770  -10.1160   -4.5640 O.2    41  THR41      -0.2866
     77  CB        -8.6960  -11.9300   -2.2520 C.3    41  THR41       0.1770
     78  OG1       -8.0270  -13.0880   -1.7980 O.3    41  THR41      -0.2211
     79  CG2       -9.5200  -11.2980   -1.1520 C.3    41  THR41       0.0375
     80  N        -13.0190  -15.3760   -1.9570 N.3    54  THR54      -0.1218
     81  CA       -11.7120  -15.9870   -2.2430 C.3    54  THR54       0.1862
     82  C        -11.9860  -17.1160   -3.2440 C.2    54  THR54       0.2287
     83  O        -12.7230  -18.0320   -2.9380 O.2    54  THR54      -0.2866
     84  CB       -11.0340  -16.5040   -0.9740 C.3    54  THR54       0.1770
     85  OG1      -11.0220  -15.4720    0.0380 O.3    54  THR54      -0.2211
     86  CG2       -9.6210  -16.9430   -1.2400 C.3    54  THR54       0.0375
     87  N        -10.5350  -19.8730   -6.2410 N.3    56  SER56      -0.1217
     88  CA        -9.3680  -20.6070   -6.7390 C.3    56  SER56       0.1889
     89  C         -9.8050  -21.8300   -7.4660 C.2    56  SER56       0.2288
     90  O        -10.9770  -22.1860   -7.5040 O.2    56  SER56      -0.2866
     91  CB        -8.4250  -20.9680   -5.6090 C.3    56  SER56       0.2089
     92  OG        -8.8990  -22.0950   -4.8750 O.3    56  SER56      -0.2183
     93  N         -9.1520  -24.6800   -6.3320 N.3    58  PHE58      -0.1227
     94  CA        -9.2820  -25.6820   -5.2910 C.3    58  PHE58       0.1736
     95  C        -10.4590  -25.4310   -4.4370 C.2    58  PHE58       0.2595
     96  O        -11.3900  -26.2300   -4.4400 O.2    58  PHE58      -0.2718
     97  CB        -7.9610  -25.7360   -4.4820 C.3    58  PHE58       0.0547
     98  CG        -7.9220  -26.7460   -3.4030 C.ar   58  PHE58      -0.0202
     99  CD1       -8.6300  -27.9330   -3.4720 C.ar   58  PHE58      -0.0042
    100  CD2       -7.1040  -26.5590   -2.3020 C.ar   58  PHE58      -0.0042
    101  CE1       -8.5140  -28.8850   -2.4720 C.ar   58  PHE58      -0.0003
    102  CE2       -7.0060  -27.5230   -1.3170 C.ar   58  PHE58      -0.0003
    103  CZ        -7.7190  -28.6620   -1.3710 C.ar   58  PHE58      -0.0000
    104  N        -10.4320  -24.3990   -3.6030 N.am   59  LYS59      -0.1980
    105  CA       -11.5850  -24.0330   -2.7470 C.3    59  LYS59       0.1596
    106  C        -12.0210  -22.6200   -3.0850 C.2    59  LYS59       0.2287
    107  O        -11.2200  -21.7790   -3.4850 O.2    59  LYS59      -0.2864
    108  CB       -11.1440  -24.0910   -1.2450 C.3    59  LYS59       0.0298
    109  CG       -10.5200  -25.2520   -0.6650 C.3    59  LYS59       0.0038
    110  CD       -11.4820  -26.2840   -0.3070 C.3    59  LYS59       0.0206
    111  CE       -10.8220  -27.3190    0.5800 C.3    59  LYS59       0.1093
    112  NZ       -11.7130  -28.4900    0.4070 N.3    59  LYS59      -0.1314
    113  N        -14.9980  -21.7490    7.5170 N.3    75  THR75      -0.1203
    114  CA       -13.7880  -21.4430    6.7540 C.3    75  THR75       0.1994
    115  C        -13.5370  -22.4540    5.6480 C.2    75  THR75       0.2618
    116  O        -14.1790  -23.4940    5.5430 O.2    75  THR75      -0.2717
    117  CB       -12.6020  -21.3930    7.7380 C.3    75  THR75       0.1784
    118  OG1      -12.3860  -22.7070    8.2570 O.3    75  THR75      -0.2211
    119  CG2      -12.8240  -20.4110    8.8450 C.3    75  THR75       0.0376
    120  N        -12.5160  -22.1480    4.8140 N.am   76  ALA76      -0.1965
    121  CA       -12.1960  -23.0180    3.6890 C.3    76  ALA76       0.1728
    122  C        -11.8260  -24.4250    4.1220 C.2    76  ALA76       0.2616
    123  O        -12.0270  -25.3690    3.3820 O.2    76  ALA76      -0.2715
    124  CB       -11.0700  -22.4100    2.8890 C.3    76  ALA76       0.0334
    125  N        -11.2130  -24.5270    5.3230 N.am   77  ASP77      -0.1971
    126  CA       -10.8370  -25.7870    5.9120 C.3    77  ASP77       0.1709
    127  C        -11.8980  -26.3260    6.8720 C.2    77  ASP77       0.2293
    128  O        -11.6470  -27.2410    7.6630 O.2    77  ASP77      -0.2864
    129  CB        -9.4730  -25.6940    6.6240 C.3    77  ASP77       0.1436
    130  CG        -9.4490  -24.6530    7.7500 C.2    77  ASP77       0.3671
    131  OD1       -9.9410  -23.5180    7.4930 O.co2  77  ASP77      -0.2456
    132  OD2       -8.9040  -24.9500    8.8280 O.co2  77  ASP77      -0.2456
    133  N        -13.6600  -25.1220    9.4510 N.3    79  ARG79      -0.1245
    134  CA       -13.8990  -24.6830   10.8430 C.3    79  ARG79       0.1563
    135  C        -15.1460  -23.8090   10.9310 C.2    79  ARG79       0.2260
    136  O        -15.3180  -22.8910   10.1480 O.2    79  ARG79      -0.2867
    137  CB       -12.7120  -23.9140   11.4120 C.3    79  ARG79       0.0307
    138  CG       -11.4650  -24.7500   11.6180 C.3    79  ARG79       0.0489
    139  CD       -10.2690  -23.8610   12.0230 C.3    79  ARG79       0.2205
    140  NE        -9.7410  -23.1840   10.8400 N.pl3  79  ARG79      -0.0865
    141  CZ        -9.7000  -21.8830   10.6120 C.cat  79  ARG79       0.5346
    142  NH1       -9.9380  -20.9900   11.5790 N.pl3  79  ARG79       0.1354
    143  NH2       -9.3940  -21.4540    9.3860 N.pl3  79  ARG79       0.1354
    144  N        -10.9650  -14.7840   14.1160 N.3    96  GLN96      -0.1245
    145  CA       -11.8140  -15.9710   14.1800 C.3    96  GLN96       0.1566
    146  C        -11.6110  -16.6870   15.4990 C.2    96  GLN96       0.2260
    147  O        -10.4570  -16.8860   15.9210 O.2    96  GLN96      -0.2867
    148  CB       -11.4620  -16.9520   13.0560 C.3    96  GLN96       0.0367
    149  CG       -11.6750  -16.3720   11.6730 C.3    96  GLN96       0.0905
    150  CD       -11.1700  -17.2750   10.5730 C.2    96  GLN96       0.2608
    151  OE1      -10.2860  -18.1180   10.7610 O.2    96  GLN96      -0.2717
    152  NE2      -11.7180  -17.1010    9.3800 N.am   96  GLN96      -0.0878
    153  N         -6.3240  -12.8040   10.7420 N.3   105  LEU105     -0.1245
    154  CA        -6.0280  -12.5740    9.3290 C.3   105  LEU105      0.1561
    155  C         -5.9600  -11.0790    9.1570 C.2   105  LEU105      0.2260
    156  O         -7.0080  -10.3950    9.2550 O.2   105  LEU105     -0.2867
    157  CB        -7.0860  -13.1970    8.4220 C.3   105  LEU105      0.0270
    158  CG        -7.3920  -14.7090    8.6010 C.3   105  LEU105      0.0019
    159  CD1       -8.4870  -14.9140    9.7070 C.3   105  LEU105      0.0001
    160  CD2       -7.8680  -15.3270    7.2910 C.3   105  LEU105      0.0001
    161  N         -4.8700   -7.6670    7.0840 N.3   107  ARG107     -0.1245
    162  CA        -4.5530   -7.1620    5.7540 C.3   107  ARG107      0.1563
    163  C         -4.1180   -5.7230    5.8540 C.2   107  ARG107      0.2260
    164  O         -4.7720   -4.8980    6.5230 O.2   107  ARG107     -0.2867
    165  CB        -5.7550   -7.2600    4.8270 C.3   107  ARG107      0.0307
    166  CG        -6.0820   -8.7120    4.5040 C.3   107  ARG107      0.0489
    167  CD        -7.2970   -8.8390    3.6070 C.3   107  ARG107      0.2205
    168  NE        -7.5340  -10.1680    3.0830 N.pl3 107  ARG107     -0.0865
    169  CZ        -8.2260  -11.0940    3.7320 C.cat 107  ARG107      0.5346
    170  NH1       -8.7930  -10.8490    4.9010 N.pl3 107  ARG107      0.1354
    171  NH2       -8.4400  -12.2940    3.1910 N.pl3 107  ARG107      0.1354
    172  N         -1.2880   -9.9360    3.5580 N.3   116  LEU116     -0.1245
    173  CA        -2.1370  -10.7070    4.4550 C.3   116  LEU116      0.1561
    174  C         -1.2260  -11.4890    5.4060 C.2   116  LEU116      0.2260
    175  O         -0.4440  -12.3270    4.9500 O.2   116  LEU116     -0.2867
    176  CB        -2.9880  -11.6500    3.6090 C.3   116  LEU116      0.0270
    177  CG        -3.7760  -12.7020    4.4000 C.3   116  LEU116      0.0019
    178  CD1       -4.8120  -12.0860    5.3320 C.3   116  LEU116      0.0001
    179  CD2       -4.4350  -13.6750    3.4070 C.3   116  LEU116      0.0001
    180  N         -1.2830  -14.0930    8.4600 N.3   118  LEU118     -0.1245
    181  CA        -2.1090  -15.1050    9.1150 C.3   118  LEU118      0.1561
    182  C         -1.3570  -15.5730   10.3450 C.2   118  LEU118      0.2260
    183  O         -0.1860  -15.9800   10.2150 O.2   118  LEU118     -0.2867
    184  CB        -2.3530  -16.2540    8.1410 C.3   118  LEU118      0.0270
    185  CG        -2.9160  -15.8500    6.7700 C.3   118  LEU118      0.0019
    186  CD1       -2.9840  -17.0550    5.8290 C.3   118  LEU118      0.0001
    187  CD2       -4.3110  -15.3070    6.9740 C.3   118  LEU118      0.0001
    188  N          1.2190  -13.5460    3.0630 N.3   127  ARG127     -0.1245
    189  CA         0.8680  -13.6800    1.6940 C.3   127  ARG127      0.1563
    190  C          0.6410  -12.3410    1.0610 C.2   127  ARG127      0.2260
    191  O          0.0080  -11.4430    1.6310 O.2   127  ARG127     -0.2867
    192  CB        -0.3770  -14.5160    1.5990 C.3   127  ARG127      0.0307
    193  CG        -0.0150  -15.9680    1.8550 C.3   127  ARG127      0.0489
    194  CD        -1.1510  -16.8650    2.1990 C.3   127  ARG127      0.2205
    195  NE        -2.1360  -17.1460    1.1820 N.pl3 127  ARG127     -0.0865
    196  CZ        -2.0520  -18.1370    0.2860 C.cat 127  ARG127      0.5346
    197  NH1       -0.9140  -18.8210    0.0910 N.pl3 127  ARG127      0.1354
    198  NH2       -3.0780  -18.4510   -0.4910 N.pl3 127  ARG127      0.1354
    199  N         -0.6290  -10.0250   -2.1380 N.3   129  TYR129     -0.1241
    200  CA        -1.5430   -9.9300   -3.2610 C.3   129  TYR129      0.1605
    201  C         -1.2920   -8.6390   -4.0140 C.2   129  TYR129      0.2264
    202  O         -1.0030   -7.6070   -3.4220 O.2   129  TYR129     -0.2867
    203  CB        -2.9930   -9.9350   -2.7200 C.3   129  TYR129      0.0534
    204  CG        -3.5270  -11.2890   -2.2800 C.ar  129  TYR129     -0.0201
    205  CD1       -3.2440  -11.8560   -1.0510 C.ar  129  TYR129     -0.0009
    206  CD2       -4.3200  -12.0050   -3.1560 C.ar  129  TYR129     -0.0009
    207  CE1       -3.7850  -13.1380   -0.7150 C.ar  129  TYR129      0.0417
    208  CE2       -4.8240  -13.2580   -2.8570 C.ar  129  TYR129      0.0417
    209  CZ        -4.5420  -13.8060   -1.6500 C.ar  129  TYR129      0.1957
    210  OH        -5.0740  -15.0520   -1.3810 O.3   129  TYR129     -0.2866
@<TRIPOS>BOND
     1    90    89    2
     2    89    88    1
     3    88    87    1
     4    88    91    1
     5    93    94    1
     6    69    68    2
     7    68    67    1
     8    60    61    1
     9    60    59    1
    10    60    63    1
    11    91    92    1
    12    61    62    2
    13    94    97    1
    14    94    95    1
    15    66    67    1
    16    66    72    1
    17    67    70    1
    18    65    63    1
    19    64    63    1
    20    76    75    2
    21    73    74    1
    22    97    98    1
    23    96    95    2
    24    95   104   am
    25    75    74    1
    26   201   202    2
    27   201   200    1
    28    72    71    1
    29    70    71    1
    30   104   105    1
    31    74    77    1
    32   107   106    2
    33    99    98   ar
    34    99   101   ar
    35    98   100   ar
    36   200   203    1
    37   200   199    1
    38    82    83    2
    39    82    81    1
    40   206   208   ar
    41   206   204   ar
    42   106   105    1
    43   208   209   ar
    44   105   108    1
    45   203   204    1
    46   101   103   ar
    47   100   102   ar
    48   204   205   ar
    49    77    78    1
    50    77    79    1
    51    81    80    1
    52    81    84    1
    53    57    56    2
    54    54    55    1
    55   209   210    1
    56   209   207   ar
    57    56    55    1
    58    55    58    1
    59   103   102   ar
    60   108   109    1
    61    86    84    1
    62   205   207   ar
    63    84    85    1
    64   109   110    1
    65   198   196    1
    66   110   111    1
    67   197   196    1
    68   196   195    2
    69   112   111    1
    70    50    49    2
    71   190   191    2
    72   190   189    1
    73   195   194    1
    74    48    49    1
    75    48    47    1
    76    48    51    1
    77   192   189    1
    78   192   193    1
    79   189   188    1
    80    10     8   ar
    81    10    11   ar
    82   193   194    1
    83     8     6   ar
    84    52    51    1
    85    53    51    1
    86    11     9   ar
    87   124   121    1
    88   168   167    1
    89   168   169    2
    90     6     5    1
    91     6     7   ar
    92    31    30    1
    93     5     2    1
    94   171   169    1
    95   123   122    2
    96   179   177    1
    97    30    29    1
    98   172   173    1
    99   167   166    1
   100   176   177    1
   101   176   173    1
   102   121   122    1
   103   121   120    1
   104   169   170    1
   105     9     7   ar
   106   122   125   am
   107   177   178    1
   108   173   174    1
   109   166   165    1
   110     2     1    1
   111     2     3    1
   112   120   115   am
   113   165   162    1
   114   175   174    2
   115     3     4    2
   116    29    28    1
   117   125   126    1
   118    45    44    1
   119   116   115    2
   120   115   114    1
   121   162   163    1
   122   162   161    1
   123   186   185    1
   124   163   164    2
   125   126   129    1
   126   126   127    1
   127    28    25    1
   128   129   130    1
   129   114   113    1
   130   114   117    1
   131   185   187    1
   132   185   184    1
   133    44    46    1
   134    44    41    1
   135   127   128    2
   136   160   158    1
   137    42    43    2
   138    42    41    1
   139   131   130   ar
   140    25    24    1
   141    25    26    1
   142   117   118    1
   143   117   119    1
   144   130   132   ar
   145    41    40    1
   146    24    14   am
   147    19    21   ar
   148    19    17   ar
   149   184   181    1
   150    21    22   ar
   151   157   158    1
   152   157   154    1
   153    16    17    1
   154    16    13    1
   155   180   181    1
   156   158   159    1
   157    26    27    2
   158    12    13    1
   159    17    18   ar
   160    14    13    1
   161    14    15    2
   162   181   182    1
   163   155   156    2
   164   155   154    1
   165   154   153    1
   166   152   150   am
   167   143   141    1
   168   133   134    1
   169    22    23    1
   170    22    20   ar
   171    38    37    1
   172    18    20   ar
   173   136   135    2
   174   183   182    2
   175   150   151    2
   176   150   149    1
   177   141   140    2
   178   141   142    1
   179   140   139    1
   180   134   135    1
   181   134   137    1
   182    36    37    1
   183    36    33    1
   184    37    39    1
   185   137   138    1
   186   138   139    1
   187   149   148    1
   188    34    35    2
   189    34    33    1
   190    32    33    1
   191   148   145    1
   192   144   145    1
   193   145   146    1
   194   146   147    2
