@<TRIPOS>MOLECULE
tmp/4tkiD01.pdb
 82 80 0 0 0
SMALL
GASTEIGER

@<TRIPOS>ATOM
      1  N         18.0550    8.3330    2.2880 N.3    70  HIS70      -0.1241
      2  CA        18.6120    7.0340    2.6330 C.3    70  HIS70       0.1621
      3  C         18.8490    6.2080    1.3510 C.2    70  HIS70       0.2264
      4  O         17.9460    6.0500    0.5410 O.2    70  HIS70      -0.2867
      5  CB        17.7350    6.2850    3.6340 C.3    70  HIS70       0.0745
      6  CG        18.3310    4.9820    4.0910 C.ar   70  HIS70       0.0817
      7  ND1       19.3360    4.9400    5.0470 N.ar   70  HIS70      -0.2268
      8  CD2       18.0470    3.7170    3.6990 C.ar   70  HIS70       0.1154
      9  CE1       19.6440    3.6620    5.1960 C.ar   70  HIS70       0.1986
     10  NE2       18.8940    2.8840    4.4180 N.ar   70  HIS70      -0.2212
     11  N         20.1650    2.4670   -0.1340 N.3    72  SER72      -0.1217
     12  CA        20.2290    1.0560    0.2630 C.3    72  SER72       0.1889
     13  C         19.8500    0.0790   -0.8620 C.2    72  SER72       0.2288
     14  O         18.8040    0.2590   -1.4890 O.2    72  SER72      -0.2866
     15  CB        19.2620    0.8130    1.4310 C.3    72  SER72       0.2089
     16  OG        19.2830   -0.5110    1.9460 O.3    72  SER72      -0.2183
     17  N         18.3790   -2.5780   -0.2380 N.3    74  PHE74      -0.1241
     18  CA        17.2120   -3.1770    0.4120 C.3    74  PHE74       0.1605
     19  C         16.0130   -2.2420    0.5410 C.2    74  PHE74       0.2264
     20  O         15.1730   -2.4390    1.4210 O.2    74  PHE74      -0.2867
     21  CB        17.6080   -3.7730    1.7830 C.3    74  PHE74       0.0534
     22  CG        18.8280   -4.6490    1.7220 C.ar   74  PHE74      -0.0203
     23  CD1       18.7550   -5.9340    1.1940 C.ar   74  PHE74      -0.0042
     24  CD2       20.0660   -4.1730    2.1390 C.ar   74  PHE74      -0.0042
     25  CE1       19.9050   -6.7230    1.0720 C.ar   74  PHE74      -0.0003
     26  CE2       21.2080   -4.9720    2.0470 C.ar   74  PHE74      -0.0003
     27  CZ        21.1210   -6.2420    1.5130 C.ar   74  PHE74      -0.0000
     28  N         12.5730   -4.0980    0.8110 N.3    77  ALA77      -0.1231
     29  CA        12.2700   -4.6040    2.1500 C.3    77  ALA77       0.1694
     30  C         11.8410   -3.4600    3.0920 C.2    77  ALA77       0.2591
     31  O         10.8430   -3.6000    3.8080 O.2    77  ALA77      -0.2718
     32  CB        13.4890   -5.3240    2.7170 C.3    77  ALA77       0.0304
     33  N         12.5740   -2.3060    3.0520 N.am   78  ILE78      -0.1980
     34  CA        12.2980   -1.1270    3.8880 C.3    78  ILE78       0.1595
     35  C         10.8570   -0.6680    3.7210 C.2    78  ILE78       0.2287
     36  O         10.1150   -0.5260    4.6950 O.2    78  ILE78      -0.2864
     37  CB        13.3200    0.0300    3.6620 C.3    78  ILE78       0.0276
     38  CG1       14.7280   -0.3790    4.1520 C.3    78  ILE78       0.0022
     39  CG2       12.8550    1.3080    4.3960 C.3    78  ILE78       0.0022
     40  CD1       15.9160    0.3070    3.4460 C.3    78  ILE78       0.0001
     41  N          8.4810   -3.6800    5.1910 N.3    81  LYS81      -0.1231
     42  CA         8.7650   -4.0740    6.5850 C.3    81  LYS81       0.1693
     43  C          9.1470   -2.9330    7.5230 C.2    81  LYS81       0.2593
     44  O          9.0610   -3.1110    8.7370 O.2    81  LYS81      -0.2718
     45  CB         9.9090   -5.1240    6.6220 C.3    81  LYS81       0.0285
     46  CG         9.6570   -6.4060    5.8380 C.3    81  LYS81       0.0035
     47  CD        10.9310   -7.2500    5.7560 C.3    81  LYS81       0.0206
     48  CE        10.7340   -8.5610    5.0220 C.3    81  LYS81       0.1093
     49  NZ        11.2470   -8.5080    3.6260 N.3    81  LYS81      -0.1314
     50  N          9.6190   -1.8140    6.9590 N.am   82  GLY82      -0.1942
     51  CA        10.1390   -0.6650    7.6960 C.3    82  GLY82       0.2014
     52  C         11.6310   -0.7860    7.9010 C.2    82  GLY82       0.2639
     53  O         12.2250   -1.8000    7.5420 O.2    82  GLY82      -0.2714
     54  N         12.2560    0.2380    8.4920 N.am   83  PHE83      -0.1959
     55  CA        13.6660    0.1790    8.8490 C.3    83  PHE83       0.1771
     56  C         13.8390   -0.8010   10.0440 C.2    83  PHE83       0.2619
     57  O         12.9110   -0.9380   10.8510 O.2    83  PHE83      -0.2715
     58  CB        14.1580    1.5730    9.2170 C.3    83  PHE83       0.0574
     59  CG        14.3520    2.4450    8.0010 C.ar   83  PHE83      -0.0200
     60  CD1       15.4750    2.3020    7.1930 C.ar   83  PHE83      -0.0042
     61  CD2       13.3960    3.3860    7.6440 C.ar   83  PHE83      -0.0042
     62  CE1       15.6570    3.1090    6.0800 C.ar   83  PHE83      -0.0003
     63  CE2       13.5750    4.1840    6.5160 C.ar   83  PHE83      -0.0003
     64  CZ        14.7120    4.0510    5.7510 C.ar   83  PHE83      -0.0000
     65  N         14.9850   -1.5140   10.1110 N.am   84  ASP84      -0.1971
     66  CA        15.2310   -2.5000   11.1650 C.3    84  ASP84       0.1709
     67  C         16.6400   -2.3600   11.7120 C.2    84  ASP84       0.2293
     68  O         17.6070   -2.6050   10.9870 O.2    84  ASP84      -0.2864
     69  CB        14.9950   -3.9390   10.6270 C.3    84  ASP84       0.1436
     70  CG        14.8660   -5.0460   11.6800 C.2    84  ASP84       0.3671
     71  OD1       15.3550   -4.8560   12.8140 O.co2  84  ASP84      -0.2456
     72  OD2       14.3300   -6.1190   11.3480 O.co2  84  ASP84      -0.2456
     73  N         19.2990   -5.1480   11.3590 N.3    87  HIS87      -0.1241
     74  CA        19.9420   -5.1980   10.0450 C.3    87  HIS87       0.1621
     75  C         20.9980   -4.1140    9.8570 C.2    87  HIS87       0.2264
     76  O         21.5390   -3.9510    8.7630 O.2    87  HIS87      -0.2867
     77  CB        18.9000   -5.1810    8.9410 C.3    87  HIS87       0.0745
     78  CG        18.3370   -6.5330    8.7180 C.ar   87  HIS87       0.0817
     79  ND1       17.0130   -6.8030    8.9560 N.ar   87  HIS87      -0.2268
     80  CD2       18.9630   -7.6730    8.3420 C.ar   87  HIS87       0.1154
     81  CE1       16.8630   -8.0850    8.6870 C.ar   87  HIS87       0.1986
     82  NE2       18.0140   -8.6440    8.3090 N.ar   87  HIS87      -0.2212
@<TRIPOS>BOND
     1    14    13    2
     2    13    12    1
     3    17    18    1
     4    11    12    1
     5    12    15    1
     6    18    19    1
     7    18    21    1
     8     4     3    2
     9    19    20    2
    10    28    29    1
    11    25    23   ar
    12    25    27   ar
    13    23    22   ar
    14     3     2    1
    15    15    16    1
    16    27    26   ar
    17    22    21    1
    18    22    24   ar
    19    26    24   ar
    20    29    32    1
    21    29    30    1
    22     1     2    1
    23     2     5    1
    24    33    30   am
    25    33    34    1
    26    30    31    2
    27    40    38    1
    28    49    48    1
    29     5     6    1
    30    37    34    1
    31    37    38    1
    32    37    39    1
    33     8     6   ar
    34     8    10   ar
    35    35    34    1
    36    35    36    2
    37     6     7   ar
    38    10     9   ar
    39    48    47    1
    40     7     9   ar
    41    41    42    1
    42    64    62   ar
    43    64    63   ar
    44    47    46    1
    45    46    45    1
    46    62    60   ar
    47    63    61   ar
    48    42    45    1
    49    42    43    1
    50    50    43   am
    51    50    51    1
    52    60    59   ar
    53    43    44    2
    54    53    52    2
    55    61    59   ar
    56    51    52    1
    57    52    54   am
    58    59    58    1
    59    82    80   ar
    60    82    81   ar
    61    80    78   ar
    62    54    55    1
    63    81    79   ar
    64    78    77    1
    65    78    79   ar
    66    76    75    2
    67    55    58    1
    68    55    56    1
    69    77    74    1
    70    75    74    1
    71    56    65   am
    72    56    57    2
    73    74    73    1
    74    65    66    1
    75    69    66    1
    76    69    70    1
    77    68    67    2
    78    66    67    1
    79    72    70   ar
    80    70    71   ar
