@<TRIPOS>MOLECULE
tmp/4tkiD00.pdb
 111 110 0 0 0
SMALL
GASTEIGER

@<TRIPOS>ATOM
      1  N         18.0550    8.3330    2.2880 N.3    70  HIS70      -0.1226
      2  CA        18.6120    7.0340    2.6330 C.3    70  HIS70       0.1752
      3  C         18.8490    6.2080    1.3510 C.2    70  HIS70       0.2597
      4  O         17.9460    6.0500    0.5410 O.2    70  HIS70      -0.2718
      5  CB        17.7350    6.2850    3.6340 C.3    70  HIS70       0.0759
      6  CG        18.3310    4.9820    4.0910 C.ar   70  HIS70       0.0818
      7  ND1       19.3360    4.9400    5.0470 N.ar   70  HIS70      -0.2268
      8  CD2       18.0470    3.7170    3.6990 C.ar   70  HIS70       0.1154
      9  CE1       19.6440    3.6620    5.1960 C.ar   70  HIS70       0.1986
     10  NE2       18.8940    2.8840    4.4180 N.ar   70  HIS70      -0.2212
     11  N         20.0770    5.7330    1.1750 N.am   71  GLY71      -0.1942
     12  CA        20.4650    4.8880    0.0530 C.3    71  GLY71       0.2014
     13  C         20.6980    3.4950    0.5760 C.2    71  GLY71       0.2640
     14  O         21.3320    3.3490    1.6260 O.2    71  GLY71      -0.2714
     15  N         20.1650    2.4670   -0.1340 N.am   72  SER72      -0.1936
     16  CA        20.2290    1.0560    0.2630 C.3    72  SER72       0.2040
     17  C         19.8500    0.0790   -0.8620 C.2    72  SER72       0.2485
     18  O         18.8040    0.2590   -1.4890 O.2    72  SER72      -0.2729
     19  CB        19.2620    0.8130    1.4310 C.3    72  SER72       0.2129
     20  OG        19.2830   -0.5110    1.9460 O.3    72  SER72      -0.2179
     21  N         20.5560   -1.0680   -1.0080 N.am   73  PRO73      -0.2726
     22  CA        20.0880   -2.1020   -1.9690 C.3    73  PRO73       0.1402
     23  C         18.7700   -2.7930   -1.5150 C.2    73  PRO73       0.2269
     24  O         18.1250   -3.5050   -2.3030 O.2    73  PRO73      -0.2865
     25  CB        21.2560   -3.1140   -2.0050 C.3    73  PRO73       0.0296
     26  CG        22.4200   -2.4040   -1.3410 C.3    73  PRO73       0.0237
     27  CD        21.7890   -1.5010   -0.3250 C.3    73  PRO73       0.0939
     28  N         21.1390    3.0470   11.8510 N.3    96  ILE96      -0.1231
     29  CA        20.5820    3.2890   10.5320 C.3    96  ILE96       0.1692
     30  C         20.9830    4.7360   10.1510 C.2    96  ILE96       0.2592
     31  O         20.6970    5.6840   10.8810 O.2    96  ILE96      -0.2718
     32  CB        19.0520    3.0200   10.4940 C.3    96  ILE96       0.0266
     33  CG1       18.7190    1.6530   11.1270 C.3    96  ILE96       0.0019
     34  CG2       18.5120    3.1270    9.0420 C.3    96  ILE96       0.0020
     35  CD1       17.4080    1.6170   11.8440 C.3    96  ILE96       0.0001
     36  N         21.7080    4.8690    9.0370 N.am   97  TYR97      -0.1962
     37  CA        22.3160    6.0990    8.5560 C.3    97  TYR97       0.1771
     38  C         21.5220    6.8510    7.5040 C.2    97  TYR97       0.2620
     39  O         21.0130    6.2560    6.5460 O.2    97  TYR97      -0.2715
     40  CB        23.7280    5.8030    8.0350 C.3    97  TYR97       0.0574
     41  CG        24.7060    5.3830    9.1080 C.ar   97  TYR97      -0.0198
     42  CD1       24.6010    4.1420    9.7290 C.ar   97  TYR97      -0.0009
     43  CD2       25.7690    6.2030    9.4680 C.ar   97  TYR97      -0.0009
     44  CE1       25.4790    3.7630   10.7400 C.ar   97  TYR97       0.0417
     45  CE2       26.6590    5.8300   10.4700 C.ar   97  TYR97       0.0417
     46  CZ        26.4960    4.6170   11.1200 C.ar   97  TYR97       0.1957
     47  OH        27.3370    4.2480   12.1420 O.3    97  TYR97      -0.2866
     48  N         21.4580    8.1740    7.6770 N.am   98  PHE98      -0.1960
     49  CA        20.7430    9.0980    6.7940 C.3    98  PHE98       0.1771
     50  C         21.6140   10.2890    6.4610 C.2    98  PHE98       0.2619
     51  O         22.5030   10.6430    7.2380 O.2    98  PHE98      -0.2715
     52  CB        19.4240    9.5760    7.4440 C.3    98  PHE98       0.0574
     53  CG        18.4910    8.4250    7.7300 C.ar   98  PHE98      -0.0200
     54  CD1       17.6050    7.9690    6.7580 C.ar   98  PHE98      -0.0042
     55  CD2       18.5120    7.7790    8.9610 C.ar   98  PHE98      -0.0042
     56  CE1       16.7470    6.9020    7.0270 C.ar   98  PHE98      -0.0003
     57  CE2       17.6570    6.7200    9.2270 C.ar   98  PHE98      -0.0003
     58  CZ        16.8020    6.2650    8.2510 C.ar   98  PHE98      -0.0000
     59  N         21.3940   10.8770    5.2780 N.am   99  ALA99      -0.1977
     60  CA        22.1610   12.0400    4.8660 C.3    99  ALA99       0.1597
     61  C         21.2390   13.1580    4.4720 C.2    99  ALA99       0.2287
     62  O         20.0910   12.9240    4.0940 O.2    99  ALA99      -0.2864
     63  CB        23.1040   11.6880    3.7190 C.3    99  ALA99       0.0319
     64  N         25.2290   11.9760   -1.1090 N.3   104  LYS104     -0.1231
     65  CA        25.9230   11.1210   -0.1310 C.3   104  LYS104      0.1693
     66  C         25.1740    9.7770   -0.0280 C.2   104  LYS104      0.2592
     67  O         25.8040    8.7230   -0.0190 O.2   104  LYS104     -0.2718
     68  CB        26.0590   11.7880    1.2410 C.3   104  LYS104      0.0285
     69  CG        26.9750   10.9780    2.1760 C.3   104  LYS104      0.0035
     70  CD        27.1740   11.6100    3.5290 C.3   104  LYS104      0.0206
     71  CE        28.0450   10.7380    4.4000 C.3   104  LYS104      0.1093
     72  NZ        28.3260   11.3660    5.7170 N.3   104  LYS104     -0.1314
     73  N         23.8400    9.8300    0.0040 N.am  105  SER105     -0.1952
     74  CA        22.9690    8.6570    0.0420 C.3   105  SER105      0.1924
     75  C         23.0600    7.8670   -1.2580 C.2   105  SER105      0.2314
     76  O         22.9950    6.6350   -1.2100 O.2   105  SER105     -0.2863
     77  CB        21.5370    9.0670    0.3660 C.3   105  SER105      0.2116
     78  OG        21.5110    9.6480    1.6630 O.3   105  SER105     -0.2180
     79  N         25.3830    4.8340   -1.5020 N.3   108  TYR108     -0.1241
     80  CA        24.9690    3.6140   -0.7950 C.3   108  TYR108      0.1605
     81  C         23.8540    2.8180   -1.4280 C.2   108  TYR108      0.2264
     82  O         23.5280    1.7440   -0.9280 O.2   108  TYR108     -0.2867
     83  CB        24.6050    3.9430    0.6490 C.3   108  TYR108      0.0534
     84  CG        25.7920    4.4000    1.4510 C.ar  108  TYR108     -0.0201
     85  CD1       26.6210    3.4820    2.0880 C.ar  108  TYR108     -0.0009
     86  CD2       26.1060    5.7460    1.5530 C.ar  108  TYR108     -0.0009
     87  CE1       27.7470    3.8950    2.7930 C.ar  108  TYR108      0.0417
     88  CE2       27.2190    6.1740    2.2710 C.ar  108  TYR108      0.0417
     89  CZ        28.0250    5.2470    2.9100 C.ar  108  TYR108      0.1957
     90  OH        29.0900    5.6810    3.6560 O.3   108  TYR108     -0.2866
     91  N         25.2470   -0.5020   -2.2310 N.3   111  GLY111     -0.1210
     92  CA        25.9980   -1.0800   -1.1190 C.3   111  GLY111      0.1956
     93  C         27.0000   -0.1170   -0.5130 C.2   111  GLY111      0.2611
     94  O         27.1110    1.0090   -0.9860 O.2   111  GLY111     -0.2717
     95  N         27.7260   -0.5410    0.5540 N.am  112  ILE112     -0.1979
     96  CA        28.7290    0.2980    1.2420 C.3   112  ILE112      0.1595
     97  C         29.8010    0.7270    0.2650 C.2   112  ILE112      0.2287
     98  O         30.4020   -0.1210   -0.3790 O.2   112  ILE112     -0.2864
     99  CB        29.2910   -0.3530    2.5360 C.3   112  ILE112      0.0276
    100  CG1       28.2180   -0.3850    3.6350 C.3   112  ILE112      0.0022
    101  CG2       30.5480    0.3720    3.0350 C.3   112  ILE112      0.0022
    102  CD1       27.6800   -1.7420    3.8770 C.3   112  ILE112      0.0001
    103  N         25.9820   13.4030    8.5660 N.3   171  GLU171     -0.1245
    104  CA        25.2010   12.1740    8.6190 C.3   171  GLU171      0.1567
    105  C         24.4460   12.0910    9.9340 C.2   171  GLU171      0.2260
    106  O         24.8000   12.7990   10.8780 O.2   171  GLU171     -0.2867
    107  CB        25.9610   10.8890    8.2120 C.3   171  GLU171      0.0388
    108  CG        27.2770   10.6090    8.9110 C.3   171  GLU171      0.1160
    109  CD        27.9020    9.2990    8.4650 C.2   171  GLU171      0.3649
    110  OE1       27.9370    9.0300    7.2400 O.co2 171  GLU171     -0.2457
    111  OE2       28.3420    8.5300    9.3500 O.co2 171  GLU171     -0.2457
@<TRIPOS>BOND
     1    24    23    2
     2    91    92    1
     3    25    22    1
     4    25    26    1
     5    22    23    1
     6    22    21    1
     7    79    80    1
     8    18    17    2
     9    81    82    2
    10    81    80    1
    11    26    27    1
    12    75    76    2
    13    75    74    1
    14    92    93    1
    15    64    65    1
    16    21    17   am
    17    21    27    1
    18    94    93    2
    19    17    16    1
    20    80    83    1
    21    93    95   am
    22    98    97    2
    23    15    16    1
    24    15    13   am
    25    65    66    1
    26    65    68    1
    27    66    67    2
    28    66    73   am
    29    73    74    1
    30    74    77    1
    31    12    13    1
    32    12    11    1
    33    16    19    1
    34    97    96    1
    35    77    78    1
    36     4     3    2
    37    95    96    1
    38    13    14    2
    39    83    84    1
    40    11     3   am
    41    68    69    1
    42    96    99    1
    43     3     2    1
    44    19    20    1
    45    84    86   ar
    46    84    85   ar
    47    86    88   ar
    48    85    87   ar
    49    69    70    1
    50    88    89   ar
    51     1     2    1
    52    99   101    1
    53    99   100    1
    54     2     5    1
    55    87    89   ar
    56    89    90    1
    57    70    71    1
    58     5     6    1
    59   100   102    1
    60     8     6   ar
    61     8    10   ar
    62    63    60    1
    63     6     7   ar
    64    62    61    2
    65    71    72    1
    66    10     9   ar
    67    61    60    1
    68    60    59    1
    69     7     9   ar
    70    59    50   am
    71    50    49    1
    72    50    51    2
    73    39    38    2
    74    54    56   ar
    75    54    53   ar
    76    49    52    1
    77    49    48    1
    78    56    58   ar
    79   110   109   ar
    80    52    53    1
    81    38    48   am
    82    38    37    1
    83    53    55   ar
    84    40    37    1
    85    40    41    1
    86   107   104    1
    87   107   108    1
    88    58    57   ar
    89   109   108    1
    90   109   111   ar
    91    37    36    1
    92   103   104    1
    93   104   105    1
    94    55    57   ar
    95    36    30   am
    96    34    32    1
    97    41    43   ar
    98    41    42   ar
    99    43    45   ar
   100    42    44   ar
   101   105   106    2
   102    30    29    1
   103    30    31    2
   104    45    46   ar
   105    32    29    1
   106    32    33    1
   107    29    28    1
   108    44    46   ar
   109    46    47    1
   110    33    35    1
