@<TRIPOS>MOLECULE
tmp/4tkmB00.pdb
 197 190 0 0 0
SMALL
GASTEIGER

@<TRIPOS>ATOM
      1  N         37.9650    8.7630   -0.3070 N.3    14  GLY14      -0.1210
      2  CA        38.4090   10.1430   -0.1640 C.3    14  GLY14       0.1956
      3  C         38.7400   10.4940    1.2780 C.2    14  GLY14       0.2613
      4  O         38.2820   11.5380    1.7770 O.2    14  GLY14      -0.2717
      5  N         39.5470    9.6390    1.9370 N.am   15  SER15      -0.1938
      6  CA        39.7800    9.7540    3.3840 C.3    15  SER15       0.2055
      7  C         41.2080   10.0970    3.8720 C.2    15  SER15       0.2644
      8  O         41.4450   10.1210    5.0850 O.2    15  SER15      -0.2714
      9  CB        39.3040    8.4810    4.0670 C.3    15  SER15       0.2130
     10  OG        39.6910    7.3570    3.3160 O.3    15  SER15      -0.2179
     11  N         42.1470   10.3910    2.9720 N.am   16  THR16      -0.1936
     12  CA        43.4980   10.7880    3.4320 C.3    16  THR16       0.2028
     13  C         43.5630   12.2280    3.9490 C.2    16  THR16       0.2642
     14  O         44.4790   12.5720    4.6850 O.2    16  THR16      -0.2714
     15  CB        44.6090   10.5480    2.3900 C.3    16  THR16       0.1808
     16  OG1       44.3420   11.2970    1.2010 O.3    16  THR16      -0.2208
     17  CG2       44.7120    9.0630    2.0610 C.3    16  THR16       0.0379
     18  N         42.5900   13.0600    3.6030 N.am   17  GLU17      -0.1963
     19  CA        42.4880   14.3540    4.2560 C.3    17  GLU17       0.1733
     20  C         41.0450   14.8340    4.3720 C.2    17  GLU17       0.2617
     21  O         40.1020   14.0720    4.1210 O.2    17  GLU17      -0.2715
     22  CB        43.3830   15.3780    3.5570 C.3    17  GLU17       0.0429
     23  CG        42.9290   15.7840    2.1700 C.3    17  GLU17       0.1163
     24  CD        44.0910   15.8900    1.1960 C.2    17  GLU17       0.3649
     25  OE1       44.8590   14.9020    1.0840 O.co2  17  GLU17      -0.2457
     26  OE2       44.2270   16.9550    0.5490 O.co2  17  GLU17      -0.2457
     27  N         40.9000   16.0840    4.8130 N.am   18  GLY18      -0.1940
     28  CA        39.6170   16.7470    4.9510 C.3    18  GLY18       0.2014
     29  C         38.6550   15.9620    5.8090 C.2    18  GLY18       0.2638
     30  O         39.0680   15.1880    6.6940 O.2    18  GLY18      -0.2714
     31  N         37.3690   16.1590    5.5070 N.am   19  ILE19      -0.1977
     32  CA        36.2620   15.5240    6.2100 C.3    19  ILE19       0.1596
     33  C         36.4830   14.0110    6.3510 C.2    19  ILE19       0.2287
     34  O         36.1320   13.4110    7.3800 O.2    19  ILE19      -0.2864
     35  CB        34.9160   15.7940    5.4890 C.3    19  ILE19       0.0276
     36  CG1       34.5400   17.2830    5.5520 C.3    19  ILE19       0.0022
     37  CG2       33.7960   14.9770    6.1150 C.3    19  ILE19       0.0022
     38  CD1       33.4030   17.6630    4.6200 C.3    19  ILE19       0.0001
     39  N         41.7770    5.9650    2.0100 N.3    37  ASN37      -0.1225
     40  CA        41.6620    5.8590    0.5510 C.3    37  ASN37       0.1785
     41  C         41.9290    7.1740   -0.1620 C.2    37  ASN37       0.2598
     42  O         41.5090    8.2500    0.2960 O.2    37  ASN37      -0.2718
     43  CB        40.2490    5.3690    0.1590 C.3    37  ASN37       0.1169
     44  CG        40.0170    5.3480   -1.3520 C.2    37  ASN37       0.2627
     45  OD1       39.3390    6.2260   -1.9080 O.2    37  ASN37      -0.2716
     46  ND2       40.5930    4.3580   -2.0220 N.am   37  ASN37      -0.0877
     47  N         42.6250    7.0630   -1.2920 N.am   38  SER38      -0.1938
     48  CA        42.8060    8.1670   -2.2170 C.3    38  SER38       0.2055
     49  C         43.3360    7.6260   -3.5520 C.2    38  SER38       0.2643
     50  O         43.8910    6.5130   -3.6180 O.2    38  SER38      -0.2714
     51  CB        43.7650    9.2010   -1.6390 C.3    38  SER38       0.2130
     52  OG        43.8260   10.3600   -2.4450 O.3    38  SER38      -0.2179
     53  N         43.1170    8.3940   -4.6170 N.am   39  HIS39      -0.1959
     54  CA        43.7710    8.1440   -5.9070 C.3    39  HIS39       0.1787
     55  C         45.3130    8.2650   -5.8120 C.2    39  HIS39       0.2620
     56  O         46.0340    7.4150   -6.3310 O.2    39  HIS39      -0.2715
     57  CB        43.1760    9.0330   -7.0160 C.3    39  HIS39       0.0785
     58  CG        43.4000   10.5040   -6.8320 C.ar   39  HIS39       0.0821
     59  ND1       43.1010   11.1770   -5.6660 N.ar   39  HIS39      -0.2267
     60  CD2       43.8580   11.4430   -7.6960 C.ar   39  HIS39       0.1154
     61  CE1       43.3820   12.4610   -5.8120 C.ar   39  HIS39       0.1986
     62  NE2       43.8400   12.6500   -7.0370 N.ar   39  HIS39      -0.2212
     63  N         45.7940    9.2940   -5.1070 N.am   40  VAL40      -0.1977
     64  CA        47.2310    9.5470   -4.9160 C.3    40  VAL40       0.1596
     65  C         47.7280    8.9950   -3.5530 C.2    40  VAL40       0.2287
     66  O         47.0140    9.0980   -2.5440 O.2    40  VAL40      -0.2864
     67  CB        47.5290   11.0740   -5.0630 C.3    40  VAL40       0.0276
     68  CG1       47.0110   11.8810   -3.8650 C.3    40  VAL40       0.0022
     69  CG2       49.0170   11.3260   -5.3000 C.3    40  VAL40       0.0022
     70  N         43.5510    3.8610   -4.8480 N.3    64  ALA64      -0.1231
     71  CA        42.5660    3.4660   -5.8580 C.3    64  ALA64       0.1694
     72  C         41.9250    4.7320   -6.4380 C.2    64  ALA64       0.2592
     73  O         41.7500    5.7230   -5.7250 O.2    64  ALA64      -0.2718
     74  CB        41.5090    2.5380   -5.2600 C.3    64  ALA64       0.0304
     75  N         41.6210    4.7050   -7.7340 N.am   65  ASP65      -0.1960
     76  CA        40.9160    5.8110   -8.3790 C.3    65  ASP65       0.1840
     77  C         39.4570    5.3960   -8.6290 C.2    65  ASP65       0.2622
     78  O         39.1530    4.5880   -9.5180 O.2    65  ASP65      -0.2715
     79  CB        41.6070    6.2320   -9.6820 C.3    65  ASP65       0.1450
     80  CG        41.0040    7.4930  -10.2780 C.2    65  ASP65       0.3671
     81  OD1       40.1330    8.1350   -9.6260 O.co2  65  ASP65      -0.2456
     82  OD2       41.4050    7.8350  -11.4070 O.co2  65  ASP65      -0.2456
     83  N         38.5600    5.9580   -7.8310 N.am   66  ILE66      -0.1963
     84  CA        37.1540    5.5130   -7.8330 C.3    66  ILE66       0.1727
     85  C         36.2780    6.0680   -8.9620 C.2    66  ILE66       0.2616
     86  O         35.1680    5.5710   -9.1690 O.2    66  ILE66      -0.2715
     87  CB        36.4640    5.8460   -6.5070 C.3    66  ILE66       0.0290
     88  CG1       36.5030    7.3630   -6.3040 C.3    66  ILE66       0.0022
     89  CG2       37.0690    5.0140   -5.3830 C.3    66  ILE66       0.0023
     90  CD1       36.4940    7.7550   -4.8690 C.3    66  ILE66       0.0001
     91  N         36.7760    7.0770   -9.6770 N.am   67  THR67      -0.1951
     92  CA        36.1640    7.5120  -10.9330 C.3    67  THR67       0.1897
     93  C         36.1860    6.3800  -11.9630 C.2    67  THR67       0.2313
     94  O         35.6780    6.5650  -13.0730 O.2    67  THR67      -0.2863
     95  CB        36.8720    8.7120  -11.6060 C.3    67  THR67       0.1794
     96  OG1       38.1170    8.2780  -12.1340 O.3    67  THR67      -0.2208
     97  CG2       37.1090    9.8500  -10.6500 C.3    67  THR67       0.0378
     98  N         32.6490    9.1570    0.6060 N.3    92  ASN92      -0.1225
     99  CA        33.0040   10.5610    0.8190 C.3    92  ASN92       0.1785
    100  C         33.7440   11.2300   -0.3390 C.2    92  ASN92       0.2597
    101  O         33.6590   12.4390   -0.5060 O.2    92  ASN92      -0.2718
    102  CB        33.8150   10.7120    2.0960 C.3    92  ASN92       0.1169
    103  CG        34.4380   12.0840    2.2220 C.2    92  ASN92       0.2627
    104  OD1       35.6450   12.2380    2.0520 O.2    92  ASN92      -0.2716
    105  ND2       33.6160   13.0930    2.4890 N.am   92  ASN92      -0.0877
    106  N         34.4630   10.4520   -1.1340 N.am   93  ALA93      -0.1966
    107  CA        35.0620   10.9900   -2.3570 C.3    93  ALA93       0.1728
    108  C         34.1050   11.7890   -3.2310 C.2    93  ALA93       0.2617
    109  O         32.9650   11.4000   -3.4040 O.2    93  ALA93      -0.2715
    110  CB        35.6180    9.8720   -3.1760 C.3    93  ALA93       0.0334
    111  N         34.5820   12.8790   -3.8150 N.am   94  GLY94      -0.1940
    112  CA        33.7370   13.7430   -4.6380 C.3    94  GLY94       0.2014
    113  C         34.2620   15.1550   -4.6170 C.2    94  GLY94       0.2639
    114  O         35.1100   15.4900   -3.8130 O.2    94  GLY94      -0.2714
    115  N         33.7680   15.9910   -5.5100 N.am   95  GLY95      -0.1954
    116  CA        34.1850   17.3830   -5.5380 C.3    95  GLY95       0.1869
    117  C         33.8100   18.0430   -6.8450 C.2    95  GLY95       0.2309
    118  O         33.2860   17.3810   -7.7360 O.2    95  GLY95      -0.2863
    119  N         33.2930   11.2690  -11.0220 N.3   116  LEU116     -0.1245
    120  CA        33.7740   11.5470   -9.6840 C.3   116  LEU116      0.1561
    121  C         32.6570   11.4810   -8.6300 C.2   116  LEU116      0.2260
    122  O         32.8480   10.8670   -7.5960 O.2   116  LEU116     -0.2867
    123  CB        34.4700   12.9160   -9.6700 C.3   116  LEU116      0.0270
    124  CG        34.9640   13.4630   -8.3230 C.3   116  LEU116      0.0019
    125  CD1       35.8410   12.4560   -7.5780 C.3   116  LEU116      0.0001
    126  CD2       35.6820   14.7960   -8.5360 C.3   116  LEU116      0.0001
    127  N         28.4800   11.5200    1.2400 N.3   148  THR148     -0.1203
    128  CA        28.6520   12.9280    1.5230 C.3   148  THR148      0.1994
    129  C         27.9440   13.6960    0.4610 C.2   148  THR148      0.2618
    130  O         28.3460   13.6700   -0.6880 O.2   148  THR148     -0.2717
    131  CB        30.1420   13.3050    1.5380 C.3   148  THR148      0.1784
    132  OG1       30.8100   12.4600    2.4810 O.3   148  THR148     -0.2211
    133  CG2       30.3360   14.7890    1.9310 C.3   148  THR148      0.0376
    134  N         26.8740   14.3760    0.8480 N.am  149  GLY149     -0.1942
    135  CA        26.0360   15.0710   -0.1040 C.3   149  GLY149      0.2014
    136  C         26.5090   16.4860   -0.2760 C.2   149  GLY149      0.2640
    137  O         27.7040   16.7250   -0.3390 O.2   149  GLY149     -0.2714
    138  N         25.5630   17.4200   -0.3660 N.am  150  SER150     -0.1935
    139  CA        25.8900   18.8240   -0.4180 C.3   150  SER150      0.2055
    140  C         24.6530   19.7290   -0.3650 C.2   150  SER150      0.2642
    141  O         23.5680   19.3730   -0.8140 O.2   150  SER150     -0.2714
    142  CB        26.6680   19.1480   -1.6870 C.3   150  SER150      0.2130
    143  OG        26.6450   20.5590   -1.9130 O.3   150  SER150     -0.2179
    144  N         24.8430   20.9300    0.1570 N.am  151  ILE151     -0.1977
    145  CA        23.8210   21.9540    0.0470 C.3   151  ILE151      0.1596
    146  C         23.3820   22.0720   -1.4000 C.2   151  ILE151      0.2287
    147  O         22.2090   22.2850   -1.6610 O.2   151  ILE151     -0.2864
    148  CB        24.3060   23.3270    0.5680 C.3   151  ILE151      0.0276
    149  CG1       23.2510   24.3960    0.3200 C.3   151  ILE151      0.0022
    150  CG2       25.6220   23.7260   -0.0830 C.3   151  ILE151      0.0022
    151  CD1       23.5290   25.7220    1.0030 C.3   151  ILE151      0.0001
    152  N         28.0180   19.6040  -10.7830 N.3   164  TYR164     -0.1241
    153  CA        28.3550   19.1130   -9.4520 C.3   164  TYR164      0.1605
    154  C         27.0820   19.1410   -8.6170 C.2   164  TYR164      0.2264
    155  O         26.7430   18.1780   -7.9450 O.2   164  TYR164     -0.2867
    156  CB        29.4730   19.9710   -8.8140 C.3   164  TYR164      0.0534
    157  CG        29.6640   19.7150   -7.3270 C.ar  164  TYR164     -0.0201
    158  CD1       30.3610   18.5890   -6.8750 C.ar  164  TYR164     -0.0009
    159  CD2       29.1150   20.5820   -6.3800 C.ar  164  TYR164     -0.0009
    160  CE1       30.5100   18.3460   -5.5200 C.ar  164  TYR164      0.0417
    161  CE2       29.2560   20.3440   -5.0280 C.ar  164  TYR164      0.0417
    162  CZ        29.9480   19.2280   -4.6040 C.ar  164  TYR164      0.1957
    163  OH        30.0840   19.0220   -3.2590 O.3   164  TYR164     -0.2866
    164  N         24.9440   15.9500   -6.9730 N.3   168  LYS168     -0.1245
    165  CA        24.6590   15.7470   -5.5650 C.3   168  LYS168      0.1561
    166  C         23.1800   15.4850   -5.3480 C.2   168  LYS168      0.2260
    167  O         22.8280   14.6060   -4.5640 O.2   168  LYS168     -0.2867
    168  CB        25.1900   16.9220   -4.7280 C.3   168  LYS168      0.0271
    169  CG        26.7140   17.0260   -4.7690 C.3   168  LYS168      0.0035
    170  CD        27.3410   15.9940   -3.8380 C.3   168  LYS168      0.0206
    171  CE        28.6620   15.4270   -4.3490 C.3   168  LYS168      0.1093
    172  NZ        29.3740   14.6170   -3.3030 N.3   168  LYS168     -0.1314
    173  N         27.3170   18.5980    3.7930 N.3   194  PRO194     -0.2102
    174  CA        28.0400   19.8340    4.1300 C.3   194  PRO194      0.1504
    175  C         27.4290   21.0050    3.4160 C.2   194  PRO194      0.2576
    176  O         26.9560   20.8230    2.2920 O.2   194  PRO194     -0.2718
    177  CB        29.4390   19.6010    3.5510 C.3   194  PRO194      0.0282
    178  CG        29.5660   18.1140    3.4230 C.3   194  PRO194      0.0208
    179  CD        28.1860   17.5870    3.1700 C.3   194  PRO194      0.0893
    180  N         27.4180   22.1830    4.0440 N.am  195  GLY195     -0.1943
    181  CA        27.1920   23.4510    3.3140 C.3   195  GLY195      0.2014
    182  C         28.4860   23.7850    2.6080 C.2   195  GLY195      0.2639
    183  O         29.3230   22.9000    2.4270 O.2   195  GLY195     -0.2714
    184  N         28.7020   25.0490    2.2510 N.am  196  THR196     -0.1950
    185  CA        29.9310   25.4170    1.5060 C.3   196  THR196      0.1897
    186  C         31.2460   25.2900    2.3120 C.2   196  THR196      0.2313
    187  O         31.2590   25.2910    3.5490 O.2   196  THR196     -0.2863
    188  CB        29.8470   26.8460    0.9520 C.3   196  THR196      0.1794
    189  OG1       29.8140   27.7610    2.0550 O.3   196  THR196     -0.2208
    190  CG2       28.6080   27.0240    0.0210 C.3   196  THR196      0.0378
    191  N         36.0400   20.5690    9.5100 N.3   208  VAL208     -0.1245
    192  CA        35.9710   19.1130    9.4830 C.3   208  VAL208      0.1561
    193  C         35.5890   18.5340   10.8590 C.2   208  VAL208      0.2260
    194  O         34.9050   17.5070   10.9380 O.2   208  VAL208     -0.2867
    195  CB        37.2800   18.4600    8.9490 C.3   208  VAL208      0.0252
    196  CG1       37.7280   19.1200    7.6500 C.3   208  VAL208      0.0019
    197  CG2       38.3680   18.4970   10.0050 C.3   208  VAL208      0.0019
@<TRIPOS>BOND
     1    94    93    2
     2    96    95    1
     3    93    92    1
     4    95    92    1
     5    95    97    1
     6    82    80   ar
     7   119   120    1
     8    92    91    1
     9   152   153    1
    10    80    79    1
    11    80    81   ar
    12   120   123    1
    13   120   121    1
    14    79    76    1
    15    91    85   am
    16   123   124    1
    17    78    77    2
    18   153   156    1
    19   153   154    1
    20    86    85    2
    21    85    84    1
    22   156   157    1
    23   121   122    2
    24    77    76    1
    25    77    83   am
    26   154   155    2
    27   126   124    1
    28    76    75    1
    29   124   125    1
    30    84    83    1
    31    84    87    1
    32   118   117    2
    33    75    72   am
    34    60    62   ar
    35    60    58   ar
    36   157   158   ar
    37   157   159   ar
    38    62    61   ar
    39    57    58    1
    40    57    54    1
    41   164   165    1
    42   158   160   ar
    43   117   116    1
    44    58    59   ar
    45    87    88    1
    46    87    89    1
    47    72    71    1
    48    72    73    2
    49   159   161   ar
    50    56    55    2
    51    88    90    1
    52    54    55    1
    53    54    53    1
    54    71    74    1
    55    71    70    1
    56    61    59   ar
    57    55    63   am
    58   165   166    1
    59   165   168    1
    60   116   115    1
    61   160   162   ar
    62   115   113   am
    63   166   167    2
    64    69    67    1
    65    63    64    1
    66    67    64    1
    67    67    68    1
    68   161   162   ar
    69    64    65    1
    70   169   168    1
    71   169   170    1
    72   112   113    1
    73   112   111    1
    74   113   114    2
    75    53    49   am
    76   162   163    1
    77   171   170    1
    78   171   172    1
    79   111   108   am
    80    50    49    2
    81    65    66    2
    82    49    48    1
    83   109   108    2
    84   108   107    1
    85   110   107    1
    86    52    51    1
    87   107   106    1
    88    48    51    1
    89    48    47    1
    90    46    44   am
    91   143   142    1
    92    45    44    2
    93   142   139    1
    94   147   146    2
    95   146   145    1
    96    44    43    1
    97    47    41   am
    98   106   100   am
    99   141   140    2
   100   130   129    2
   101   101   100    2
   102   139   138    1
   103   139   140    1
   104   138   136   am
   105   140   144   am
   106   137   136    2
   107   100    99    1
   108     1     2    1
   109   136   135    1
   110     2     3    1
   111    41    42    2
   112    41    40    1
   113   135   134    1
   114   150   148    1
   115   190   188    1
   116   145   144    1
   117   145   148    1
   118    43    40    1
   119   149   148    1
   120   149   151    1
   121   129   134   am
   122   129   128    1
   123    26    24   ar
   124    40    39    1
   125    98    99    1
   126    99   102    1
   127   188   185    1
   128   188   189    1
   129    25    24   ar
   130    24    23    1
   131    16    15    1
   132   127   128    1
   133     3     4    2
   134     3     5   am
   135   185   184    1
   136   185   186    1
   137   128   131    1
   138   131   133    1
   139   131   132    1
   140     5     6    1
   141   104   103    2
   142    17    15    1
   143   102   103    1
   144    23    22    1
   145   103   105   am
   146   184   182   am
   147   176   175    2
   148   186   187    2
   149    15    12    1
   150   183   182    2
   151   182   181    1
   152    11    12    1
   153    11     7   am
   154   179   178    1
   155   179   173    1
   156   181   180    1
   157    10     9    1
   158     6     7    1
   159     6     9    1
   160   175   180   am
   161   175   174    1
   162   178   177    1
   163    12    13    1
   164   177   174    1
   165    22    19    1
   166    18    13   am
   167    18    19    1
   168   173   174    1
   169     7     8    2
   170    13    14    2
   171    21    20    2
   172    19    20    1
   173    20    27   am
   174    38    36    1
   175    27    28    1
   176    28    29    1
   177    35    36    1
   178    35    37    1
   179    35    32    1
   180    31    29   am
   181    31    32    1
   182    29    30    2
   183    32    33    1
   184    33    34    2
   185   196   195    1
   186   195   192    1
   187   195   197    1
   188   192   191    1
   189   192   193    1
   190   193   194    2
