@<TRIPOS>MOLECULE
tmp/4tknC00.pdb
 161 155 0 0 0
SMALL
GASTEIGER

@<TRIPOS>ATOM
      1  N         -0.8330   -1.1900   38.8990 N.3   198  VAL198     -0.1231
      2  CA        -1.9910   -2.0670   38.9740 C.3   198  VAL198      0.1692
      3  C         -3.2870   -1.3080   39.2550 C.2   198  VAL198      0.2593
      4  O         -4.3340   -1.6070   38.6810 O.2   198  VAL198     -0.2718
      5  CB        -1.7740   -3.1780   40.0090 C.3   198  VAL198      0.0266
      6  CG1       -3.0720   -3.8620   40.3240 C.3   198  VAL198      0.0020
      7  CG2       -0.7640   -4.1820   39.4880 C.3   198  VAL198      0.0020
      8  N         -3.2050   -0.3080   40.1200 N.am  199  THR199     -0.1939
      9  CA        -4.3750    0.4800   40.4870 C.3   199  THR199      0.2028
     10  C         -4.9200    1.3320   39.3430 C.2   199  THR199      0.2642
     11  O         -6.0160    1.8850   39.4470 O.2   199  THR199     -0.2714
     12  CB        -4.1170    1.3730   41.7020 C.3   199  THR199      0.1808
     13  OG1       -3.0350    2.2670   41.4110 O.3   199  THR199     -0.2208
     14  CG2       -3.7620    0.5220   42.9060 C.3   199  THR199      0.0379
     15  N         -4.1510    1.4580   38.2650 N.am  200  ARG200     -0.1963
     16  CA        -4.6420    2.1760   37.0960 C.3   200  ARG200      0.1729
     17  C         -5.1210    1.2370   35.9790 C.2   200  ARG200      0.2616
     18  O         -5.4120    1.6790   34.8690 O.2   200  ARG200     -0.2715
     19  CB        -3.5820    3.1510   36.5770 C.3   200  ARG200      0.0348
     20  CG        -3.2800    4.2850   37.5480 C.3   200  ARG200      0.0492
     21  CD        -2.2050    5.2300   37.0230 C.3   200  ARG200      0.2205
     22  NE        -1.7590    6.1650   38.0570 N.pl3 200  ARG200     -0.0865
     23  CZ        -2.2740    7.3760   38.2500 C.cat 200  ARG200      0.5346
     24  NH1       -3.2540    7.8170   37.4730 N.pl3 200  ARG200      0.1354
     25  NH2       -1.8050    8.1500   39.2200 N.pl3 200  ARG200      0.1354
     26  N         -5.1920   -0.0570   36.2860 N.am  201  MET201     -0.1963
     27  CA        -5.7300   -1.0690   35.3730 C.3   201  MET201      0.1736
     28  C         -7.1780   -1.3840   35.7250 C.2   201  MET201      0.2616
     29  O         -7.4470   -1.8750   36.8180 O.2   201  MET201     -0.2715
     30  CB        -4.9230   -2.3630   35.4510 C.3   201  MET201      0.0427
     31  CG        -3.4660   -2.2550   35.0560 C.3   201  MET201      0.0599
     32  SD        -2.6350   -3.8420   35.2860 S.3   201  MET201     -0.1393
     33  CE        -0.9700   -3.4360   34.7850 C.3   201  MET201      0.0692
     34  N         -8.1090   -1.0830   34.8260 N.am  202  ARG202     -0.1963
     35  CA        -9.5200   -1.3250   35.0840 C.3   202  ARG202      0.1729
     36  C         -9.8500   -2.8160   35.0770 C.2   202  ARG202      0.2616
     37  O        -10.6230   -3.2960   35.9070 O.2   202  ARG202     -0.2715
     38  CB       -10.3820   -0.5840   34.0480 C.3   202  ARG202      0.0348
     39  CG       -11.8740   -0.4590   34.3240 C.3   202  ARG202      0.0492
     40  CD       -12.5030    0.4760   33.2850 C.3   202  ARG202      0.2205
     41  NE       -13.9450    0.2900   33.1250 N.pl3 202  ARG202     -0.0865
     42  CZ       -14.4960   -0.5950   32.2960 C.cat 202  ARG202      0.5346
     43  NH1      -13.7250   -1.3560   31.5280 N.pl3 202  ARG202      0.1354
     44  NH2      -15.8160   -0.7000   32.2080 N.pl3 202  ARG202      0.1354
     45  N         -9.2510   -3.5460   34.1410 N.am  203  CYS203     -0.1954
     46  CA        -9.3890   -4.9970   34.0850 C.3   203  CYS203      0.1843
     47  C         -8.2830   -5.6220   33.2340 C.2   203  CYS203      0.2625
     48  O         -7.5340   -4.9040   32.5700 O.2   203  CYS203     -0.2714
     49  CB       -10.7570   -5.3580   33.5140 C.3   203  CYS203      0.0997
     50  SG       -10.9070   -4.9900   31.7590 S.3   203  CYS203     -0.0797
     51  N         -8.2050   -6.9500   33.2000 N.am  204  TRP204     -0.1960
     52  CA        -7.3440   -7.5830   32.2090 C.3   204  TRP204      0.1771
     53  C         -7.9910   -8.8670   31.6830 C.2   204  TRP204      0.2619
     54  O         -8.9070   -9.4140   32.3020 O.2   204  TRP204     -0.2715
     55  CB        -5.9500   -7.8430   32.7850 C.3   204  TRP204      0.0590
     56  CG        -5.9700   -8.6040   34.0660 C.ar  204  TRP204      0.0006
     57  CD1       -5.9270   -9.9560   34.2230 C.ar  204  TRP204      0.0946
     58  CD2       -6.1470   -8.0540   35.3740 C.ar  204  TRP204      0.0152
     59  NE1       -6.0010  -10.2780   35.5550 N.ar  204  TRP204     -0.2442
     60  CE2       -6.1490   -9.1260   36.2810 C.ar  204  TRP204      0.0810
     61  CE3       -6.2810   -6.7530   35.8670 C.ar  204  TRP204      0.0012
     62  CZ2       -6.2770   -8.9410   37.6550 C.ar  204  TRP204      0.0191
     63  CZ3       -6.4120   -6.5710   37.2280 C.ar  204  TRP204      0.0001
     64  CH2       -6.4110   -7.6580   38.1070 C.ar  204  TRP204      0.0015
     65  N         -7.5030   -9.3280   30.5350 N.am  205  ARG205     -0.1977
     66  CA        -8.0960  -10.4590   29.8250 C.3   205  ARG205      0.1597
     67  C         -6.9960  -11.3090   29.1740 C.2   205  ARG205      0.2287
     68  O         -6.0160  -10.7470   28.6790 O.2   205  ARG205     -0.2864
     69  CB        -9.0820   -9.9470   28.7700 C.3   205  ARG205      0.0334
     70  CG        -9.5710  -11.0660   27.8620 C.3   205  ARG205      0.0492
     71  CD       -10.5040  -10.6280   26.7470 C.3   205  ARG205      0.2205
     72  NE       -10.2280   -9.2980   26.2300 N.pl3 205  ARG205     -0.0865
     73  CZ       -10.5450   -8.9190   24.9980 C.cat 205  ARG205      0.5346
     74  NH1      -11.1390   -9.7760   24.1780 N.pl3 205  ARG205      0.1354
     75  NH2      -10.2740   -7.6890   24.5850 N.pl3 205  ARG205      0.1354
     76  N         -5.6230    3.1280   32.6870 N.3   222  LEU222     -0.1245
     77  CA        -5.9510    4.5320   32.8890 C.3   222  LEU222      0.1561
     78  C         -4.7060    5.3770   32.6460 C.2   222  LEU222      0.2260
     79  O         -3.8920    5.5720   33.5460 O.2   222  LEU222     -0.2867
     80  CB        -6.4820    4.7540   34.3060 C.3   222  LEU222      0.0270
     81  CG        -7.0510    6.1380   34.6130 C.3   222  LEU222      0.0019
     82  CD1       -8.2810    6.3980   33.7630 C.3   222  LEU222      0.0001
     83  CD2       -7.3720    6.2770   36.0920 C.3   222  LEU222      0.0001
     84  N         -6.4840   11.0720   33.5650 N.3   225  LYS225     -0.1245
     85  CA        -7.8490   11.1930   34.0610 C.3   225  LYS225      0.1561
     86  C         -8.8270   11.0250   32.9020 C.2   225  LYS225      0.2260
     87  O         -8.6810   11.6740   31.8650 O.2   225  LYS225     -0.2867
     88  CB        -8.0850   12.5220   34.7750 C.3   225  LYS225      0.0271
     89  CG        -8.2060   12.3550   36.2840 C.3   225  LYS225      0.0035
     90  CD        -8.9590   11.0700   36.6130 C.3   225  LYS225      0.0206
     91  CE        -9.0470   10.8190   38.1060 C.3   225  LYS225      0.1093
     92  NZ        -9.8690    9.6110   38.4050 N.3   225  LYS225     -0.1314
     93  N         -8.8650    5.9620   29.0360 N.3   228  LEU228     -0.1245
     94  CA        -8.5300    4.5300   29.0560 C.3   228  LEU228      0.1561
     95  C         -7.9820    3.9830   27.7290 C.2   228  LEU228      0.2260
     96  O         -8.4940    4.3160   26.6630 O.2   228  LEU228     -0.2867
     97  CB        -9.7920    3.7400   29.4070 C.3   228  LEU228      0.0270
     98  CG       -10.3210    3.8620   30.8420 C.3   228  LEU228      0.0019
     99  CD1      -11.7710    3.3950   30.9230 C.3   228  LEU228      0.0001
    100  CD2       -9.4610    3.0890   31.8220 C.3   228  LEU228      0.0001
    101  N         -6.3480    0.2430   25.8930 N.3   230  TRP230     -0.1241
    102  CA        -5.9450   -1.1560   26.0510 C.3   230  TRP230      0.1605
    103  C         -4.4850   -1.3500   25.6560 C.2   230  TRP230      0.2264
    104  O         -4.0480   -0.8880   24.6020 O.2   230  TRP230     -0.2867
    105  CB        -6.8320   -2.0900   25.2170 C.3   230  TRP230      0.0550
    106  CG        -8.2220   -2.2910   25.7340 C.ar  230  TRP230      0.0003
    107  CD1       -9.3380   -1.5940   25.3830 C.ar  230  TRP230      0.0946
    108  CD2       -8.6510   -3.2920   26.6660 C.ar  230  TRP230      0.0152
    109  NE1      -10.4320   -2.0800   26.0590 N.ar  230  TRP230     -0.2442
    110  CE2      -10.0360   -3.1250   26.8510 C.ar  230  TRP230      0.0810
    111  CE3       -7.9940   -4.3050   27.3720 C.ar  230  TRP230      0.0012
    112  CZ2      -10.7770   -3.9320   27.7100 C.ar  230  TRP230      0.0191
    113  CZ3       -8.7310   -5.1050   28.2240 C.ar  230  TRP230      0.0001
    114  CH2      -10.1080   -4.9130   28.3850 C.ar  230  TRP230      0.0015
    115  N         -1.1850  -12.6880   34.0550 N.3   242  SER242     -0.1217
    116  CA        -2.5090  -12.4170   34.5920 C.3   242  SER242      0.1889
    117  C         -2.5940  -12.8800   36.0450 C.2   242  SER242      0.2288
    118  O         -3.1190  -12.1710   36.9130 O.2   242  SER242     -0.2866
    119  CB        -3.5570  -13.1490   33.7670 C.3   242  SER242      0.2089
    120  OG        -4.8300  -12.9970   34.3590 O.3   242  SER242     -0.2183
    121  N         -3.3910  -10.6350   39.3870 N.3   246  GLN246     -0.1245
    122  CA        -4.4080  -11.0140   40.3550 C.3   246  GLN246      0.1566
    123  C         -3.7820  -11.1190   41.7420 C.2   246  GLN246      0.2260
    124  O         -4.3640  -10.6710   42.7200 O.2   246  GLN246     -0.2867
    125  CB        -5.0670  -12.3400   39.9940 C.3   246  GLN246      0.0367
    126  CG        -6.2690  -12.6590   40.8690 C.3   246  GLN246      0.0905
    127  CD        -7.4170  -11.6950   40.6410 C.2   246  GLN246      0.2608
    128  OE1       -7.9590  -11.6120   39.5400 O.2   246  GLN246     -0.2717
    129  NE2       -7.7930  -10.9600   41.6830 N.am  246  GLN246     -0.0878
    130  N         -3.0170   -7.7700   43.2370 N.3   249  VAL249     -0.1245
    131  CA        -4.2630   -7.1430   43.6430 C.3   249  VAL249      0.1561
    132  C         -4.7410   -7.7480   44.9530 C.2   249  VAL249      0.2260
    133  O         -5.1280   -7.0340   45.8740 O.2   249  VAL249     -0.2867
    134  CB        -5.3480   -7.3230   42.5580 C.3   249  VAL249      0.0252
    135  CG1       -6.7370   -7.0450   43.1200 C.3   249  VAL249      0.0019
    136  CG2       -5.0640   -6.4530   41.3640 C.3   249  VAL249      0.0019
    137  N         -2.7350   -6.5680   47.8880 N.3   252  LEU252     -0.1231
    138  CA        -3.1870   -5.2210   48.2100 C.3   252  LEU252      0.1693
    139  C         -4.4990   -5.2520   48.9850 C.2   252  LEU252      0.2591
    140  O         -4.6810   -4.4820   49.9250 O.2   252  LEU252     -0.2718
    141  CB        -3.3330   -4.3810   46.9510 C.3   252  LEU252      0.0284
    142  CG        -1.9550   -4.0610   46.3700 C.3   252  LEU252      0.0019
    143  CD1       -2.0490   -3.3590   45.0270 C.3   252  LEU252      0.0001
    144  CD2       -1.1840   -3.2140   47.3640 C.3   252  LEU252      0.0001
    145  N         -5.4080   -6.1400   48.5950 N.am  253  MET253     -0.1979
    146  CA        -6.7010   -6.2420   49.2630 C.3   253  MET253      0.1605
    147  C         -6.5040   -6.7040   50.6920 C.2   253  MET253      0.2287
    148  O         -7.1200   -6.1670   51.6140 O.2   253  MET253     -0.2864
    149  CB        -7.6200   -7.2440   48.5500 C.3   253  MET253      0.0413
    150  CG        -8.0050   -6.9190   47.1220 C.3   253  MET253      0.0598
    151  SD        -8.5670   -5.2260   46.9320 S.3   253  MET253     -0.1393
    152  CE       -10.1020   -5.2950   47.8460 C.3   253  MET253      0.0692
    153  N         -4.8220   -3.5640   52.6490 N.3   256  LYS256     -0.1245
    154  CA        -5.6930   -2.4080   52.8460 C.3   256  LYS256      0.1561
    155  C         -6.7120   -2.6120   53.9610 C.2   256  LYS256      0.2260
    156  O         -7.0220   -1.6870   54.7110 O.2   256  LYS256     -0.2867
    157  CB        -6.4100   -2.0790   51.5330 C.3   256  LYS256      0.0271
    158  CG        -6.6210   -0.5820   51.3180 C.3   256  LYS256      0.0035
    159  CD        -7.4870   -0.2810   50.1010 C.3   256  LYS256      0.0206
    160  CE        -8.9040   -0.8070   50.2440 C.3   256  LYS256      0.1093
    161  NZ        -9.7990   -0.2510   49.1860 N.3   256  LYS256     -0.1314
@<TRIPOS>BOND
     1    74    73    1
     2    75    73    1
     3   104   103    2
     4    73    72    2
     5   105   106    1
     6   105   102    1
     7   107   106   ar
     8   107   109   ar
     9   103   102    1
    10   106   108   ar
    11   101   102    1
    12   109   110   ar
    13    72    71    1
    14    96    95    2
    15   108   110   ar
    16   108   111   ar
    17    71    70    1
    18   110   112   ar
    19   111   113   ar
    20   112   114   ar
    21    95    94    1
    22    70    69    1
    23   113   114   ar
    24    68    67    2
    25    69    66    1
    26    93    94    1
    27    94    97    1
    28    67    66    1
    29    97    98    1
    30    66    65    1
    31    65    53   am
    32    98    99    1
    33    98   100    1
    34    43    42    1
    35    53    52    1
    36    53    54    2
    37    50    49    1
    38    87    86    2
    39    44    42    1
    40    52    55    1
    41    52    51    1
    42    42    41    2
    43    48    47    2
    44    78    77    1
    45    78    79    2
    46    76    77    1
    47    55    56    1
    48    77    80    1
    49    86    85    1
    50    41    40    1
    51    51    47   am
    52    47    46    1
    53    40    39    1
    54    49    46    1
    55    84    85    1
    56    82    81    1
    57   119   120    1
    58   119   116    1
    59    38    39    1
    60    38    35    1
    61   115   116    1
    62    85    88    1
    63    56    57   ar
    64    56    58   ar
    65    46    45    1
    66    45    36   am
    67    57    59   ar
    68    80    81    1
    69   116   117    1
    70    81    83    1
    71    88    89    1
    72    33    32    1
    73    34    35    1
    74    34    28   am
    75    18    17    2
    76    31    32    1
    77    31    30    1
    78    36    35    1
    79    36    37    2
    80    27    30    1
    81    27    28    1
    82    27    26    1
    83    58    61   ar
    84    58    60   ar
    85    59    60   ar
    86    28    29    2
    87    61    63   ar
    88    17    26   am
    89    17    16    1
    90   117   118    2
    91    60    62   ar
    92    89    90    1
    93    19    16    1
    94    19    20    1
    95    90    91    1
    96    21    20    1
    97    21    22    1
    98    16    15    1
    99    63    64   ar
   100    24    23    1
   101    62    64   ar
   102    22    23    2
   103    91    92    1
   104    23    25    1
   105    15    10   am
   106     4     3    2
   107     1     2    1
   108     2     3    1
   109     2     5    1
   110     3     8   am
   111    10    11    2
   112    10     9    1
   113   121   122    1
   114     7     5    1
   115   128   127    2
   116   125   122    1
   117   125   126    1
   118     5     6    1
   119     8     9    1
   120   122   123    1
   121     9    12    1
   122   127   126    1
   123   127   129   am
   124   136   134    1
   125    13    12    1
   126    12    14    1
   127   123   124    2
   128   134   135    1
   129   134   131    1
   130   130   131    1
   131   131   132    1
   132   132   133    2
   133   143   142    1
   134   142   141    1
   135   142   144    1
   136   151   150    1
   137   151   152    1
   138   141   138    1
   139   150   149    1
   140   137   138    1
   141   138   139    1
   142   149   146    1
   143   145   139   am
   144   145   146    1
   145   139   140    2
   146   161   160    1
   147   146   147    1
   148   159   160    1
   149   159   158    1
   150   147   148    2
   151   158   157    1
   152   157   154    1
   153   153   154    1
   154   154   155    1
   155   155   156    2
