@<TRIPOS>MOLECULE
tmp/4tkrB06.pdb
 87 86 0 0 0
SMALL
GASTEIGER

@<TRIPOS>ATOM
      1  N        -25.4230   29.8010   43.0470 N.3    30  ILE30      -0.1231
      2  CA       -26.5360   29.7150   42.1120 C.3    30  ILE30       0.1692
      3  C        -26.0110   29.1320   40.8070 C.2    30  ILE30       0.2593
      4  O        -25.4960   29.8540   39.9540 O.2    30  ILE30      -0.2718
      5  CB       -27.1720   31.0880   41.8440 C.3    30  ILE30       0.0266
      6  CG1      -27.5980   31.7460   43.1580 C.3    30  ILE30       0.0019
      7  CG2      -28.3630   30.9470   40.9080 C.3    30  ILE30       0.0020
      8  CD1      -28.1560   33.1400   42.9880 C.3    30  ILE30       0.0001
      9  N        -26.1320   27.8170   40.6640 N.am   31  GLY31      -0.1942
     10  CA       -25.5370   27.1210   39.5400 C.3    31  GLY31       0.2014
     11  C        -24.0920   26.7800   39.8490 C.2    31  GLY31       0.2640
     12  O        -23.7240   26.6100   41.0110 O.2    31  GLY31      -0.2714
     13  N        -23.2680   26.6850   38.8120 N.am   32  SER32      -0.1935
     14  CA       -21.8590   26.3540   38.9920 C.3    32  SER32       0.2055
     15  C        -20.9560   27.5370   38.6560 C.2    32  SER32       0.2644
     16  O        -19.7320   27.4450   38.7580 O.2    32  SER32      -0.2714
     17  CB       -21.4820   25.1430   38.1350 C.3    32  SER32       0.2130
     18  OG       -21.7380   25.3930   36.7640 O.3    32  SER32      -0.2179
     19  N        -21.5650   28.6510   38.2640 N.am   33  SER33      -0.1935
     20  CA       -20.8080   29.8150   37.8210 C.3    33  SER33       0.2055
     21  C        -20.9970   31.0230   38.7340 C.2    33  SER33       0.2643
     22  O        -20.3130   32.0350   38.5820 O.2    33  SER33      -0.2714
     23  CB       -21.1790   30.1760   36.3810 C.3    33  SER33       0.2130
     24  OG       -20.8780   29.1070   35.5000 O.3    33  SER33      -0.2179
     25  N        -21.9260   30.9180   39.6780 N.am   34  PHE34      -0.1973
     26  CA       -22.1050   31.9700   40.6740 C.3    34  PHE34       0.1639
     27  C        -21.9750   31.4220   42.0890 C.2    34  PHE34       0.2290
     28  O        -22.5240   30.3680   42.4100 O.2    34  PHE34      -0.2864
     29  CB       -23.4540   32.6770   40.5110 C.3    34  PHE34       0.0560
     30  CG       -23.6640   33.8000   41.4900 C.ar   34  PHE34      -0.0200
     31  CD1      -23.1790   35.0700   41.2210 C.ar   34  PHE34      -0.0042
     32  CD2      -24.3330   33.5840   42.6850 C.ar   34  PHE34      -0.0042
     33  CE1      -23.3610   36.1020   42.1220 C.ar   34  PHE34      -0.0003
     34  CE2      -24.5180   34.6110   43.5900 C.ar   34  PHE34      -0.0003
     35  CZ       -24.0310   35.8730   43.3080 C.ar   34  PHE34      -0.0000
     36  N        -20.8670   25.9230   29.8070 N.3   143  TYR143     -0.1227
     37  CA       -21.8850   26.1150   30.8340 C.3   143  TYR143      0.1736
     38  C        -22.5930   27.4550   30.6560 C.2   143  TYR143      0.2595
     39  O        -23.4110   27.8540   31.4860 O.2   143  TYR143     -0.2718
     40  CB       -21.2610   26.0310   32.2290 C.3   143  TYR143      0.0548
     41  CG       -20.7170   24.6640   32.5780 C.ar  143  TYR143     -0.0200
     42  CD1      -19.4660   24.2570   32.1330 C.ar  143  TYR143     -0.0009
     43  CD2      -21.4520   23.7820   33.3590 C.ar  143  TYR143     -0.0009
     44  CE1      -18.9650   23.0080   32.4500 C.ar  143  TYR143      0.0417
     45  CE2      -20.9590   22.5310   33.6820 C.ar  143  TYR143      0.0417
     46  CZ       -19.7150   22.1490   33.2250 C.ar  143  TYR143      0.1957
     47  OH       -19.2190   20.9050   33.5430 O.3   143  TYR143     -0.2866
     48  N        -22.2760   28.1400   29.5630 N.am  144  ALA144     -0.1966
     49  CA       -22.8080   29.4720   29.3040 C.3   144  ALA144      0.1728
     50  C        -24.2860   29.4440   28.9300 C.2   144  ALA144      0.2616
     51  O        -24.8350   28.3900   28.6090 O.2   144  ALA144     -0.2715
     52  CB       -22.0010   30.1520   28.2080 C.3   144  ALA144      0.0334
     53  N        -24.9230   30.6110   28.9770 N.am  145  PHE145     -0.1974
     54  CA       -26.2900   30.7570   28.4950 C.3   145  PHE145      0.1639
     55  C        -26.3140   30.5300   26.9890 C.2   145  PHE145      0.2290
     56  O        -25.2690   30.5410   26.3380 O.2   145  PHE145     -0.2864
     57  CB       -26.8280   32.1570   28.8000 C.3   145  PHE145      0.0560
     58  CG       -26.8250   32.5120   30.2610 C.ar  145  PHE145     -0.0200
     59  CD1      -27.8550   32.1010   31.0890 C.ar  145  PHE145     -0.0042
     60  CD2      -25.8020   33.2740   30.8000 C.ar  145  PHE145     -0.0042
     61  CE1      -27.8580   32.4320   32.4330 C.ar  145  PHE145     -0.0003
     62  CE2      -25.8000   33.6090   32.1420 C.ar  145  PHE145     -0.0003
     63  CZ       -26.8290   33.1870   32.9590 C.ar  145  PHE145     -0.0000
     64  N        -19.7180   35.2360   29.0550 N.3   153  PHE153     -0.1241
     65  CA       -20.2310   34.4910   30.1990 C.3   153  PHE153      0.1605
     66  C        -19.2730   34.5310   31.3840 C.2   153  PHE153      0.2264
     67  O        -19.7010   34.5270   32.5350 O.2   153  PHE153     -0.2867
     68  CB       -20.5130   33.0420   29.8000 C.3   153  PHE153      0.0534
     69  CG       -21.1010   32.2090   30.9050 C.ar  153  PHE153     -0.0203
     70  CD1      -22.4130   32.3940   31.3070 C.ar  153  PHE153     -0.0042
     71  CD2      -20.3470   31.2280   31.5280 C.ar  153  PHE153     -0.0042
     72  CE1      -22.9600   31.6230   32.3190 C.ar  153  PHE153     -0.0003
     73  CE2      -20.8880   30.4540   32.5390 C.ar  153  PHE153     -0.0003
     74  CZ       -22.1960   30.6540   32.9350 C.ar  153  PHE153     -0.0000
     75  N        -20.3280   36.4880   35.0070 N.3   157  MET157     -0.1245
     76  CA       -20.5280   35.5880   36.1390 C.3   157  MET157      0.1570
     77  C        -19.4510   35.7380   37.2060 C.2   157  MET157      0.2261
     78  O        -19.7540   35.8020   38.3970 O.2   157  MET157     -0.2867
     79  CB       -20.6130   34.1340   35.6700 C.3   157  MET157      0.0387
     80  CG       -21.8070   33.8490   34.7760 C.3   157  MET157      0.0595
     81  SD       -23.3570   34.4190   35.4920 S.3   157  MET157     -0.1393
     82  CE       -23.4350   33.4160   36.9710 C.3   157  MET157      0.0692
     83  N        -19.9150   39.1280   38.8360 N.3   160  ALA160     -0.1245
     84  CA       -20.9950   39.0970   39.8140 C.3   160  ALA160      0.1562
     85  C        -20.5670   38.3540   41.0740 C.2   160  ALA160      0.2260
     86  O        -20.8250   38.8060   42.1900 O.2   160  ALA160     -0.2867
     87  CB       -22.2380   38.4550   39.2130 C.3   160  ALA160      0.0290
@<TRIPOS>BOND
     1    56    55    2
     2    55    54    1
     3    52    49    1
     4    54    57    1
     5    54    53    1
     6    51    50    2
     7    57    58    1
     8    50    53   am
     9    50    49    1
    10    64    65    1
    11    49    48    1
    12    48    38   am
    13    68    65    1
    14    68    69    1
    15    36    37    1
    16    65    66    1
    17    58    60   ar
    18    58    59   ar
    19    38    37    1
    20    38    39    2
    21    60    62   ar
    22    37    40    1
    23    69    70   ar
    24    69    71   ar
    25    59    61   ar
    26    70    72   ar
    27    66    67    2
    28    71    73   ar
    29    42    44   ar
    30    42    41   ar
    31    62    63   ar
    32    40    41    1
    33    72    74   ar
    34    61    63   ar
    35    44    46   ar
    36    73    74   ar
    37    41    43   ar
    38    46    47    1
    39    46    45   ar
    40    43    45   ar
    41    80    81    1
    42    80    79    1
    43    75    76    1
    44    81    82    1
    45    24    23    1
    46    79    76    1
    47    76    77    1
    48    23    20    1
    49    18    17    1
    50    77    78    2
    51    20    19    1
    52    20    21    1
    53    17    14    1
    54    19    15   am
    55    22    21    2
    56    15    16    2
    57    15    14    1
    58    21    25   am
    59    13    14    1
    60    13    11   am
    61    83    84    1
    62    87    84    1
    63    10    11    1
    64    10     9    1
    65    25    26    1
    66    84    85    1
    67    11    12    2
    68     4     3    2
    69    29    26    1
    70    29    30    1
    71     9     3   am
    72    26    27    1
    73     3     2    1
    74     7     5    1
    75    85    86    2
    76    31    30   ar
    77    31    33   ar
    78    30    32   ar
    79     5     2    1
    80     5     6    1
    81    27    28    2
    82     2     1    1
    83    33    35   ar
    84    32    34   ar
    85     8     6    1
    86    35    34   ar
