@<TRIPOS>MOLECULE
tmp/4tkrB02.pdb
 233 226 0 0 0
SMALL
GASTEIGER

@<TRIPOS>ATOM
      1  N        -16.3080   27.4480   53.3240 N.3    24  SER24      -0.1217
      2  CA       -16.5010   26.9910   51.9530 C.3    24  SER24       0.1889
      3  C        -17.5300   25.8670   51.8930 C.2    24  SER24       0.2288
      4  O        -18.0190   25.5200   50.8180 O.2    24  SER24      -0.2866
      5  CB       -15.1760   26.5250   51.3440 C.3    24  SER24       0.2089
      6  OG       -14.2570   27.5980   51.2350 O.3    24  SER24      -0.2183
      7  N        -20.3130   26.2190   53.3600 N.3    26  ILE26      -0.1245
      8  CA       -21.5800   26.9380   53.4180 C.3    26  ILE26       0.1561
      9  C        -21.9730   27.3740   52.0100 C.2    26  ILE26       0.2260
     10  O        -21.4160   28.3310   51.4710 O.2    26  ILE26      -0.2867
     11  CB       -21.5010   28.1680   54.3430 C.3    26  ILE26       0.0252
     12  CG1      -21.1760   27.7370   55.7750 C.3    26  ILE26       0.0019
     13  CG2      -22.8060   28.9470   54.3090 C.3    26  ILE26       0.0019
     14  CD1      -21.1570   28.8780   56.7670 C.3    26  ILE26       0.0001
     15  N        -24.3880   29.3380   46.4710 N.3    29  ASP29      -0.1239
     16  CA       -24.1660   29.2320   45.0350 C.3    29  ASP29       0.1674
     17  C        -25.4760   29.2560   44.2570 C.2    29  ASP29       0.2266
     18  O        -26.5090   28.7930   44.7400 O.2    29  ASP29      -0.2867
     19  CB       -23.4200   27.9350   44.7120 C.3    29  ASP29       0.1410
     20  CG       -22.3710   27.5880   45.7510 C.2    29  ASP29       0.3668
     21  OD1      -21.6930   28.5100   46.2500 O.co2  29  ASP29      -0.2456
     22  OD2      -22.2290   26.3890   46.0720 O.co2  29  ASP29      -0.2456
     23  N        -23.2680   26.6850   38.8120 N.3    32  SER32      -0.1202
     24  CA       -21.8590   26.3540   38.9920 C.3    32  SER32       0.2020
     25  C        -20.9560   27.5370   38.6560 C.2    32  SER32       0.2619
     26  O        -19.7320   27.4450   38.7580 O.2    32  SER32      -0.2717
     27  CB       -21.4820   25.1430   38.1350 C.3    32  SER32       0.2103
     28  OG       -21.7380   25.3930   36.7640 O.3    32  SER32      -0.2182
     29  N        -21.5650   28.6510   38.2640 N.am   33  SER33      -0.1951
     30  CA       -20.8080   29.8150   37.8210 C.3    33  SER33       0.1924
     31  C        -20.9970   31.0230   38.7340 C.2    33  SER33       0.2314
     32  O        -20.3130   32.0350   38.5820 O.2    33  SER33      -0.2863
     33  CB       -21.1790   30.1760   36.3810 C.3    33  SER33       0.2116
     34  OG       -20.8780   29.1070   35.5000 O.3    33  SER33      -0.2180
     35  N        -21.2540   32.1540   42.9310 N.3    35  SER35      -0.1202
     36  CA       -21.0640   31.7630   44.3210 C.3    35  SER35       0.2020
     37  C        -20.5340   32.9290   45.1460 C.2    35  SER35       0.2619
     38  O        -19.6440   33.6580   44.7080 O.2    35  SER35      -0.2717
     39  CB       -20.0970   30.5810   44.4170 C.3    35  SER35       0.2103
     40  OG       -19.9380   30.1580   45.7600 O.3    35  SER35      -0.2182
     41  N        -21.0910   33.1060   46.3390 N.am   36  ILE36      -0.1965
     42  CA       -20.5650   34.0800   47.2850 C.3    36  ILE36       0.1727
     43  C        -19.6030   33.3810   48.2360 C.2    36  ILE36       0.2617
     44  O        -20.0200   32.6160   49.1040 O.2    36  ILE36      -0.2715
     45  CB       -21.6830   34.7610   48.0930 C.3    36  ILE36       0.0290
     46  CG1      -22.6230   35.5270   47.1590 C.3    36  ILE36       0.0022
     47  CG2      -21.0900   35.6960   49.1350 C.3    36  ILE36       0.0023
     48  CD1      -23.7360   36.2600   47.8770 C.3    36  ILE36       0.0001
     49  N        -18.3120   33.6400   48.0560 N.am   37  SER37      -0.1936
     50  CA       -17.2790   32.9820   48.8440 C.3    37  SER37       0.2055
     51  C        -17.1340   33.6240   50.2190 C.2    37  SER37       0.2643
     52  O        -16.4790   34.6560   50.3680 O.2    37  SER37      -0.2714
     53  CB       -15.9430   33.0190   48.1000 C.3    37  SER37       0.2130
     54  OG       -14.9400   32.3170   48.8130 O.3    37  SER37      -0.2179
     55  N        -17.7460   33.0070   51.2230 N.am   38  LEU38      -0.1963
     56  CA       -17.6720   33.5110   52.5890 C.3    38  LEU38       0.1728
     57  C        -16.2740   33.3240   53.1730 C.2    38  LEU38       0.2616
     58  O        -15.9340   33.9170   54.1960 O.2    38  LEU38      -0.2715
     59  CB       -18.7120   32.8200   53.4730 C.3    38  LEU38       0.0311
     60  CG       -20.1770   33.0420   53.0920 C.3    38  LEU38       0.0022
     61  CD1      -21.1010   32.2860   54.0370 C.3    38  LEU38       0.0001
     62  CD2      -20.5090   34.5260   53.0850 C.3    38  LEU38       0.0001
     63  N        -15.4670   32.5020   52.5110 N.am   39  GLY39      -0.1955
     64  CA       -14.1190   32.2170   52.9670 C.3    39  GLY39       0.1869
     65  C        -13.1580   33.3810   52.8140 C.2    39  GLY39       0.2309
     66  O        -12.0280   33.3260   53.2980 O.2    39  GLY39      -0.2863
     67  N         -5.5940   27.6800   51.7280 N.3    62  TRP62      -0.1241
     68  CA        -7.0340   27.5480   51.5480 C.3    62  TRP62       0.1605
     69  C         -7.3360   26.8980   50.2030 C.2    62  TRP62       0.2264
     70  O         -8.2160   26.0440   50.0980 O.2    62  TRP62      -0.2867
     71  CB        -7.6990   28.9230   51.6320 C.3    62  TRP62       0.0550
     72  CG        -9.1860   28.9100   51.4420 C.ar   62  TRP62       0.0003
     73  CD1      -10.0430   27.8810   51.7120 C.ar   62  TRP62       0.0946
     74  CD2       -9.9920   29.9790   50.9330 C.ar   62  TRP62       0.0152
     75  NE1      -11.3320   28.2460   51.4060 N.ar   62  TRP62      -0.2442
     76  CE2      -11.3280   29.5290   50.9250 C.ar   62  TRP62       0.0810
     77  CE3       -9.7140   31.2750   50.4850 C.ar   62  TRP62       0.0012
     78  CZ2      -12.3830   30.3280   50.4860 C.ar   62  TRP62       0.0191
     79  CZ3      -10.7630   32.0670   50.0490 C.ar   62  TRP62       0.0001
     80  CH2      -12.0810   31.5910   50.0530 C.ar   62  TRP62       0.0015
     81  N         -8.8490   22.5840   49.1900 N.3    66  HIS66      -0.1241
     82  CA        -9.9670   22.1840   48.3400 C.3    66  HIS66       0.1621
     83  C         -9.7590   20.7820   47.7700 C.2    66  HIS66       0.2264
     84  O        -10.7200   20.0400   47.5610 O.2    66  HIS66      -0.2867
     85  CB       -10.1760   23.1910   47.2050 C.3    66  HIS66       0.0745
     86  CG       -10.8030   24.4770   47.6450 C.ar   66  HIS66       0.0817
     87  ND1      -10.0990   25.4640   48.3050 N.ar   66  HIS66      -0.2268
     88  CD2      -12.0690   24.9400   47.5220 C.ar   66  HIS66       0.1154
     89  CE1      -10.9040   26.4760   48.5660 C.ar   66  HIS66       0.1986
     90  NE2      -12.1070   26.1840   48.1020 N.ar   66  HIS66      -0.2212
     91  N        -13.3900   19.4290   47.7470 N.3    71  LYS71      -0.1245
     92  CA       -14.3180   20.5160   47.4560 C.3    71  LYS71       0.1561
     93  C        -13.9510   21.1960   46.1380 C.2    71  LYS71       0.2260
     94  O        -14.6160   22.1360   45.7010 O.2    71  LYS71      -0.2867
     95  CB       -14.3130   21.5350   48.5990 C.3    71  LYS71       0.0271
     96  CG       -15.5700   22.3880   48.6950 C.3    71  LYS71       0.0035
     97  CD       -16.7750   21.5550   49.1000 C.3    71  LYS71       0.0206
     98  CE       -18.0200   22.4170   49.2390 C.3    71  LYS71       0.1093
     99  NZ       -18.3950   23.0630   47.9510 N.3    71  LYS71      -0.1314
    100  N        -13.7840   21.5400   42.2670 N.3    73  TYR73      -0.1241
    101  CA       -14.4270   21.1100   41.0310 C.3    73  TYR73       0.1605
    102  C        -13.3950   21.0550   39.9120 C.2    73  TYR73       0.2264
    103  O        -13.0060   22.0870   39.3660 O.2    73  TYR73      -0.2867
    104  CB       -15.5640   22.0630   40.6560 C.3    73  TYR73       0.0534
    105  CG       -16.5980   22.2040   41.7440 C.ar   73  TYR73      -0.0201
    106  CD1      -17.4130   21.1290   42.1000 C.ar   73  TYR73      -0.0009
    107  CD2      -16.7420   23.4030   42.4400 C.ar   73  TYR73      -0.0009
    108  CE1      -18.3440   21.2430   43.1260 C.ar   73  TYR73       0.0417
    109  CE2      -17.6710   23.5310   43.4650 C.ar   73  TYR73       0.0417
    110  CZ       -18.4660   22.4490   43.8050 C.ar   73  TYR73       0.1957
    111  OH       -19.3770   22.5680   44.8300 O.3    73  TYR73      -0.2866
    112  N         -7.3250   27.5880   38.9810 N.3    83  GLU83      -0.1231
    113  CA        -8.4100   28.0340   39.8540 C.3    83  GLU83       0.1699
    114  C         -8.1780   27.8100   41.3460 C.2    83  GLU83       0.2592
    115  O         -8.6440   28.5940   42.1700 O.2    83  GLU83      -0.2718
    116  CB        -9.7360   27.3960   39.4370 C.3    83  GLU83       0.0402
    117  CG       -10.1600   27.7410   38.0250 C.3    83  GLU83       0.1161
    118  CD       -11.6580   27.9070   37.8910 C.2    83  GLU83       0.3649
    119  OE1      -12.3260   26.9600   37.4270 O.co2  83  GLU83      -0.2457
    120  OE2      -12.1670   28.9900   38.2480 O.co2  83  GLU83      -0.2457
    121  N         -7.4690   26.7440   41.6990 N.am   84  TYR84      -0.1976
    122  CA        -7.2960   26.4080   43.1090 C.3    84  TYR84       0.1639
    123  C         -5.8800   26.6430   43.6250 C.2    84  TYR84       0.2290
    124  O         -5.5870   26.3900   44.7930 O.2    84  TYR84      -0.2864
    125  CB        -7.7560   24.9740   43.3860 C.3    84  TYR84       0.0560
    126  CG        -9.2510   24.8010   43.2420 C.ar   84  TYR84      -0.0198
    127  CD1      -10.1180   25.2680   44.2190 C.ar   84  TYR84      -0.0009
    128  CD2       -9.7960   24.1820   42.1240 C.ar   84  TYR84      -0.0009
    129  CE1      -11.4840   25.1210   44.0920 C.ar   84  TYR84       0.0417
    130  CE2      -11.1630   24.0290   41.9880 C.ar   84  TYR84       0.0417
    131  CZ       -12.0030   24.5020   42.9750 C.ar   84  TYR84       0.1957
    132  OH       -13.3650   24.3540   42.8510 O.3    84  TYR84      -0.2866
    133  N         -6.1280   31.5030   44.2260 N.3    88  PHE88      -0.1241
    134  CA        -6.0790   31.6260   45.6790 C.3    88  PHE88       0.1605
    135  C         -4.7530   32.2050   46.1730 C.2    88  PHE88       0.2264
    136  O         -4.6610   32.6830   47.3030 O.2    88  PHE88      -0.2867
    137  CB        -6.3530   30.2740   46.3410 C.3    88  PHE88       0.0534
    138  CG        -7.8020   29.8760   46.3250 C.ar   88  PHE88      -0.0203
    139  CD1       -8.3840   29.3710   45.1750 C.ar   88  PHE88      -0.0042
    140  CD2       -8.5810   30.0040   47.4630 C.ar   88  PHE88      -0.0042
    141  CE1       -9.7170   29.0030   45.1570 C.ar   88  PHE88      -0.0003
    142  CE2       -9.9160   29.6370   47.4520 C.ar   88  PHE88      -0.0003
    143  CZ       -10.4840   29.1370   46.2990 C.ar   88  PHE88      -0.0000
    144  N         -7.9070   37.7940   42.7390 N.3   128  ARG128     -0.1231
    145  CA        -8.2490   36.3760   42.7130 C.3   128  ARG128      0.1694
    146  C         -9.1570   36.0390   41.5360 C.2   128  ARG128      0.2592
    147  O         -8.8650   35.1350   40.7510 O.2   128  ARG128     -0.2718
    148  CB        -8.9320   35.9530   44.0150 C.3   128  ARG128      0.0321
    149  CG        -9.6010   34.5870   43.9280 C.3   128  ARG128      0.0489
    150  CD       -10.4880   34.3020   45.1290 C.3   128  ARG128      0.2205
    151  NE       -11.2950   33.1040   44.9190 N.pl3 128  ARG128     -0.0865
    152  CZ       -12.2040   32.6520   45.7750 C.cat 128  ARG128      0.5346
    153  NH1      -12.4280   33.2990   46.9100 N.pl3 128  ARG128      0.1354
    154  NH2      -12.8910   31.5520   45.4950 N.pl3 128  ARG128      0.1354
    155  N        -10.2580   36.7740   41.4180 N.am  129  TYR129     -0.1976
    156  CA       -11.2760   36.4810   40.4120 C.3   129  TYR129      0.1639
    157  C        -10.8280   36.7700   38.9820 C.2   129  TYR129      0.2290
    158  O        -11.5590   36.4930   38.0310 O.2   129  TYR129     -0.2864
    159  CB       -12.5830   37.2110   40.7330 C.3   129  TYR129      0.0560
    160  CG       -13.4110   36.5120   41.7890 C.ar  129  TYR129     -0.0198
    161  CD1      -13.1610   36.7080   43.1410 C.ar  129  TYR129     -0.0009
    162  CD2      -14.4380   35.6460   41.4320 C.ar  129  TYR129     -0.0009
    163  CE1      -13.9130   36.0660   44.1060 C.ar  129  TYR129      0.0417
    164  CE2      -15.1940   35.0020   42.3900 C.ar  129  TYR129      0.0417
    165  CZ       -14.9290   35.2140   43.7240 C.ar  129  TYR129      0.1957
    166  OH       -15.6830   34.5710   44.6800 O.3   129  TYR129     -0.2866
    167  N        -10.1620   33.3040   37.8560 N.3   132  HIS132     -0.1241
    168  CA       -11.4400   32.6230   37.6830 C.3   132  HIS132      0.1621
    169  C        -12.0790   33.0550   36.3700 C.2   132  HIS132      0.2264
    170  O        -12.7240   32.2570   35.6870 O.2   132  HIS132     -0.2867
    171  CB       -12.3780   32.9150   38.8550 C.3   132  HIS132      0.0745
    172  CG       -11.9690   32.2540   40.1330 C.ar  132  HIS132      0.0817
    173  ND1      -11.2610   31.0710   40.1640 N.ar  132  HIS132     -0.2268
    174  CD2      -12.1600   32.6120   41.4250 C.ar  132  HIS132      0.1154
    175  CE1      -11.0360   30.7290   41.4200 C.ar  132  HIS132      0.1986
    176  NE2      -11.5720   31.6460   42.2040 N.ar  132  HIS132     -0.2212
    177  N        -12.6150   30.7320   33.2520 N.3   136  GLY136     -0.1225
    178  CA       -13.9740   30.7750   32.7470 C.3   136  GLY136      0.1811
    179  C        -14.0060   30.8520   31.2330 C.2   136  GLY136      0.2280
    180  O        -14.8400   30.2190   30.5870 O.2   136  GLY136     -0.2866
    181  N        -14.8170   27.0680   30.9740 N.3   140  TRP140     -0.1241
    182  CA       -16.2330   27.0500   31.3430 C.3   140  TRP140      0.1605
    183  C        -17.1740   27.6070   30.2740 C.2   140  TRP140      0.2264
    184  O        -18.2510   28.1110   30.5900 O.2   140  TRP140     -0.2867
    185  CB       -16.4430   27.7960   32.6640 C.3   140  TRP140      0.0550
    186  CG       -15.7620   27.1400   33.8230 C.ar  140  TRP140      0.0003
    187  CD1      -14.4660   27.3070   34.2140 C.ar  140  TRP140      0.0946
    188  CD2      -16.3400   26.2050   34.7410 C.ar  140  TRP140      0.0152
    189  NE1      -14.2020   26.5360   35.3200 N.ar  140  TRP140     -0.2442
    190  CE2      -15.3360   25.8500   35.6620 C.ar  140  TRP140      0.0810
    191  CE3      -17.6100   25.6350   34.8720 C.ar  140  TRP140      0.0012
    192  CZ2      -15.5630   24.9490   36.7020 C.ar  140  TRP140      0.0191
    193  CZ3      -17.8320   24.7420   35.9050 C.ar  140  TRP140      0.0001
    194  CH2      -16.8140   24.4090   36.8070 C.ar  140  TRP140      0.0015
    195  N        -19.7180   35.2360   29.0550 N.3   153  PHE153     -0.1227
    196  CA       -20.2310   34.4910   30.1990 C.3   153  PHE153      0.1736
    197  C        -19.2730   34.5310   31.3840 C.2   153  PHE153      0.2596
    198  O        -19.7010   34.5270   32.5350 O.2   153  PHE153     -0.2718
    199  CB       -20.5130   33.0420   29.8000 C.3   153  PHE153      0.0547
    200  CG       -21.1010   32.2090   30.9050 C.ar  153  PHE153     -0.0202
    201  CD1      -22.4130   32.3940   31.3070 C.ar  153  PHE153     -0.0042
    202  CD2      -20.3470   31.2280   31.5280 C.ar  153  PHE153     -0.0042
    203  CE1      -22.9600   31.6230   32.3190 C.ar  153  PHE153     -0.0003
    204  CE2      -20.8880   30.4540   32.5390 C.ar  153  PHE153     -0.0003
    205  CZ       -22.1960   30.6540   32.9350 C.ar  153  PHE153     -0.0000
    206  N        -17.9760   34.5770   31.0980 N.am  154  SER154     -0.1952
    207  CA       -16.9680   34.5460   32.1510 C.3   154  SER154      0.1924
    208  C        -16.8300   35.8820   32.8730 C.2   154  SER154      0.2314
    209  O        -16.6670   35.9170   34.0890 O.2   154  SER154     -0.2863
    210  CB       -15.6140   34.1130   31.5900 C.3   154  SER154      0.2116
    211  OG       -14.6420   34.0390   32.6170 O.3   154  SER154     -0.2180
    212  N        -20.3280   36.4880   35.0070 N.3   157  MET157     -0.1230
    213  CA       -20.5280   35.5880   36.1390 C.3   157  MET157      0.1702
    214  C        -19.4510   35.7380   37.2060 C.2   157  MET157      0.2592
    215  O        -19.7540   35.8020   38.3970 O.2   157  MET157     -0.2718
    216  CB       -20.6130   34.1340   35.6700 C.3   157  MET157      0.0401
    217  CG       -21.8070   33.8490   34.7760 C.3   157  MET157      0.0596
    218  SD       -23.3570   34.4190   35.4920 S.3   157  MET157     -0.1393
    219  CE       -23.4350   33.4160   36.9710 C.3   157  MET157      0.0692
    220  N        -18.1930   35.7890   36.7800 N.am  158  ASN158     -0.1974
    221  CA       -17.0920   35.9760   37.7180 C.3   158  ASN158      0.1688
    222  C        -17.0850   37.3870   38.2880 C.2   158  ASN158      0.2292
    223  O        -16.6440   37.6080   39.4140 O.2   158  ASN158     -0.2864
    224  CB       -15.7530   35.6480   37.0590 C.3   158  ASN158      0.1181
    225  CG       -15.6270   34.1820   36.7020 C.2   158  ASN158      0.2629
    226  OD1      -15.7180   33.3120   37.5690 O.2   158  ASN158     -0.2716
    227  ND2      -15.4390   33.8980   35.4190 N.am  158  ASN158     -0.0877
    228  N        -19.9120   37.2120   40.8860 N.3   161  SER161     -0.1217
    229  CA       -19.4190   36.4150   42.0040 C.3   161  SER161      0.1889
    230  C        -18.4140   37.2050   42.8310 C.2   161  SER161      0.2288
    231  O        -18.4130   37.1320   44.0590 O.2   161  SER161     -0.2866
    232  CB       -18.7820   35.1190   41.5030 C.3   161  SER161      0.2089
    233  OG       -19.7430   34.2830   40.8840 O.3   161  SER161     -0.2183
@<TRIPOS>BOND
     1   195   196    1
     2   199   196    1
     3   199   200    1
     4   196   197    1
     5   183   184    2
     6   183   182    1
     7   180   179    2
     8   200   201   ar
     9   200   202   ar
    10   181   182    1
    11   206   197   am
    12   206   207    1
    13   179   178    1
    14   201   203   ar
    15   182   185    1
    16   197   198    2
    17   202   204   ar
    18   210   207    1
    19   210   211    1
    20   207   208    1
    21   203   205   ar
    22   204   205   ar
    23   185   186    1
    24   178   177    1
    25   208   209    2
    26   186   187   ar
    27   186   188   ar
    28   187   189   ar
    29   188   191   ar
    30   188   190   ar
    31   217   218    1
    32   217   216    1
    33   191   193   ar
    34   212   213    1
    35   189   190   ar
    36   227   225   am
    37   218   219    1
    38    34    33    1
    39   190   192   ar
    40   216   213    1
    41   170   169    2
    42   193   194   ar
    43   213   214    1
    44   169   168    1
    45    33    30    1
    46   225   224    1
    47   225   226    2
    48   192   194   ar
    49    28    27    1
    50   220   214   am
    51   220   221    1
    52   224   221    1
    53   214   215    2
    54   119   118   ar
    55   168   167    1
    56   168   171    1
    57   221   222    1
    58    30    29    1
    59    30    31    1
    60   118   117    1
    61   118   120   ar
    62   117   116    1
    63   158   157    2
    64    27    24    1
    65    29    25   am
    66   222   223    2
    67    32    31    2
    68    25    26    2
    69    25    24    1
    70    23    24    1
    71   171   172    1
    72   112   113    1
    73   157   156    1
    74   103   102    2
    75   116   113    1
    76   113   114    1
    77   102   101    1
    78   172   173   ar
    79   172   174   ar
    80   173   175   ar
    81   156   159    1
    82   156   155    1
    83   104   101    1
    84   104   105    1
    85   159   160    1
    86   147   146    2
    87   233   232    1
    88   228   229    1
    89   101   100    1
    90   114   121   am
    91   114   115    2
    92   155   146   am
    93   175   176   ar
    94   174   176   ar
    95   162   160   ar
    96   162   164   ar
    97   232   229    1
    98   146   145    1
    99   121   122    1
   100   105   106   ar
   101   105   107   ar
   102   160   161   ar
   103   130   128   ar
   104   130   131   ar
   105   229   230    1
   106   106   108   ar
   107   128   126   ar
   108   164   165   ar
   109   107   109   ar
   110   145   144    1
   111   145   148    1
   112   230   231    2
   113   132   131    1
   114    35    36    1
   115   131   129   ar
   116   122   125    1
   117   122   123    1
   118   108   110   ar
   119   161   163   ar
   120   126   125    1
   121   126   127   ar
   122   109   110   ar
   123   123   124    2
   124   165   163   ar
   125   165   166    1
   126   110   111    1
   127   149   148    1
   128   149   150    1
   129   129   127   ar
   130   133   134    1
   131    17    18    2
   132    17    16    1
   133    36    39    1
   134    36    37    1
   135    39    40    1
   136    38    37    2
   137    19    16    1
   138    19    20    1
   139   151   150    1
   140   151   152    2
   141    16    15    1
   142    37    41   am
   143   141   139   ar
   144   141   143   ar
   145   139   138   ar
   146   154   152    1
   147   134   135    1
   148   134   137    1
   149    94    93    2
   150    20    22   ar
   151    20    21   ar
   152   152   153    1
   153    93    92    1
   154   135   136    2
   155   143   142   ar
   156   138   137    1
   157   138   140   ar
   158    41    42    1
   159    46    48    1
   160    46    45    1
   161    85    86    1
   162    85    82    1
   163    42    45    1
   164    42    43    1
   165   142   140   ar
   166    92    91    1
   167    92    95    1
   168    88    86   ar
   169    88    90   ar
   170    84    83    2
   171    86    87   ar
   172    83    82    1
   173    99    98    1
   174    49    43   am
   175    49    50    1
   176    45    47    1
   177    53    54    1
   178    53    50    1
   179    90    89   ar
   180    43    44    2
   181    87    89   ar
   182    82    81    1
   183    95    96    1
   184    96    97    1
   185    50    51    1
   186    97    98    1
   187    79    80   ar
   188    79    77   ar
   189    80    78   ar
   190    70    69    2
   191    69    68    1
   192    51    52    2
   193    51    55   am
   194    77    74   ar
   195    78    76   ar
   196     4     3    2
   197    76    74   ar
   198    76    75   ar
   199    74    72   ar
   200    55    56    1
   201     6     5    1
   202     5     2    1
   203    75    73   ar
   204    72    71    1
   205    72    73   ar
   206    10     9    2
   207    68    71    1
   208    68    67    1
   209     3     2    1
   210     2     1    1
   211     9     8    1
   212    63    64    1
   213    63    57   am
   214    56    57    1
   215    56    59    1
   216    65    64    1
   217    65    66    2
   218    62    60    1
   219    60    59    1
   220    60    61    1
   221    57    58    2
   222     7     8    1
   223     8    11    1
   224    13    11    1
   225    11    12    1
   226    12    14    1
