@<TRIPOS>MOLECULE
tmp/4tktA00.pdb
 83 81 0 0 0
SMALL
GASTEIGER

@<TRIPOS>ATOM
      1  N         25.1310   19.6640   26.8150 N.3    36  PRO36      -0.2116
      2  CA        24.4770   19.6390   25.5030 C.3    36  PRO36       0.1372
      3  C         23.1910   18.8270   25.5430 C.2    36  PRO36       0.2244
      4  O         23.2000   17.7050   26.0470 O.2    36  PRO36      -0.2868
      5  CB        25.5180   18.9730   24.6000 C.3    36  PRO36       0.0268
      6  CG        26.8150   19.1870   25.2920 C.3    36  PRO36       0.0207
      7  CD        26.5000   19.1280   26.7550 C.3    36  PRO36       0.0892
      8  N         21.6720   17.1350   23.4860 N.3    38  GLY38      -0.1210
      9  CA        21.7520   15.8480   22.8190 C.3    38  GLY38       0.1956
     10  C         22.1410   14.7080   23.7440 C.2    38  GLY38       0.2611
     11  O         21.6070   13.6060   23.6310 O.2    38  GLY38      -0.2717
     12  N         23.0680   14.9800   24.6600 N.am   39  ARG39      -0.1979
     13  CA        23.5790   13.9710   25.5880 C.3    39  ARG39       0.1597
     14  C         22.4740   13.3220   26.4190 C.2    39  ARG39       0.2287
     15  O         22.2640   12.1100   26.3520 O.2    39  ARG39      -0.2864
     16  CB        24.6230   14.5920   26.5180 C.3    39  ARG39       0.0334
     17  CG        25.8300   15.1750   25.8050 C.3    39  ARG39       0.0492
     18  CD        26.6140   14.0980   25.0800 C.3    39  ARG39       0.2205
     19  NE        27.7680   14.6500   24.3790 N.pl3  39  ARG39      -0.0865
     20  CZ        28.9920   14.7130   24.8910 C.cat  39  ARG39       0.5346
     21  NH1       29.2270   14.2530   26.1120 N.pl3  39  ARG39       0.1354
     22  NH2       29.9850   15.2330   24.1810 N.pl3  39  ARG39       0.1354
     23  N         33.3900   17.8300   24.0250 N.3    64  LEU64      -0.1231
     24  CA        33.7600   17.6550   22.6300 C.3    64  LEU64       0.1693
     25  C         32.5070   17.7380   21.7660 C.2    64  LEU64       0.2592
     26  O         31.3910   17.7290   22.2840 O.2    64  LEU64      -0.2718
     27  CB        34.4650   16.3150   22.4190 C.3    64  LEU64       0.0284
     28  CG        35.7560   16.0900   23.2060 C.3    64  LEU64       0.0019
     29  CD1       36.4320   14.8090   22.7530 C.3    64  LEU64       0.0001
     30  CD2       36.6900   17.2760   23.0530 C.3    64  LEU64       0.0001
     31  N         32.6880   17.8200   20.4530 N.am   65  ASP65      -0.1960
     32  CA        31.5520   17.8030   19.5390 C.3    65  ASP65       0.1840
     33  C         31.5210   16.5090   18.7390 C.2    65  ASP65       0.2623
     34  O         32.5430   16.0700   18.2100 O.2    65  ASP65      -0.2715
     35  CB        31.5900   19.0040   18.5950 C.3    65  ASP65       0.1450
     36  CG        31.2520   20.3040   19.2960 C.2    65  ASP65       0.3671
     37  OD1       30.0530   20.5450   19.5520 O.co2  65  ASP65      -0.2456
     38  OD2       32.1810   21.0860   19.5870 O.co2  65  ASP65      -0.2456
     39  N         30.3420   15.8990   18.6670 N.am   66  GLY66      -0.1940
     40  CA        30.1470   14.6860   17.8950 C.3    66  GLY66       0.2014
     41  C         30.9990   13.5200   18.3540 C.2    66  GLY66       0.2639
     42  O         31.7850   12.9780   17.5770 O.2    66  GLY66      -0.2714
     43  N         30.8450   13.1280   19.6160 N.am   67  ILE67      -0.1963
     44  CA        31.6020   12.0040   20.1550 C.3    67  ILE67       0.1727
     45  C         31.0390   10.6750   19.6570 C.2    67  ILE67       0.2616
     46  O         31.6120    9.6150   19.9090 O.2    67  ILE67      -0.2715
     47  CB        31.6130   12.0030   21.6980 C.3    67  ILE67       0.0290
     48  CG1       30.2040   11.7860   22.2470 C.3    67  ILE67       0.0022
     49  CG2       32.2090   13.2970   22.2360 C.3    67  ILE67       0.0023
     50  CD1       30.1670   11.6550   23.7450 C.3    67  ILE67       0.0001
     51  N         29.9140   10.7360   18.9510 N.am   68  ASP68      -0.1971
     52  CA        29.3260    9.5480   18.3470 C.3    68  ASP68       0.1709
     53  C         29.7470    9.3970   16.8880 C.2    68  ASP68       0.2293
     54  O         29.4070    8.4090   16.2360 O.2    68  ASP68      -0.2864
     55  CB        27.8030    9.5910   18.4520 C.3    68  ASP68       0.1436
     56  CG        27.2050   10.8320   17.8150 C.2    68  ASP68       0.3671
     57  OD1       27.9310   11.8330   17.6370 O.co2  68  ASP68      -0.2456
     58  OD2       25.9970   10.8080   17.5030 O.co2  68  ASP68      -0.2456
     59  N         27.3110    9.0410   12.3810 N.3   572  ARG572     -0.1245
     60  CA        26.9890    8.8710   13.7940 C.3   572  ARG572      0.1563
     61  C         26.6740    7.4240   14.1720 C.2   572  ARG572      0.2260
     62  O         25.9020    6.7490   13.4940 O.2   572  ARG572     -0.2867
     63  CB        25.8060    9.7720   14.1630 C.3   572  ARG572      0.0307
     64  CG        26.0720   11.2610   13.9510 C.3   572  ARG572      0.0489
     65  CD        24.7800   12.0710   13.9000 C.3   572  ARG572      0.2205
     66  NE        24.0000   11.9700   15.1320 N.pl3 572  ARG572     -0.0865
     67  CZ        24.0280   12.8680   16.1130 C.cat 572  ARG572      0.5346
     68  NH1       24.8010   13.9410   16.0110 N.pl3 572  ARG572      0.1354
     69  NH2       23.2830   12.6940   17.1970 N.pl3 572  ARG572      0.1354
     70  N         25.6380    4.9950   17.6830 N.3   574  TRP574     -0.1241
     71  CA        25.2410    4.9610   19.0830 C.3   574  TRP574      0.1605
     72  C         24.5800    3.6190   19.3970 C.2   574  TRP574      0.2264
     73  O         24.1560    2.9060   18.4910 O.2   574  TRP574     -0.2867
     74  CB        24.3010    6.1280   19.3940 C.3   574  TRP574      0.0550
     75  CG        24.3670    6.6120   20.8140 C.ar  574  TRP574      0.0003
     76  CD1       23.3640    6.5820   21.7370 C.ar  574  TRP574      0.0946
     77  CD2       25.4980    7.2010   21.4710 C.ar  574  TRP574      0.0152
     78  NE1       23.7970    7.1170   22.9260 N.ar  574  TRP574     -0.2442
     79  CE2       25.1040    7.5040   22.7890 C.ar  574  TRP574      0.0810
     80  CE3       26.8040    7.5000   21.0730 C.ar  574  TRP574      0.0012
     81  CZ2       25.9680    8.0900   23.7100 C.ar  574  TRP574      0.0191
     82  CZ3       27.6600    8.0820   21.9890 C.ar  574  TRP574      0.0001
     83  CH2       27.2390    8.3710   23.2910 C.ar  574  TRP574      0.0015
@<TRIPOS>BOND
     1    59    60    1
     2    62    61    2
     3    60    63    1
     4    60    61    1
     5    65    64    1
     6    65    66    1
     7    64    63    1
     8    66    67    2
     9    68    67    1
    10    67    69    1
    11    54    53    2
    12    53    52    1
    13    58    56   ar
    14    42    41    2
    15    57    56   ar
    16    70    71    1
    17    56    55    1
    18    40    41    1
    19    40    39    1
    20    34    33    2
    21    52    55    1
    22    52    51    1
    23    41    43   am
    24    73    72    2
    25    35    36    1
    26    35    32    1
    27    39    33   am
    28    33    32    1
    29    51    45   am
    30    71    74    1
    31    71    72    1
    32    36    37   ar
    33    36    38   ar
    34    74    75    1
    35    32    31    1
    36    43    44    1
    37    45    46    2
    38    45    44    1
    39    44    47    1
    40    31    25   am
    41    75    77   ar
    42    75    76   ar
    43    80    77   ar
    44    80    82   ar
    45    77    79   ar
    46    47    49    1
    47    47    48    1
    48    76    78   ar
    49    25    26    2
    50    25    24    1
    51    82    83   ar
    52    48    50    1
    53    27    24    1
    54    27    28    1
    55    24    23    1
    56    29    28    1
    57    79    78   ar
    58    79    81   ar
    59     9     8    1
    60     9    10    1
    61    30    28    1
    62    83    81   ar
    63    11    10    2
    64    10    12   am
    65    22    20    1
    66    19    20    2
    67    19    18    1
    68     5     6    1
    69     5     2    1
    70    12    13    1
    71    20    21    1
    72    18    17    1
    73     6     7    1
    74     2     3    1
    75     2     1    1
    76     3     4    2
    77    13    14    1
    78    13    16    1
    79    17    16    1
    80    15    14    2
    81     7     1    1
