@<TRIPOS>MOLECULE
tmp/4tkxA00.pdb
 95 93 0 0 0
SMALL
GASTEIGER

@<TRIPOS>ATOM
      1  N         19.7850   29.1000  -34.8620 N.3   167  VAL167     -0.1245
      2  CA        20.0450   28.0540  -33.8830 C.3   167  VAL167      0.1561
      3  C         21.2000   28.4040  -32.9400 C.2   167  VAL167      0.2260
      4  O         21.0900   28.2220  -31.7220 O.2   167  VAL167     -0.2867
      5  CB        20.3300   26.7150  -34.5870 C.3   167  VAL167      0.0252
      6  CG1       20.9070   25.6950  -33.6130 C.3   167  VAL167      0.0019
      7  CG2       19.0490   26.1870  -35.2580 C.3   167  VAL167      0.0019
      8  N         29.4250   26.3900  -30.6580 N.3   214  THR214     -0.1203
      9  CA        28.4740   25.7390  -31.5400 C.3   214  THR214      0.1994
     10  C         28.4610   26.4160  -32.9180 C.2   214  THR214      0.2618
     11  O         28.1660   27.6210  -33.0430 O.2   214  THR214     -0.2717
     12  CB        27.0500   25.6850  -30.9240 C.3   214  THR214      0.1784
     13  OG1       26.1720   25.0990  -31.8700 O.3   214  THR214     -0.2211
     14  CG2       26.5160   27.0770  -30.5430 C.3   214  THR214      0.0376
     15  N         28.8470   25.6220  -33.9210 N.am  215  ALA215     -0.1965
     16  CA        28.8960   25.9970  -35.3470 C.3   215  ALA215      0.1728
     17  C         29.7750   24.9380  -36.0410 C.2   215  ALA215      0.2616
     18  O         29.6790   23.7740  -35.6990 O.2   215  ALA215     -0.2715
     19  CB        29.4160   27.3810  -35.5590 C.3   215  ALA215      0.0334
     20  N         30.5940   25.3080  -37.0260 N.am  216  HIS216     -0.1959
     21  CA        31.2790   24.2940  -37.8220 C.3   216  HIS216      0.1787
     22  C         32.5910   23.8290  -37.2080 C.2   216  HIS216      0.2620
     23  O         33.3280   24.6100  -36.6240 O.2   216  HIS216     -0.2715
     24  CB        31.5570   24.8180  -39.2300 C.3   216  HIS216      0.0785
     25  CG        30.3240   25.0890  -40.0270 C.ar  216  HIS216      0.0821
     26  ND1       29.8540   24.2120  -40.9800 N.ar  216  HIS216     -0.2267
     27  CD2       29.4800   26.1480  -40.0420 C.ar  216  HIS216      0.1154
     28  CE1       28.7540   24.7040  -41.5270 C.ar  216  HIS216      0.1986
     29  NE2       28.5100   25.8810  -40.9810 N.ar  216  HIS216     -0.2212
     30  N         32.8880   22.5490  -37.3960 N.am  217  GLY217     -0.1954
     31  CA        34.1280   21.9710  -36.9180 C.3   217  GLY217      0.1869
     32  C         34.8000   21.0750  -37.9400 C.2   217  GLY217      0.2309
     33  O         34.1790   20.6340  -38.9240 O.2   217  GLY217     -0.2863
     34  N         30.0620   21.6130  -29.8710 N.3   247  ASN247     -0.1240
     35  CA        28.8460   21.1240  -30.5090 C.3   247  ASN247      0.1653
     36  C         29.0150   21.4300  -31.9880 C.2   247  ASN247      0.2266
     37  O         28.6150   22.4940  -32.4760 O.2   247  ASN247     -0.2867
     38  CB        27.6160   21.8080  -29.9220 C.3   247  ASN247      0.1155
     39  CG        27.3660   21.4100  -28.4900 C.2   247  ASN247      0.2627
     40  OD1       27.4000   22.2440  -27.5920 O.2   247  ASN247     -0.2716
     41  ND2       27.1550   20.1190  -28.2600 N.am  247  ASN247     -0.0877
     42  N         30.8610   19.3200  -35.9030 N.3   249  CYS249     -0.1235
     43  CA        31.3770   18.0930  -36.4980 C.3   249  CYS249      0.1677
     44  C         32.7680   17.6900  -36.0350 C.2   249  CYS249      0.2270
     45  O         33.6310   18.5330  -35.8310 O.2   249  CYS249     -0.2867
     46  CB        31.4390   18.2320  -38.0140 C.3   249  CYS249      0.0956
     47  SG        29.8250   18.4640  -38.7660 S.3   249  CYS249     -0.0801
     48  N         29.9490   13.6910  -38.0060 N.3   282  ASN282     -0.1225
     49  CA        29.2560   14.9540  -38.1630 C.3   282  ASN282      0.1785
     50  C         28.1840   15.1360  -37.0970 C.2   282  ASN282      0.2598
     51  O         27.5610   14.1770  -36.6600 O.2   282  ASN282     -0.2718
     52  CB        28.5780   15.0100  -39.5310 C.3   282  ASN282      0.1169
     53  CG        29.5600   15.0230  -40.6650 C.2   282  ASN282      0.2627
     54  OD1       30.7140   15.4130  -40.5010 O.2   282  ASN282     -0.2716
     55  ND2       29.1020   14.6120  -41.8370 N.am  282  ASN282     -0.0877
     56  N         27.9820   16.3750  -36.6750 N.am  283  SER283     -0.1938
     57  CA        26.8020   16.7360  -35.8890 C.3   283  SER283      0.2055
     58  C         25.9180   17.6400  -36.7570 C.2   283  SER283      0.2643
     59  O         26.3230   18.0840  -37.8480 O.2   283  SER283     -0.2714
     60  CB        27.1650   17.4160  -34.5580 C.3   283  SER283      0.2130
     61  OG        27.5460   18.7640  -34.7510 O.3   283  SER283     -0.2179
     62  N         24.7100   17.8950  -36.2810 N.am  284  TYR284     -0.1959
     63  CA        23.7020   18.5830  -37.0910 C.3   284  TYR284      0.1771
     64  C         23.0530   19.6710  -36.2750 C.2   284  TYR284      0.2619
     65  O         23.0090   19.6000  -35.0550 O.2   284  TYR284     -0.2715
     66  CB        22.6560   17.5880  -37.5870 C.3   284  TYR284      0.0574
     67  CG        23.2840   16.6090  -38.5220 C.ar  284  TYR284     -0.0198
     68  CD1       23.4660   16.9240  -39.8640 C.ar  284  TYR284     -0.0009
     69  CD2       23.7550   15.3960  -38.0560 C.ar  284  TYR284     -0.0009
     70  CE1       24.0770   16.0280  -40.7300 C.ar  284  TYR284      0.0417
     71  CE2       24.3660   14.4910  -38.9100 C.ar  284  TYR284      0.0417
     72  CZ        24.5290   14.8200  -40.2370 C.ar  284  TYR284      0.1957
     73  OH        25.1500   13.9190  -41.0750 O.3   284  TYR284     -0.2866
     74  N         22.5560   20.6930  -36.9450 N.am  285  TRP285     -0.1974
     75  CA        22.0500   21.8430  -36.2260 C.3   285  TRP285      0.1640
     76  C         20.8710   21.5200  -35.2930 C.2   285  TRP285      0.2290
     77  O         20.8660   21.9440  -34.1290 O.2   285  TRP285     -0.2864
     78  CB        21.7030   22.9670  -37.1980 C.3   285  TRP285      0.0576
     79  CG        22.9120   23.5800  -37.8640 C.ar  285  TRP285      0.0006
     80  CD1       23.4090   23.2730  -39.1060 C.ar  285  TRP285      0.0946
     81  CD2       23.7620   24.6070  -37.3370 C.ar  285  TRP285      0.0152
     82  NE1       24.5150   24.0390  -39.3740 N.ar  285  TRP285     -0.2442
     83  CE2       24.7500   24.8720  -38.3070 C.ar  285  TRP285      0.0810
     84  CE3       23.7860   25.3300  -36.1370 C.ar  285  TRP285      0.0012
     85  CZ2       25.7520   25.8310  -38.1140 C.ar  285  TRP285      0.0191
     86  CZ3       24.7820   26.2930  -35.9550 C.ar  285  TRP285      0.0001
     87  CH2       25.7470   26.5300  -36.9410 C.ar  285  TRP285      0.0015
     88  N         21.9530   19.1760  -32.2550 N.3   288  ASP288     -0.1239
     89  CA        22.7900   19.8750  -31.2560 C.3   288  ASP288      0.1674
     90  C         21.9570   20.9270  -30.4940 C.2   288  ASP288      0.2266
     91  O         22.2150   21.2380  -29.3390 O.2   288  ASP288     -0.2867
     92  CB        23.9800   20.5810  -31.9030 C.3   288  ASP288      0.1410
     93  CG        25.1520   19.6540  -32.2070 C.2   288  ASP288      0.3668
     94  OD1       25.1030   18.4400  -31.8800 O.co2 288  ASP288     -0.2456
     95  OD2       26.1440   20.1610  -32.7840 O.co2 288  ASP288     -0.2456
@<TRIPOS>BOND
     1    55    53   am
     2    28    29   ar
     3    28    26   ar
     4    73    72    1
     5    29    27   ar
     6    26    25   ar
     7    70    72   ar
     8    70    68   ar
     9    53    54    2
    10    53    52    1
    11    72    71   ar
    12    27    25   ar
    13    25    24    1
    14    68    67   ar
    15    52    49    1
    16    82    80   ar
    17    82    83   ar
    18    24    21    1
    19    80    79   ar
    20    33    32    2
    21    71    69   ar
    22    47    46    1
    23    67    69   ar
    24    67    66    1
    25    83    85   ar
    26    83    81   ar
    27    49    48    1
    28    49    50    1
    29    85    87   ar
    30    46    43    1
    31    32    31    1
    32    79    81   ar
    33    79    78    1
    34    59    58    2
    35    21    22    1
    36    21    20    1
    37    66    63    1
    38    30    22   am
    39    30    31    1
    40    81    84   ar
    41    22    23    2
    42    78    75    1
    43    50    56   am
    44    50    51    2
    45    63    62    1
    46    63    64    1
    47    20    17   am
    48    74    64   am
    49    74    75    1
    50    87    86   ar
    51    58    62   am
    52    58    57    1
    53    56    57    1
    54    43    44    1
    55    43    42    1
    56    64    65    2
    57    75    76    1
    58    84    86   ar
    59    17    18    2
    60    17    16    1
    61    44    45    2
    62    57    60    1
    63    19    16    1
    64    16    15    1
    65    76    77    2
    66     7     5    1
    67     1     2    1
    68    61    60    1
    69     5     2    1
    70     5     6    1
    71    15    10   am
    72     2     3    1
    73    11    10    2
    74     3     4    2
    75    10     9    1
    76    95    93   ar
    77    37    36    2
    78    88    89    1
    79    93    92    1
    80    93    94   ar
    81    36    35    1
    82    92    89    1
    83    13    12    1
    84     9    12    1
    85     9     8    1
    86    89    90    1
    87    12    14    1
    88    35    38    1
    89    35    34    1
    90    90    91    2
    91    38    39    1
    92    39    41   am
    93    39    40    2
