@<TRIPOS>MOLECULE
tmp/4tl3B06.pdb
 103 103 0 0 0
SMALL
GASTEIGER

@<TRIPOS>ATOM
      1  N        -25.4200   36.2360  -40.8250 N.3   116  ASP116     -0.1225
      2  CA       -25.9200   37.3030  -39.9730 C.3   116  ASP116      0.1805
      3  C        -26.5420   36.8010  -38.6770 C.2   116  ASP116      0.2597
      4  O        -26.2760   37.3640  -37.5960 O.2   116  ASP116     -0.2718
      5  CB       -26.9290   38.1730  -40.7290 C.3   116  ASP116      0.1424
      6  CG       -26.2850   39.3900  -41.3970 C.2   116  ASP116      0.3668
      7  OD1      -25.0360   39.4890  -41.4300 O.co2 116  ASP116     -0.2456
      8  OD2      -27.0400   40.2570  -41.8880 O.co2 116  ASP116     -0.2456
      9  N        -27.3600   35.7480  -38.7700 N.am  117  TRP117     -0.1976
     10  CA       -27.9810   35.1880  -37.5650 C.3   117  TRP117      0.1640
     11  C        -26.9410   34.7040  -36.5380 C.2   117  TRP117      0.2290
     12  O        -27.0920   34.9340  -35.3390 O.2   117  TRP117     -0.2864
     13  CB       -29.0710   34.1360  -37.8860 C.3   117  TRP117      0.0576
     14  CG       -28.5860   32.8400  -38.4420 C.ar  117  TRP117      0.0006
     15  CD1      -28.3550   32.5450  -39.7590 C.ar  117  TRP117      0.0946
     16  CD2      -28.2880   31.6430  -37.7030 C.ar  117  TRP117      0.0152
     17  NE1      -27.9160   31.2500  -39.8810 N.ar  117  TRP117     -0.2442
     18  CE2      -27.8720   30.6690  -38.6400 C.ar  117  TRP117      0.0810
     19  CE3      -28.3290   31.3020  -36.3430 C.ar  117  TRP117      0.0012
     20  CZ2      -27.4990   29.3700  -38.2620 C.ar  117  TRP117      0.0191
     21  CZ3      -27.9590   30.0060  -35.9650 C.ar  117  TRP117      0.0001
     22  CH2      -27.5440   29.0590  -36.9260 C.ar  117  TRP117      0.0015
     23  N        -25.1210   37.7900  -34.9440 N.3   120  TYR120     -0.1227
     24  CA       -25.8940   38.4390  -33.8740 C.3   120  TYR120      0.1736
     25  C        -26.0760   37.6390  -32.6000 C.2   120  TYR120      0.2595
     26  O        -26.0620   38.2070  -31.5140 O.2   120  TYR120     -0.2718
     27  CB       -27.2010   39.0830  -34.3790 C.3   120  TYR120      0.0548
     28  CG       -26.9360   40.2060  -35.3670 C.ar  120  TYR120     -0.0200
     29  CD1      -26.1170   41.2730  -35.0200 C.ar  120  TYR120     -0.0009
     30  CD2      -27.4760   40.1830  -36.6550 C.ar  120  TYR120     -0.0009
     31  CE1      -25.8420   42.2950  -35.9160 C.ar  120  TYR120      0.0417
     32  CE2      -27.2180   41.2080  -37.5590 C.ar  120  TYR120      0.0417
     33  CZ       -26.3940   42.2560  -37.1800 C.ar  120  TYR120      0.1957
     34  OH       -26.1090   43.2810  -38.0480 O.3   120  TYR120     -0.2866
     35  N        -26.1890   36.3170  -32.7160 N.am  121  LEU121     -0.1980
     36  CA       -26.1670   35.4580  -31.5240 C.3   121  LEU121      0.1596
     37  C        -24.8590   35.5660  -30.7250 C.2   121  LEU121      0.2287
     38  O        -24.8890   35.6310  -29.4950 O.2   121  LEU121     -0.2864
     39  CB       -26.4880   34.0030  -31.8700 C.3   121  LEU121      0.0297
     40  CG       -27.9420   33.7530  -32.3390 C.3   121  LEU121      0.0022
     41  CD1      -28.1590   32.2850  -32.6530 C.3   121  LEU121      0.0001
     42  CD2      -28.9670   34.2270  -31.3090 C.3   121  LEU121      0.0001
     43  N        -22.8810   38.1960  -30.7840 N.3   123  TYR123     -0.1227
     44  CA       -23.0090   39.5230  -30.2000 C.3   123  TYR123      0.1736
     45  C        -23.8430   39.4790  -28.9140 C.2   123  TYR123      0.2595
     46  O        -23.4360   40.0410  -27.8900 O.2   123  TYR123     -0.2718
     47  CB       -23.6220   40.4960  -31.2150 C.3   123  TYR123      0.0548
     48  CG       -23.8490   41.8960  -30.6690 C.ar  123  TYR123     -0.0200
     49  CD1      -22.8100   42.8390  -30.6440 C.ar  123  TYR123     -0.0009
     50  CD2      -25.1040   42.2770  -30.1730 C.ar  123  TYR123     -0.0009
     51  CE1      -23.0200   44.1260  -30.1570 C.ar  123  TYR123      0.0417
     52  CE2      -25.3180   43.5560  -29.6620 C.ar  123  TYR123      0.0417
     53  CZ       -24.2770   44.4730  -29.6660 C.ar  123  TYR123      0.1957
     54  OH       -24.4960   45.7260  -29.1740 O.3   123  TYR123     -0.2866
     55  N        -25.0000   38.8130  -28.9740 N.am  124  ILE124     -0.1980
     56  CA       -25.8530   38.6540  -27.8000 C.3   124  ILE124      0.1595
     57  C        -25.1180   37.8960  -26.6910 C.2   124  ILE124      0.2287
     58  O        -25.1750   38.3010  -25.5400 O.2   124  ILE124     -0.2864
     59  CB       -27.2020   37.9790  -28.1410 C.3   124  ILE124      0.0276
     60  CG1      -28.0640   38.9240  -28.9850 C.3   124  ILE124      0.0022
     61  CG2      -27.9500   37.6000  -26.8670 C.3   124  ILE124      0.0022
     62  CD1      -29.1610   38.2180  -29.7560 C.3   124  ILE124      0.0001
     63  N        -22.5670   49.3950  -28.3350 N.3   172  ILE172     -0.1245
     64  CA       -23.3420   50.3350  -29.1350 C.3   172  ILE172      0.1561
     65  C        -22.6000   50.7320  -30.4260 C.2   172  ILE172      0.2260
     66  O        -23.1480   50.6320  -31.5370 O.2   172  ILE172     -0.2867
     67  CB       -23.7450   51.5820  -28.3080 C.3   172  ILE172      0.0252
     68  CG1      -24.7190   51.1930  -27.1900 C.3   172  ILE172      0.0019
     69  CG2      -24.3660   52.6600  -29.2010 C.3   172  ILE172      0.0019
     70  CD1      -24.8940   52.2690  -26.1330 C.3   172  ILE172      0.0001
     71  N        -22.3100   47.8390  -32.8770 N.3   175  ILE175     -0.1245
     72  CA       -23.5220   47.4530  -33.5710 C.3   175  ILE175      0.1561
     73  C        -24.0430   48.5040  -34.5480 C.2   175  ILE175      0.2260
     74  O        -24.7160   48.1470  -35.5130 O.2   175  ILE175     -0.2867
     75  CB       -24.6360   46.9820  -32.5990 C.3   175  ILE175      0.0252
     76  CG1      -25.6520   46.1320  -33.3460 C.3   175  ILE175      0.0019
     77  CG2      -25.3520   48.1520  -31.9200 C.3   175  ILE175      0.0019
     78  CD1      -25.4840   44.6530  -33.1420 C.3   175  ILE175      0.0001
     79  N        -25.1690   47.1310  -37.9040 N.3   181  PHE181     -0.1241
     80  CA       -26.2320   47.5890  -38.7990 C.3   181  PHE181      0.1605
     81  C        -25.7440   48.4830  -39.9190 C.2   181  PHE181      0.2264
     82  O        -26.4740   48.7110  -40.8680 O.2   181  PHE181     -0.2867
     83  CB       -27.3380   48.3270  -38.0270 C.3   181  PHE181      0.0534
     84  CG       -27.9040   47.5520  -36.8750 C.ar  181  PHE181     -0.0203
     85  CD1      -28.1600   46.1880  -36.9890 C.ar  181  PHE181     -0.0042
     86  CD2      -28.2010   48.1950  -35.6690 C.ar  181  PHE181     -0.0042
     87  CE1      -28.6850   45.4660  -35.9150 C.ar  181  PHE181     -0.0003
     88  CE2      -28.7310   47.4850  -34.5960 C.ar  181  PHE181     -0.0003
     89  CZ       -28.9710   46.1170  -34.7170 C.ar  181  PHE181     -0.0000
     90  N        -25.0760   51.7920  -39.7120 N.3   183  TRP183     -0.1241
     91  CA       -25.6020   53.1570  -39.6160 C.3   183  TRP183      0.1605
     92  C        -24.5030   54.2160  -39.7610 C.2   183  TRP183      0.2264
     93  O        -24.7810   55.3710  -40.1000 O.2   183  TRP183     -0.2867
     94  CB       -26.3170   53.3530  -38.2860 C.3   183  TRP183      0.0550
     95  CG       -27.5340   52.4900  -38.1180 C.ar  183  TRP183      0.0003
     96  CD1      -28.1500   51.7330  -39.0790 C.ar  183  TRP183      0.0946
     97  CD2      -28.3060   52.3270  -36.9220 C.ar  183  TRP183      0.0152
     98  NE1      -29.2430   51.0910  -38.5460 N.ar  183  TRP183     -0.2442
     99  CE2      -29.3690   51.4440  -37.2280 C.ar  183  TRP183      0.0810
    100  CE3      -28.2010   52.8380  -35.6190 C.ar  183  TRP183      0.0012
    101  CZ2      -30.3290   51.0630  -36.2760 C.ar  183  TRP183      0.0191
    102  CZ3      -29.1550   52.4550  -34.6660 C.ar  183  TRP183      0.0001
    103  CH2      -30.2030   51.5790  -35.0010 C.ar  183  TRP183      0.0015
@<TRIPOS>BOND
     1     8     6   ar
     2     7     6   ar
     3     6     5    1
     4    82    81    2
     5     1     2    1
     6     5     2    1
     7    93    92    2
     8     2     3    1
     9    81    80    1
    10    17    15   ar
    11    17    18   ar
    12    92    91    1
    13    15    14   ar
    14    90    91    1
    15    91    94    1
    16    96    98   ar
    17    96    95   ar
    18    80    83    1
    19    80    79    1
    20     9     3   am
    21     9    10    1
    22     3     4    2
    23    18    20   ar
    24    18    16   ar
    25    98    99   ar
    26    14    13    1
    27    14    16   ar
    28    94    95    1
    29    20    22   ar
    30    95    97   ar
    31    34    33    1
    32    83    84    1
    33    13    10    1
    34    16    19   ar
    35    10    11    1
    36    32    33   ar
    37    32    30   ar
    38    99    97   ar
    39    99   101   ar
    40    33    31   ar
    41    85    84   ar
    42    85    87   ar
    43    22    21   ar
    44    97   100   ar
    45    84    86   ar
    46    30    28   ar
    47    11    12    2
    48    19    21   ar
    49   101   103   ar
    50    31    29   ar
    51    87    89   ar
    52    86    88   ar
    53   100   102   ar
    54    74    73    2
    55    28    29   ar
    56    28    27    1
    57   103   102   ar
    58    23    24    1
    59    89    88   ar
    60    73    72    1
    61    27    24    1
    62    24    25    1
    63    72    71    1
    64    72    75    1
    65    76    78    1
    66    76    75    1
    67    35    25   am
    68    35    36    1
    69    41    40    1
    70    25    26    2
    71    75    77    1
    72    40    39    1
    73    40    42    1
    74    39    36    1
    75    66    65    2
    76    36    37    1
    77    47    48    1
    78    47    44    1
    79    43    44    1
    80    37    38    2
    81    48    49   ar
    82    48    50   ar
    83    49    51   ar
    84    65    64    1
    85    44    45    1
    86    50    52   ar
    87    51    53   ar
    88    62    60    1
    89    53    52   ar
    90    53    54    1
    91    69    67    1
    92    64    63    1
    93    64    67    1
    94    60    59    1
    95    55    45   am
    96    55    56    1
    97    45    46    2
    98    67    68    1
    99    59    56    1
   100    59    61    1
   101    56    57    1
   102    68    70    1
   103    57    58    2
