@<TRIPOS>MOLECULE
tmp/4tl3B11.pdb
 97 93 0 0 0
SMALL
GASTEIGER

@<TRIPOS>ATOM
      1  N          0.0570   48.4160  -13.6850 N.3    39  VAL39      -0.1245
      2  CA        -1.0960   48.0470  -14.5040 C.3    39  VAL39       0.1561
      3  C         -1.6550   49.2730  -15.2220 C.2    39  VAL39       0.2260
      4  O         -1.9740   49.1990  -16.4090 O.2    39  VAL39      -0.2867
      5  CB        -2.1700   47.2890  -13.6770 C.3    39  VAL39       0.0252
      6  CG1       -3.5180   47.2680  -14.3750 C.3    39  VAL39       0.0019
      7  CG2       -1.7100   45.8620  -13.4340 C.3    39  VAL39       0.0019
      8  N         -8.3950   42.2050  -25.6970 N.3    68  MET68      -0.1230
      9  CA        -8.1080   40.9130  -25.0540 C.3    68  MET68       0.1702
     10  C         -7.2990   41.0570  -23.7800 C.2    68  MET68       0.2592
     11  O         -7.4600   40.2770  -22.8360 O.2    68  MET68      -0.2718
     12  CB        -7.3800   39.9720  -26.0200 C.3    68  MET68       0.0401
     13  CG        -8.2960   39.3330  -27.0610 C.3    68  MET68       0.0596
     14  SD        -9.5070   38.1690  -26.3680 S.3    68  MET68      -0.1393
     15  CE        -8.4420   36.8620  -25.7360 C.3    68  MET68       0.0692
     16  N         -6.4380   42.0660  -23.7490 N.am   69  VAL69      -0.1980
     17  CA        -5.5300   42.2560  -22.6310 C.3    69  VAL69       0.1595
     18  C         -5.9770   43.4120  -21.7620 C.2    69  VAL69       0.2287
     19  O         -6.0020   43.2870  -20.5290 O.2    69  VAL69      -0.2864
     20  CB        -4.0800   42.4930  -23.1060 C.3    69  VAL69       0.0276
     21  CG1       -3.2040   42.9780  -21.9550 C.3    69  VAL69       0.0022
     22  CG2       -3.5060   41.2160  -23.6950 C.3    69  VAL69       0.0022
     23  N         -9.6020   43.0450  -19.2210 N.3    72  PRO72      -0.2102
     24  CA        -9.4300   42.4090  -17.9020 C.3    72  PRO72       0.1504
     25  C         -8.4790   43.1590  -16.9630 C.2    72  PRO72       0.2575
     26  O         -8.7300   43.1860  -15.7490 O.2    72  PRO72      -0.2718
     27  CB        -8.8750   41.0090  -18.2270 C.3    72  PRO72       0.0282
     28  CG        -8.4350   41.0520  -19.6480 C.3    72  PRO72       0.0208
     29  CD        -9.2040   42.1510  -20.3300 C.3    72  PRO72       0.0893
     30  N         -7.4150   43.7690  -17.5030 N.am   73  LEU73      -0.1980
     31  CA        -6.5150   44.5870  -16.6810 C.3    73  LEU73       0.1596
     32  C         -7.2540   45.7830  -16.0980 C.2    73  LEU73       0.2287
     33  O         -7.0510   46.1420  -14.9430 O.2    73  LEU73      -0.2864
     34  CB        -5.2740   45.0410  -17.4580 C.3    73  LEU73       0.0297
     35  CG        -4.2230   43.9570  -17.7600 C.3    73  LEU73       0.0022
     36  CD1       -3.0390   44.5720  -18.5000 C.3    73  LEU73       0.0001
     37  CD2       -3.7450   43.2500  -16.4900 C.3    73  LEU73       0.0001
     38  N         -9.1780   44.4050  -13.2720 N.3    76  LEU76      -0.1245
     39  CA        -8.1820   44.2380  -12.2120 C.3    76  LEU76       0.1561
     40  C         -7.9800   45.5470  -11.4320 C.2    76  LEU76       0.2260
     41  O         -8.1110   45.5800  -10.2000 O.2    76  LEU76      -0.2867
     42  CB        -6.8470   43.7320  -12.7890 C.3    76  LEU76       0.0270
     43  CG        -5.7000   43.4520  -11.7980 C.3    76  LEU76       0.0019
     44  CD1       -6.1030   42.3860  -10.7810 C.3    76  LEU76       0.0001
     45  CD2       -4.4120   43.0440  -12.5200 C.3    76  LEU76       0.0001
     46  N         -8.9220   46.1180   -7.6480 N.3    80  TRP80      -0.1241
     47  CA        -7.9600   46.5660   -6.6430 C.3    80  TRP80       0.1605
     48  C         -8.5020   47.7750   -5.8690 C.2    80  TRP80       0.2264
     49  O         -8.4470   47.8100   -4.6340 O.2    80  TRP80      -0.2867
     50  CB        -6.5930   46.8950   -7.2640 C.3    80  TRP80       0.0550
     51  CG        -5.7150   45.6990   -7.4770 C.ar   80  TRP80       0.0003
     52  CD1       -5.7610   44.5080   -6.7890 C.ar   80  TRP80       0.0946
     53  CD2       -4.6410   45.5750   -8.4170 C.ar   80  TRP80       0.0152
     54  NE1       -4.8000   43.6530   -7.2550 N.ar   80  TRP80      -0.2442
     55  CE2       -4.0910   44.2760   -8.2520 C.ar   80  TRP80       0.0810
     56  CE3       -4.1010   46.4230   -9.3980 C.ar   80  TRP80       0.0012
     57  CZ2       -3.0190   43.8040   -9.0310 C.ar   80  TRP80       0.0191
     58  CZ3       -3.0200   45.9680  -10.1580 C.ar   80  TRP80       0.0001
     59  CH2       -2.4930   44.6620   -9.9700 C.ar   80  TRP80       0.0015
     60  N         -9.1150   37.1160   -4.7710 N.3    90  TRP90      -0.1241
     61  CA        -8.5400   36.7760   -6.0760 C.3    90  TRP90       0.1605
     62  C         -9.4520   35.9810   -7.0020 C.2    90  TRP90       0.2264
     63  O         -9.3600   36.1030   -8.2220 O.2    90  TRP90      -0.2867
     64  CB        -7.1690   36.1060   -5.9330 C.3    90  TRP90       0.0550
     65  CG        -6.0780   37.1080   -5.6410 C.ar   90  TRP90       0.0003
     66  CD1       -5.4940   37.3560   -4.4270 C.ar   90  TRP90       0.0946
     67  CD2       -5.4590   38.0090   -6.5720 C.ar   90  TRP90       0.0152
     68  NE1       -4.5440   38.3450   -4.5460 N.ar   90  TRP90      -0.2442
     69  CE2       -4.4980   38.7640   -5.8490 C.ar   90  TRP90       0.0810
     70  CE3       -5.6140   38.2450   -7.9430 C.ar   90  TRP90       0.0012
     71  CZ2       -3.7020   39.7420   -6.4500 C.ar   90  TRP90       0.0191
     72  CZ3       -4.8250   39.2130   -8.5400 C.ar   90  TRP90       0.0001
     73  CH2       -3.8740   39.9500   -7.7950 C.ar   90  TRP90       0.0015
     74  N        -11.7760   38.5250   -8.5340 N.3    93  ILE93      -0.1245
     75  CA       -10.9640   39.1690   -9.5510 C.3    93  ILE93       0.1561
     76  C        -10.8730   38.2640  -10.7930 C.2    93  ILE93       0.2260
     77  O        -11.1590   38.7020  -11.9240 O.2    93  ILE93      -0.2867
     78  CB        -9.5520   39.4840   -9.0090 C.3    93  ILE93       0.0252
     79  CG1       -9.6060   40.5840   -7.9360 C.3    93  ILE93       0.0019
     80  CG2       -8.5990   39.8620  -10.1400 C.3    93  ILE93       0.0019
     81  CD1       -8.3150   40.7410   -7.1370 C.3    93  ILE93       0.0001
     82  N        -12.2750   38.8740  -14.5990 N.3    97  MET97      -0.1245
     83  CA       -11.2940   38.9320  -15.6860 C.3    97  MET97       0.1570
     84  C        -11.5990   37.9560  -16.8070 C.2    97  MET97       0.2261
     85  O        -11.6040   38.3420  -17.9790 O.2    97  MET97      -0.2867
     86  CB        -9.8510   38.7610  -15.1710 C.3    97  MET97       0.0387
     87  CG        -9.3950   39.9410  -14.3290 C.3    97  MET97       0.0595
     88  SD        -7.7310   39.7290  -13.6720 S.3    97  MET97      -0.1393
     89  CE        -6.7810   40.0670  -15.1560 C.3    97  MET97       0.0692
     90  N        -12.9750   38.4620  -20.8080 N.3   101  ILE101     -0.1245
     91  CA       -12.3600   37.8660  -21.9900 C.3   101  ILE101      0.1561
     92  C        -13.4000   37.1690  -22.9020 C.2   101  ILE101      0.2260
     93  O        -13.2930   37.2580  -24.1290 O.2   101  ILE101     -0.2867
     94  CB       -11.1690   36.9620  -21.6170 C.3   101  ILE101      0.0252
     95  CG1      -10.0370   37.8310  -21.0360 C.3   101  ILE101      0.0019
     96  CG2      -10.6610   36.2140  -22.8430 C.3   101  ILE101      0.0019
     97  CD1       -9.0010   37.0830  -20.2050 C.3   101  ILE101      0.0001
@<TRIPOS>BOND
     1    13    14    1
     2    13    12    1
     3    14    15    1
     4    12     9    1
     5     8     9    1
     6     9    10    1
     7    93    92    2
     8    10    16   am
     9    10    11    2
    10    16    17    1
    11    22    20    1
    12    20    17    1
    13    20    21    1
    14    92    91    1
    15    96    94    1
    16    17    18    1
    17    91    94    1
    18    91    90    1
    19    18    19    2
    20    94    95    1
    21    95    97    1
    22    29    28    1
    23    29    23    1
    24    28    27    1
    25    23    24    1
    26    36    35    1
    27    27    24    1
    28    85    84    2
    29    24    25    1
    30    35    34    1
    31    35    37    1
    32    30    25   am
    33    30    31    1
    34    34    31    1
    35    25    26    2
    36    84    83    1
    37    31    32    1
    38     4     3    2
    39    32    33    2
    40    83    86    1
    41    83    82    1
    42     3     2    1
    43    86    87    1
    44    89    88    1
    45     2     1    1
    46     2     5    1
    47     6     5    1
    48    87    88    1
    49     5     7    1
    50    38    39    1
    51    42    39    1
    52    42    43    1
    53    45    43    1
    54    39    40    1
    55    77    76    2
    56    43    44    1
    57    40    41    2
    58    76    75    1
    59    58    59   ar
    60    58    56   ar
    61    80    78    1
    62    59    57   ar
    63    75    78    1
    64    75    74    1
    65    56    53   ar
    66    57    55   ar
    67    78    79    1
    68    72    70   ar
    69    72    73   ar
    70    53    55   ar
    71    53    51   ar
    72    55    54   ar
    73    63    62    2
    74    70    67   ar
    75    79    81    1
    76    73    71   ar
    77    46    47    1
    78    51    50    1
    79    51    52   ar
    80    50    47    1
    81    54    52   ar
    82    62    61    1
    83    47    48    1
    84    67    69   ar
    85    67    65   ar
    86    71    69   ar
    87    61    64    1
    88    61    60    1
    89    64    65    1
    90    48    49    2
    91    69    68   ar
    92    65    66   ar
    93    68    66   ar
