@<TRIPOS>MOLECULE
tmp/4tl3B04.pdb
 113 105 0 0 0
SMALL
GASTEIGER

@<TRIPOS>ATOM
      1  N        -17.9850   56.6120   -7.9120 N.3   158  LYS158     -0.1245
      2  CA       -17.5980   57.5260   -8.9700 C.3   158  LYS158      0.1561
      3  C        -16.8630   56.7770  -10.0870 C.2   158  LYS158      0.2260
      4  O        -17.1340   56.9830  -11.2620 O.2   158  LYS158     -0.2867
      5  CB       -16.7140   58.6250   -8.3750 C.3   158  LYS158      0.0271
      6  CG       -16.2170   59.6870   -9.3430 C.3   158  LYS158      0.0035
      7  CD       -15.0100   60.4310   -8.7750 C.3   158  LYS158      0.0206
      8  CE       -14.5050   61.5140   -9.7220 C.3   158  LYS158      0.1093
      9  NZ       -15.5370   62.5610   -9.9670 N.3   158  LYS158     -0.1314
     10  N        -19.1790   54.1220  -11.9170 N.3   161  THR161     -0.1203
     11  CA       -20.1260   54.8600  -12.7390 C.3   161  THR161      0.1994
     12  C        -19.4520   55.2930  -14.0390 C.2   161  THR161      0.2617
     13  O        -19.9500   55.0360  -15.1310 O.2   161  THR161     -0.2717
     14  CB       -20.6690   56.0880  -11.9620 C.3   161  THR161      0.1784
     15  OG1      -21.4320   55.6340  -10.8300 O.3   161  THR161     -0.2211
     16  CG2      -21.5360   56.9780  -12.8520 C.3   161  THR161      0.0376
     17  N        -18.3040   55.9410  -13.9160 N.am  162  TYR162     -0.1975
     18  CA       -17.5290   56.3370  -15.0800 C.3   162  TYR162      0.1639
     19  C        -17.1690   55.1080  -15.9470 C.2   162  TYR162      0.2290
     20  O        -17.3320   55.1140  -17.1660 O.2   162  TYR162     -0.2864
     21  CB       -16.2900   57.0900  -14.6040 C.3   162  TYR162      0.0560
     22  CG       -15.3740   57.6160  -15.6900 C.ar  162  TYR162     -0.0198
     23  CD1      -14.4120   56.7930  -16.2730 C.ar  162  TYR162     -0.0009
     24  CD2      -15.4320   58.9580  -16.0910 C.ar  162  TYR162     -0.0009
     25  CE1      -13.5480   57.2760  -17.2410 C.ar  162  TYR162      0.0417
     26  CE2      -14.5770   59.4460  -17.0650 C.ar  162  TYR162      0.0417
     27  CZ       -13.6350   58.5980  -17.6350 C.ar  162  TYR162      0.1957
     28  OH       -12.7640   59.0690  -18.5950 O.3   162  TYR162     -0.2866
     29  N        -20.4150   53.7380  -17.8250 N.3   165  VAL165     -0.1231
     30  CA       -20.9040   54.5830  -18.9110 C.3   165  VAL165      0.1692
     31  C        -20.0930   54.3190  -20.1850 C.2   165  VAL165      0.2591
     32  O        -20.6650   54.1040  -21.2720 O.2   165  VAL165     -0.2718
     33  CB       -20.9090   56.0880  -18.5070 C.3   165  VAL165      0.0266
     34  CG1      -21.0530   57.0000  -19.7190 C.3   165  VAL165      0.0020
     35  CG2      -22.0150   56.3690  -17.4810 C.3   165  VAL165      0.0020
     36  N        -18.7670   54.3060  -20.0410 N.am  166  LEU166     -0.1980
     37  CA       -17.8770   54.1000  -21.1790 C.3   166  LEU166      0.1596
     38  C        -17.9890   52.7160  -21.7680 C.2   166  LEU166      0.2287
     39  O        -18.0190   52.5650  -22.9860 O.2   166  LEU166     -0.2864
     40  CB       -16.4230   54.3650  -20.7980 C.3   166  LEU166      0.0297
     41  CG       -16.1010   55.8230  -20.5080 C.3   166  LEU166      0.0022
     42  CD1      -14.6110   55.9100  -20.2470 C.3   166  LEU166      0.0001
     43  CD2      -16.4950   56.7080  -21.6780 C.3   166  LEU166      0.0001
     44  N        -20.6810   52.0190  -24.0710 N.3   169  GLY169     -0.1225
     45  CA       -20.4010   52.5880  -25.3910 C.3   169  GLY169      0.1811
     46  C        -19.9200   51.5980  -26.4520 C.2   169  GLY169      0.2280
     47  O        -20.2660   51.7330  -27.6450 O.2   169  GLY169     -0.2866
     48  N        -22.5670   49.3950  -28.3350 N.3   172  ILE172     -0.1231
     49  CA       -23.3420   50.3350  -29.1350 C.3   172  ILE172      0.1692
     50  C        -22.6000   50.7320  -30.4260 C.2   172  ILE172      0.2591
     51  O        -23.1480   50.6320  -31.5370 O.2   172  ILE172     -0.2718
     52  CB       -23.7450   51.5820  -28.3080 C.3   172  ILE172      0.0266
     53  CG1      -24.7190   51.1930  -27.1900 C.3   172  ILE172      0.0019
     54  CG2      -24.3660   52.6600  -29.2010 C.3   172  ILE172      0.0020
     55  CD1      -24.8940   52.2690  -26.1330 C.3   172  ILE172      0.0001
     56  N        -21.3540   51.1700  -30.2830 N.am  173  VAL173     -0.1980
     57  CA       -20.5700   51.6170  -31.4230 C.3   173  VAL173      0.1595
     58  C        -20.3490   50.4500  -32.3920 C.2   173  VAL173      0.2287
     59  O        -20.4570   50.6200  -33.6160 O.2   173  VAL173     -0.2864
     60  CB       -19.2300   52.2390  -30.9630 C.3   173  VAL173      0.0276
     61  CG1      -18.2890   52.4550  -32.1310 C.3   173  VAL173      0.0022
     62  CG2      -19.4780   53.5610  -30.2380 C.3   173  VAL173      0.0022
     63  N        -23.7380   49.7840  -34.3160 N.3   176  ILE176     -0.1245
     64  CA       -24.1790   50.8410  -35.2490 C.3   176  ILE176      0.1561
     65  C        -23.2430   50.9640  -36.4570 C.2   176  ILE176      0.2260
     66  O        -23.6260   51.5240  -37.5060 O.2   176  ILE176     -0.2867
     67  CB       -24.3910   52.2230  -34.5700 C.3   176  ILE176      0.0252
     68  CG1      -23.0630   52.8170  -34.0710 C.3   176  ILE176      0.0019
     69  CG2      -25.4510   52.1340  -33.4680 C.3   176  ILE176      0.0019
     70  CD1      -23.1570   54.2560  -33.5930 C.3   176  ILE176      0.0001
     71  N        -14.8310   56.9520  -33.2290 N.3   192  LEU192     -0.1245
     72  CA       -15.4530   56.6080  -31.9570 C.3   192  LEU192      0.1561
     73  C        -14.6320   55.5630  -31.1940 C.2   192  LEU192      0.2260
     74  O        -14.5520   55.6000  -29.9670 O.2   192  LEU192     -0.2867
     75  CB       -16.8610   56.0700  -32.1920 C.3   192  LEU192      0.0270
     76  CG       -17.8530   57.0150  -32.8610 C.3   192  LEU192      0.0019
     77  CD1      -19.1830   56.3070  -33.0870 C.3   192  LEU192      0.0001
     78  CD2      -18.0190   58.2570  -31.9880 C.3   192  LEU192      0.0001
     79  N        -11.8360   57.6500  -29.5390 N.3   195  LEU195     -0.1231
     80  CA       -12.2560   58.5760  -28.5080 C.3   195  LEU195      0.1693
     81  C        -12.6760   57.8090  -27.2630 C.2   195  LEU195      0.2591
     82  O        -12.2750   58.1460  -26.1580 O.2   195  LEU195     -0.2718
     83  CB       -13.4080   59.4420  -29.0270 C.3   195  LEU195      0.0284
     84  CG       -13.6620   60.7900  -28.3500 C.3   195  LEU195      0.0019
     85  CD1      -12.4590   61.7240  -28.4790 C.3   195  LEU195      0.0001
     86  CD2      -14.9160   61.4340  -28.9340 C.3   195  LEU195      0.0001
     87  N        -13.4720   56.7640  -27.4590 N.am  196  LEU196     -0.1980
     88  CA       -13.9630   55.9250  -26.3680 C.3   196  LEU196      0.1596
     89  C        -12.8330   55.2450  -25.5670 C.2   196  LEU196      0.2287
     90  O        -12.7840   55.3700  -24.3390 O.2   196  LEU196     -0.2864
     91  CB       -14.9390   54.8940  -26.9230 C.3   196  LEU196      0.0297
     92  CG       -16.1110   54.3630  -26.1040 C.3   196  LEU196      0.0022
     93  CD1      -16.9560   55.4710  -25.5000 C.3   196  LEU196      0.0001
     94  CD2      -16.9570   53.4810  -27.0100 C.3   196  LEU196      0.0001
     95  N        -10.7240   57.5720  -23.1950 N.3   199  PHE199     -0.1241
     96  CA       -11.3510   57.8200  -21.9020 C.3   199  PHE199      0.1605
     97  C        -11.3490   56.6040  -20.9720 C.2   199  PHE199      0.2264
     98  O        -11.2330   56.7560  -19.7560 O.2   199  PHE199     -0.2867
     99  CB       -12.7410   58.4420  -22.0660 C.3   199  PHE199      0.0534
    100  CG       -12.6960   59.8360  -22.6190 C.ar  199  PHE199     -0.0203
    101  CD1      -12.4010   60.9180  -21.7900 C.ar  199  PHE199     -0.0042
    102  CD2      -12.9090   60.0710  -23.9750 C.ar  199  PHE199     -0.0042
    103  CE1      -12.3410   62.2120  -22.2980 C.ar  199  PHE199     -0.0003
    104  CE2      -12.8490   61.3520  -24.4920 C.ar  199  PHE199     -0.0003
    105  CZ       -12.5610   62.4270  -23.6530 C.ar  199  PHE199     -0.0000
    106  N         -8.4450   59.0110  -13.1340 N.3   207  LEU207     -0.1245
    107  CA        -9.3640   59.2150  -12.0070 C.3   207  LEU207      0.1561
    108  C         -9.0970   58.2250  -10.8750 C.2   207  LEU207      0.2260
    109  O         -9.1940   58.5590   -9.6960 O.2   207  LEU207     -0.2867
    110  CB       -10.8180   59.1150  -12.4730 C.3   207  LEU207      0.0270
    111  CG       -11.3680   60.2400  -13.3610 C.3   207  LEU207      0.0019
    112  CD1      -12.7550   59.8740  -13.8400 C.3   207  LEU207      0.0001
    113  CD2      -11.3990   61.5870  -12.6230 C.3   207  LEU207      0.0001
@<TRIPOS>BOND
     1    66    65    2
     2    65    64    1
     3    64    67    1
     4    64    63    1
     5    67    68    1
     6    67    69    1
     7    68    70    1
     8    59    58    2
     9    71    72    1
    10    77    76    1
    11    76    75    1
    12    76    78    1
    13    58    57    1
    14    75    72    1
    15    61    60    1
    16    72    73    1
    17    51    50    2
    18    57    60    1
    19    57    56    1
    20    73    74    2
    21    60    62    1
    22    50    56   am
    23    50    49    1
    24    79    80    1
    25    54    52    1
    26    49    48    1
    27    49    52    1
    28    83    80    1
    29    83    84    1
    30    86    84    1
    31    80    81    1
    32    85    84    1
    33    52    53    1
    34    47    46    2
    35    87    81   am
    36    87    88    1
    37    81    82    2
    38    53    55    1
    39    94    92    1
    40    91    88    1
    41    91    92    1
    42    46    45    1
    43    88    89    1
    44    92    93    1
    45    89    90    2
    46    45    44    1
    47   104   102   ar
    48   104   105   ar
    49   102   100   ar
    50   105   103   ar
    51    95    96    1
    52    39    38    2
    53   100    99    1
    54   100   101   ar
    55   103   101   ar
    56    99    96    1
    57    96    97    1
    58    38    37    1
    59    43    41    1
    60    32    31    2
    61    37    40    1
    62    37    36    1
    63    97    98    2
    64    40    41    1
    65    41    42    1
    66    31    36   am
    67    31    30    1
    68    34    33    1
    69    30    33    1
    70    30    29    1
    71    28    27    1
    72    33    35    1
    73    27    25   ar
    74    27    26   ar
    75    25    23   ar
    76    20    19    2
    77    26    24   ar
    78    23    22   ar
    79    24    22   ar
    80    19    18    1
    81    22    21    1
    82    13    12    2
    83    18    21    1
    84    18    17    1
    85    12    17   am
    86    12    11    1
    87   112   111    1
    88   111   113    1
    89   111   110    1
    90   106   107    1
    91    16    14    1
    92    11    14    1
    93    11    10    1
    94   110   107    1
    95   107   108    1
    96    14    15    1
    97     4     3    2
    98   108   109    2
    99     3     2    1
   100     9     8    1
   101     8     7    1
   102     6     7    1
   103     6     5    1
   104     2     5    1
   105     2     1    1
