@<TRIPOS>MOLECULE
tmp/4tl3A09.pdb
 85 82 0 0 0
SMALL
GASTEIGER

@<TRIPOS>ATOM
      1  N        -27.7840   18.3900  -24.1050 N.3    46  TRP46      -0.1241
      2  CA       -27.2300   19.4740  -24.9190 C.3    46  TRP46       0.1605
      3  C        -26.2930   18.9240  -25.9950 C.2    46  TRP46       0.2264
      4  O        -26.4360   19.2520  -27.1830 O.2    46  TRP46      -0.2867
      5  CB       -26.5040   20.5180  -24.0530 C.3    46  TRP46       0.0550
      6  CG       -26.1000   21.7330  -24.8520 C.ar   46  TRP46       0.0003
      7  CD1      -24.9000   21.9480  -25.4660 C.ar   46  TRP46       0.0946
      8  CD2      -26.9250   22.8610  -25.1750 C.ar   46  TRP46       0.0152
      9  NE1      -24.9170   23.1480  -26.1310 N.ar   46  TRP46      -0.2442
     10  CE2      -26.1470   23.7290  -25.9750 C.ar   46  TRP46       0.0810
     11  CE3      -28.2470   23.2230  -24.8620 C.ar   46  TRP46       0.0012
     12  CZ2      -26.6360   24.9480  -26.4580 C.ar   46  TRP46       0.0191
     13  CZ3      -28.7330   24.4340  -25.3360 C.ar   46  TRP46       0.0001
     14  CH2      -27.9280   25.2810  -26.1370 C.ar   46  TRP46       0.0015
     15  N        -19.1810   22.9630  -36.8270 N.3    60  TYR60      -0.1227
     16  CA       -19.4470   24.1370  -35.9930 C.3    60  TYR60       0.1736
     17  C        -20.1570   23.7940  -34.6910 C.2    60  TYR60       0.2595
     18  O        -19.7670   24.2800  -33.6290 O.2    60  TYR60      -0.2718
     19  CB       -20.3010   25.1650  -36.7570 C.3    60  TYR60       0.0548
     20  CG       -20.1570   26.5870  -36.2430 C.ar   60  TYR60      -0.0200
     21  CD1      -20.9610   27.0660  -35.2150 C.ar   60  TYR60      -0.0009
     22  CD2      -19.2240   27.4580  -36.8060 C.ar   60  TYR60      -0.0009
     23  CE1      -20.8330   28.3750  -34.7550 C.ar   60  TYR60       0.0417
     24  CE2      -19.0910   28.7620  -36.3650 C.ar   60  TYR60       0.0417
     25  CZ       -19.8940   29.2150  -35.3340 C.ar   60  TYR60       0.1957
     26  OH       -19.7660   30.5060  -34.8900 O.3    60  TYR60      -0.2866
     27  N        -21.2170   22.9800  -34.7960 N.am   61  ALA61      -0.1980
     28  CA       -22.0750   22.6350  -33.6590 C.3    61  ALA61       0.1597
     29  C        -21.2960   21.9350  -32.5280 C.2    61  ALA61       0.2287
     30  O        -21.7260   21.9200  -31.3700 O.2    61  ALA61      -0.2864
     31  CB       -23.2330   21.7800  -34.1250 C.3    61  ALA61       0.0319
     32  N        -20.4900   24.6610  -30.1450 N.3    64  ILE64      -0.1245
     33  CA       -21.6670   25.1810  -29.4480 C.3    64  ILE64       0.1561
     34  C        -22.0540   24.2300  -28.3340 C.2    64  ILE64       0.2260
     35  O        -22.4850   24.6710  -27.2570 O.2    64  ILE64      -0.2867
     36  CB       -22.8610   25.4610  -30.4000 C.3    64  ILE64       0.0252
     37  CG1      -22.4030   26.2870  -31.6220 C.3    64  ILE64       0.0019
     38  CG2      -23.9980   26.1650  -29.6560 C.3    64  ILE64       0.0019
     39  CD1      -21.7790   27.6410  -31.3050 C.3    64  ILE64       0.0001
     40  N        -19.2880   25.0440  -25.6800 N.3    67  MET67      -0.1230
     41  CA       -19.6260   26.3300  -25.0490 C.3    67  MET67       0.1702
     42  C        -20.4690   26.1670  -23.7940 C.2    67  MET67       0.2592
     43  O        -20.3270   26.9310  -22.8320 O.2    67  MET67      -0.2718
     44  CB       -20.3370   27.2560  -26.0390 C.3    67  MET67       0.0401
     45  CG       -19.4120   27.9190  -27.0570 C.3    67  MET67       0.0596
     46  SD       -18.2360   29.1060  -26.3500 S.3    67  MET67      -0.1393
     47  CE       -19.3430   30.3860  -25.7530 C.3    67  MET67       0.0692
     48  N        -21.3250   25.1520  -23.8020 N.am   68  VAL68      -0.1980
     49  CA       -22.2310   24.9050  -22.6990 C.3    68  VAL68       0.1595
     50  C        -21.7610   23.7560  -21.7850 C.2    68  VAL68       0.2287
     51  O        -21.7220   23.9040  -20.5680 O.2    68  VAL68      -0.2864
     52  CB       -23.6660   24.6520  -23.2350 C.3    68  VAL68       0.0276
     53  CG1      -24.6110   24.2640  -22.1100 C.3    68  VAL68       0.0022
     54  CG2      -24.1860   25.9000  -23.9520 C.3    68  VAL68       0.0022
     55  N        -18.2470   24.1230  -19.2450 N.3    71  PRO71      -0.2102
     56  CA       -18.4150   24.8080  -17.9450 C.3    71  PRO71       0.1504
     57  C        -19.3650   24.0730  -17.0030 C.2    71  PRO71       0.2575
     58  O        -19.1340   24.0710  -15.7830 O.2    71  PRO71      -0.2718
     59  CB       -18.9930   26.1920  -18.3120 C.3    71  PRO71       0.0282
     60  CG       -19.4060   26.1220  -19.7430 C.3    71  PRO71       0.0208
     61  CD       -18.6710   24.9680  -20.3860 C.3    71  PRO71       0.0893
     62  N        -20.4050   23.4390  -17.5510 N.am   72  LEU72      -0.1980
     63  CA       -21.2930   22.6160  -16.7310 C.3    72  LEU72       0.1596
     64  C        -20.5520   21.4240  -16.1180 C.2    72  LEU72       0.2287
     65  O        -20.7650   21.0740  -14.9670 O.2    72  LEU72      -0.2864
     66  CB       -22.5170   22.1450  -17.5220 C.3    72  LEU72       0.0297
     67  CG       -23.5700   23.2110  -17.8390 C.3    72  LEU72       0.0022
     68  CD1      -24.6870   22.6160  -18.6840 C.3    72  LEU72       0.0001
     69  CD2      -24.1410   23.8920  -16.5870 C.3    72  LEU72       0.0001
     70  N        -15.6250   28.3850  -14.6300 N.3    96  MET96      -0.1245
     71  CA       -16.5930   28.3120  -15.7120 C.3    96  MET96       0.1570
     72  C        -16.2710   29.2650  -16.8470 C.2    96  MET96       0.2261
     73  O        -16.2910   28.8700  -18.0160 O.2    96  MET96      -0.2867
     74  CB       -18.0150   28.5210  -15.1930 C.3    96  MET96       0.0387
     75  CG       -18.4990   27.3290  -14.3780 C.3    96  MET96       0.0595
     76  SD       -20.1900   27.5270  -13.7890 S.3    96  MET96      -0.1393
     77  CE       -21.1180   27.2770  -15.3050 C.3    96  MET96       0.0692
     78  N        -14.8090   28.8040  -20.7950 N.3   100  ILE100     -0.1245
     79  CA       -15.4200   29.3230  -22.0070 C.3   100  ILE100      0.1561
     80  C        -14.3750   30.0060  -22.8970 C.2   100  ILE100      0.2260
     81  O        -14.4510   29.9180  -24.1220 O.2   100  ILE100     -0.2867
     82  CB       -16.6100   30.2430  -21.6810 C.3   100  ILE100      0.0252
     83  CG1      -17.7490   29.4100  -21.0830 C.3   100  ILE100      0.0019
     84  CG2      -17.0980   30.9510  -22.9330 C.3   100  ILE100      0.0019
     85  CD1      -18.6350   30.1910  -20.1340 C.3   100  ILE100      0.0001
@<TRIPOS>BOND
     1    15    16    1
     2    22    24   ar
     3    22    20   ar
     4    19    20    1
     5    19    16    1
     6    24    25   ar
     7    20    21   ar
     8    16    17    1
     9    25    26    1
    10    25    23   ar
    11    21    23   ar
    12    27    17   am
    13    27    28    1
    14    17    18    2
    15    31    28    1
    16    28    29    1
    17    29    30    2
    18    37    39    1
    19    37    36    1
    20    36    38    1
    21    36    33    1
    22    32    33    1
    23    33    34    1
    24    34    35    2
    25     4     3    2
    26    45    46    1
    27    45    44    1
    28    12    14   ar
    29    12    10   ar
    30    46    47    1
    31    14    13   ar
    32     9    10   ar
    33     9     7   ar
    34    44    41    1
    35     3     2    1
    36    10     8   ar
    37    40    41    1
    38     7     6   ar
    39    13    11   ar
    40     8    11   ar
    41     8     6   ar
    42    41    42    1
    43     2     1    1
    44     2     5    1
    45     6     5    1
    46    81    80    2
    47    54    52    1
    48    48    42   am
    49    48    49    1
    50    42    43    2
    51    52    49    1
    52    52    53    1
    53    84    82    1
    54    80    79    1
    55    49    50    1
    56    79    82    1
    57    79    78    1
    58    50    51    2
    59    82    83    1
    60    83    85    1
    61    61    60    1
    62    61    55    1
    63    60    59    1
    64    55    56    1
    65    68    67    1
    66    59    56    1
    67    73    72    2
    68    56    57    1
    69    67    66    1
    70    67    69    1
    71    62    57   am
    72    62    63    1
    73    66    63    1
    74    57    58    2
    75    72    71    1
    76    63    64    1
    77    64    65    2
    78    71    74    1
    79    71    70    1
    80    77    76    1
    81    74    75    1
    82    75    76    1
