@<TRIPOS>MOLECULE
tmp/4tl3A12.pdb
 100 94 0 0 0
SMALL
GASTEIGER

@<TRIPOS>ATOM
      1  N        -25.3420   10.0480  -30.3720 N.3    12  VAL12      -0.1245
      2  CA       -26.6550   10.5330  -29.8900 C.3    12  VAL12       0.1561
      3  C        -27.3320    9.4800  -29.0020 C.2    12  VAL12       0.2260
      4  O        -27.8150    9.7900  -27.9150 O.2    12  VAL12      -0.2867
      5  CB       -27.5830   11.0070  -31.0480 C.3    12  VAL12       0.0252
      6  CG1      -29.0090   11.2560  -30.5700 C.3    12  VAL12       0.0019
      7  CG2      -27.0460   12.2840  -31.6870 C.3    12  VAL12       0.0019
      8  N        -25.5070    9.2880  -25.6770 N.3    15  MET15      -0.1230
      9  CA       -25.9170   10.4100  -24.8410 C.3    15  MET15       0.1702
     10  C        -27.3020   10.1590  -24.2480 C.2    15  MET15       0.2593
     11  O        -27.5370   10.4110  -23.0630 O.2    15  MET15      -0.2718
     12  CB       -25.9500   11.7100  -25.6490 C.3    15  MET15       0.0401
     13  CG       -24.6040   12.2400  -26.1320 C.3    15  MET15       0.0596
     14  SD       -23.4720   12.7400  -24.8190 S.3    15  MET15      -0.1393
     15  CE       -22.3980   11.3060  -24.6870 C.3    15  MET15       0.0692
     16  N        -28.2110    9.6620  -25.0820 N.am   16  THR16      -0.1953
     17  CA       -29.5910    9.4000  -24.6660 C.3    16  THR16       0.1897
     18  C        -29.6600    8.3890  -23.5180 C.2    16  THR16       0.2313
     19  O        -30.3650    8.6210  -22.5280 O.2    16  THR16      -0.2863
     20  CB       -30.4470    8.9380  -25.8670 C.3    16  THR16       0.1794
     21  OG1      -30.3790    9.9440  -26.8800 O.3    16  THR16      -0.2208
     22  CG2      -31.9300    8.7210  -25.4680 C.3    16  THR16       0.0378
     23  N        -28.1400    9.9490  -20.2870 N.3    19  ALA19      -0.1231
     24  CA       -29.1460   10.8570  -19.7290 C.3    19  ALA19       0.1694
     25  C        -30.3020   10.1200  -19.0160 C.2    19  ALA19       0.2591
     26  O        -30.7400   10.5460  -17.9540 O.2    19  ALA19      -0.2718
     27  CB       -29.6970   11.7840  -20.8210 C.3    19  ALA19       0.0304
     28  N        -30.7880    9.0230  -19.5920 N.am   20  LEU20      -0.1980
     29  CA       -31.8930    8.2620  -18.9600 C.3    20  LEU20       0.1596
     30  C        -31.4290    7.6120  -17.6720 C.2    20  LEU20       0.2287
     31  O        -32.1520    7.6120  -16.6680 O.2    20  LEU20      -0.2864
     32  CB       -32.4390    7.1950  -19.9050 C.3    20  LEU20       0.0297
     33  CG       -32.9630    7.6860  -21.2570 C.3    20  LEU20       0.0022
     34  CD1      -32.9320    6.5690  -22.3010 C.3    20  LEU20       0.0001
     35  CD2      -34.3540    8.2770  -21.1140 C.3    20  LEU20       0.0001
     36  N        -31.1780   10.2470  -15.0050 N.3    23  TRP23      -0.1241
     37  CA       -32.5630   10.5360  -14.6290 C.3    23  TRP23       0.1605
     38  C        -33.1050    9.4520  -13.6900 C.2    23  TRP23       0.2264
     39  O        -33.7170    9.7500  -12.6550 O.2    23  TRP23      -0.2867
     40  CB       -33.4160   10.6610  -15.8950 C.3    23  TRP23       0.0550
     41  CG       -34.8220   11.1240  -15.6760 C.ar   23  TRP23       0.0003
     42  CD1      -35.3350   11.7490  -14.5680 C.ar   23  TRP23       0.0946
     43  CD2      -35.8980   11.0280  -16.6140 C.ar   23  TRP23       0.0152
     44  NE1      -36.6700   12.0190  -14.7530 N.ar   23  TRP23      -0.2442
     45  CE2      -37.0380   11.5900  -16.0040 C.ar   23  TRP23       0.0810
     46  CE3      -36.0130   10.5020  -17.9080 C.ar   23  TRP23       0.0012
     47  CZ2      -38.2750   11.6570  -16.6530 C.ar   23  TRP23       0.0191
     48  CZ3      -37.2400   10.5750  -18.5530 C.ar   23  TRP23       0.0001
     49  CH2      -38.3560   11.1380  -17.9200 C.ar   23  TRP23       0.0015
     50  N        -29.4500   17.0060  -12.1790 N.3    38  LEU38      -0.1245
     51  CA       -30.0320   17.7770  -13.2800 C.3    38  LEU38       0.1561
     52  C        -28.9650   18.2650  -14.2610 C.2    38  LEU38       0.2260
     53  O        -29.1430   18.1840  -15.4760 O.2    38  LEU38      -0.2867
     54  CB       -30.9300   18.9190  -12.7540 C.3    38  LEU38       0.0270
     55  CG       -32.2280   18.4430  -12.0430 C.3    38  LEU38       0.0019
     56  CD1      -32.9060   19.5610  -11.2440 C.3    38  LEU38       0.0001
     57  CD2      -33.2280   17.8140  -13.0110 C.3    38  LEU38       0.0001
     58  N        -27.7520   15.2450  -16.1850 N.3    41  MET41      -0.1245
     59  CA       -28.7040   14.9590  -17.2630 C.3    41  MET41       0.1570
     60  C        -28.6130   15.9580  -18.4000 C.2    41  MET41       0.2261
     61  O        -28.6460   15.5670  -19.5660 O.2    41  MET41      -0.2867
     62  CB       -30.1400   14.9770  -16.7370 C.3    41  MET41       0.0387
     63  CG       -30.5810   13.7150  -16.0360 C.3    41  MET41       0.0595
     64  SD       -32.2180   13.9990  -15.3340 S.3    41  MET41      -0.1393
     65  CE       -31.8260   14.1840  -13.5940 C.3    41  MET41       0.0692
     66  N        -25.3960   15.6370  -21.3340 N.3    44  PRO44      -0.2102
     67  CA       -25.5440   14.8050  -22.5320 C.3    44  PRO44       0.1504
     68  C        -26.7320   15.1790  -23.4340 C.2    44  PRO44       0.2575
     69  O        -26.6850   14.9240  -24.6380 O.2    44  PRO44      -0.2718
     70  CB       -25.6690   13.3740  -21.9760 C.3    44  PRO44       0.0282
     71  CG       -26.0690   13.5300  -20.5530 C.3    44  PRO44       0.0208
     72  CD       -25.5620   14.8650  -20.0870 C.3    44  PRO44       0.0893
     73  N        -27.7770   15.7830  -22.8730 N.am   45  ILE45      -0.1980
     74  CA       -28.8930   16.2530  -23.7020 C.3    45  ILE45       0.1595
     75  C        -28.4480   17.3710  -24.6510 C.2    45  ILE45       0.2287
     76  O        -28.7000   17.2980  -25.8560 O.2    45  ILE45      -0.2864
     77  CB       -30.0790   16.7390  -22.8570 C.3    45  ILE45       0.0276
     78  CG1      -30.6840   15.5710  -22.0890 C.3    45  ILE45       0.0022
     79  CG2      -31.1430   17.4080  -23.7300 C.3    45  ILE45       0.0022
     80  CD1      -31.4170   16.0330  -20.8500 C.3    45  ILE45       0.0001
     81  N        -26.1020   15.7880  -27.1340 N.3    48  GLY48      -0.1210
     82  CA       -26.9000   14.9860  -28.0590 C.3    48  GLY48       0.1956
     83  C        -27.5840   15.8060  -29.1400 C.2    48  GLY48       0.2611
     84  O        -27.5510   15.4410  -30.3020 O.2    48  GLY48      -0.2717
     85  N        -28.1800   16.9280  -28.7520 N.am   49  LEU49      -0.1979
     86  CA       -28.8620   17.8120  -29.6940 C.3    49  LEU49       0.1596
     87  C        -27.8990   18.4520  -30.6970 C.2    49  LEU49       0.2287
     88  O        -28.1870   18.4990  -31.8990 O.2    49  LEU49      -0.2864
     89  CB       -29.6700   18.8800  -28.9440 C.3    49  LEU49       0.0297
     90  CG       -30.8790   18.3730  -28.1340 C.3    49  LEU49       0.0022
     91  CD1      -31.4410   19.4740  -27.2340 C.3    49  LEU49       0.0001
     92  CD2      -31.9800   17.8080  -29.0180 C.3    49  LEU49       0.0001
     93  N        -26.9700   15.5910  -32.9460 N.3    52  MET52      -0.1245
     94  CA       -28.1440   15.3090  -33.7810 C.3    52  MET52       0.1570
     95  C        -28.2200   16.2850  -34.9560 C.2    52  MET52       0.2261
     96  O        -28.4240   15.8680  -36.0870 O.2    52  MET52      -0.2867
     97  CB       -29.4330   15.3540  -32.9470 C.3    52  MET52       0.0387
     98  CG       -30.6950   15.0040  -33.7100 C.3    52  MET52       0.0595
     99  SD       -32.1150   14.7870  -32.6120 S.3    52  MET52      -0.1393
    100  CE       -32.7250   16.4600  -32.4600 C.3    52  MET52       0.0692
@<TRIPOS>BOND
     1    96    95    2
     2    95    94    1
     3    94    97    1
     4    94    93    1
     5    98    97    1
     6    98    99    1
     7    99   100    1
     8    88    87    2
     9     7     5    1
    10     5     6    1
    11     5     2    1
    12    87    86    1
    13     1     2    1
    14    84    83    2
    15     2     3    1
    16    86    89    1
    17    86    85    1
    18    83    85   am
    19    83    82    1
    20    92    90    1
    21     3     4    2
    22    89    90    1
    23    90    91    1
    24    82    81    1
    25    21    20    1
    26    13    12    1
    27    13    14    1
    28    20    22    1
    29    20    17    1
    30    76    75    2
    31     8     9    1
    32    12     9    1
    33    16    17    1
    34    16    10   am
    35     9    10    1
    36    14    15    1
    37    17    18    1
    38    75    74    1
    39    69    68    2
    40    10    11    2
    41    79    77    1
    42    74    73    1
    43    74    77    1
    44    18    19    2
    45    68    73   am
    46    68    67    1
    47    77    78    1
    48    67    70    1
    49    67    66    1
    50    34    33    1
    51    78    80    1
    52    70    71    1
    53    66    72    1
    54    33    35    1
    55    33    32    1
    56    27    24    1
    57    71    72    1
    58    23    24    1
    59    32    29    1
    60    24    25    1
    61    28    25   am
    62    28    29    1
    63    61    60    2
    64    25    26    2
    65    29    30    1
    66    48    49   ar
    67    48    46   ar
    68    60    59    1
    69    49    47   ar
    70    46    43   ar
    71    30    31    2
    72    59    62    1
    73    59    58    1
    74    62    63    1
    75    47    45   ar
    76    43    45   ar
    77    43    41   ar
    78    63    64    1
    79    45    44   ar
    80    40    41    1
    81    40    37    1
    82    41    42   ar
    83    53    52    2
    84    64    65    1
    85    36    37    1
    86    44    42   ar
    87    37    38    1
    88    52    51    1
    89    38    39    2
    90    51    54    1
    91    51    50    1
    92    57    55    1
    93    54    55    1
    94    55    56    1
