@<TRIPOS>MOLECULE
tmp/4tl3A01.pdb
 82 76 0 0 0
SMALL
GASTEIGER

@<TRIPOS>ATOM
      1  N         -9.3350   11.4430  -13.6750 N.3   161  TYR161     -0.1241
      2  CA       -10.1050   11.0260  -14.8380 C.3   161  TYR161      0.1605
      3  C        -10.4390   12.2410  -15.7230 C.2   161  TYR161      0.2264
      4  O        -10.1980   12.2380  -16.9370 O.2   161  TYR161     -0.2867
      5  CB       -11.3790   10.3330  -14.3400 C.3   161  TYR161      0.0534
      6  CG       -12.2700    9.7570  -15.4060 C.ar  161  TYR161     -0.0201
      7  CD1      -13.2610   10.5330  -16.0050 C.ar  161  TYR161     -0.0009
      8  CD2      -12.1450    8.4260  -15.8000 C.ar  161  TYR161     -0.0009
      9  CE1      -14.0960   10.0030  -16.9810 C.ar  161  TYR161      0.0417
     10  CE2      -12.9720    7.8910  -16.7810 C.ar  161  TYR161      0.0417
     11  CZ       -13.9500    8.6870  -17.3660 C.ar  161  TYR161      0.1957
     12  OH       -14.7840    8.1660  -18.3370 O.3   161  TYR161     -0.2866
     13  N         -8.8670   12.9110  -19.7260 N.3   165  LEU165     -0.1245
     14  CA        -9.7490   13.1450  -20.8860 C.3   165  LEU165      0.1561
     15  C         -9.6330   14.5290  -21.4760 C.2   165  LEU165      0.2260
     16  O         -9.5580   14.6770  -22.6880 O.2   165  LEU165     -0.2867
     17  CB       -11.2170   12.9020  -20.5580 C.3   165  LEU165      0.0270
     18  CG       -11.6390   11.5400  -20.0250 C.3   165  LEU165      0.0019
     19  CD1      -13.1350   11.5940  -19.8020 C.3   165  LEU165      0.0001
     20  CD2      -11.2550   10.4280  -20.9830 C.3   165  LEU165      0.0001
     21  N         -6.8480   15.1990  -23.9020 N.3   168  GLY168     -0.1225
     22  CA        -7.0920   14.6100  -25.2240 C.3   168  GLY168      0.1811
     23  C         -7.6200   15.5660  -26.2810 C.2   168  GLY168      0.2280
     24  O         -7.2270   15.4710  -27.4740 O.2   168  GLY168     -0.2866
     25  N         -5.1230   17.7530  -28.0830 N.3   171  ILE171     -0.1231
     26  CA        -4.3730   16.8060  -28.9120 C.3   171  ILE171      0.1692
     27  C         -5.1280   16.4090  -30.1920 C.2   171  ILE171      0.2591
     28  O         -4.5880   16.4840  -31.2950 O.2   171  ILE171     -0.2718
     29  CB        -3.9930   15.5370  -28.1120 C.3   171  ILE171      0.0266
     30  CG1       -3.0530   15.9000  -26.9520 C.3   171  ILE171      0.0019
     31  CG2       -3.3680   14.4760  -29.0310 C.3   171  ILE171      0.0020
     32  CD1       -2.8000   14.7580  -25.9860 C.3   171  ILE171      0.0001
     33  N         -6.3780   15.9860  -30.0440 N.am  172  VAL172     -0.1980
     34  CA        -7.1660   15.5330  -31.1860 C.3   172  VAL172      0.1595
     35  C         -7.3670   16.6750  -32.1790 C.2   172  VAL172      0.2287
     36  O         -7.2760   16.4600  -33.3830 O.2   172  VAL172     -0.2864
     37  CB        -8.5120   14.9020  -30.7400 C.3   172  VAL172      0.0276
     38  CG1       -9.4380   14.7080  -31.9210 C.3   172  VAL172      0.0022
     39  CG2       -8.2660   13.5550  -30.0670 C.3   172  VAL172      0.0022
     40  N         -3.9070   17.4230  -34.1700 N.3   175  ILE175     -0.1245
     41  CA        -3.4350   16.3800  -35.0880 C.3   175  ILE175      0.1561
     42  C         -4.3470   16.2070  -36.2940 C.2   175  ILE175      0.2260
     43  O         -3.9570   15.5860  -37.2880 O.2   175  ILE175     -0.2867
     44  CB        -3.1990   15.0210  -34.3950 C.3   175  ILE175      0.0252
     45  CG1       -4.5280   14.4280  -33.8790 C.3   175  ILE175      0.0019
     46  CG2       -2.1090   15.1440  -33.3340 C.3   175  ILE175      0.0019
     47  CD1       -4.4310   13.0050  -33.3640 C.3   175  ILE175      0.0001
     48  N        -12.8050   10.2340  -33.0370 N.3   191  LEU191     -0.1245
     49  CA       -12.2160   10.6090  -31.7570 C.3   191  LEU191      0.1561
     50  C        -13.0580   11.6540  -31.0370 C.2   191  LEU191      0.2260
     51  O        -13.1830   11.6100  -29.8180 O.2   191  LEU191     -0.2867
     52  CB       -10.7740   11.1080  -31.9340 C.3   191  LEU191      0.0270
     53  CG        -9.9110   10.1900  -32.8020 C.3   191  LEU191      0.0019
     54  CD1       -8.5650   10.8350  -33.0900 C.3   191  LEU191      0.0001
     55  CD2       -9.7530    8.8120  -32.1590 C.3   191  LEU191      0.0001
     56  N        -15.7320    9.5110  -29.4220 N.3   194  LEU194     -0.1231
     57  CA       -15.2770    8.6660  -28.3090 C.3   194  LEU194      0.1693
     58  C        -14.9770    9.4360  -27.0360 C.2   194  LEU194      0.2591
     59  O        -15.4800    9.1060  -25.9600 O.2   194  LEU194     -0.2718
     60  CB       -14.0260    7.8820  -28.6950 C.3   194  LEU194      0.0284
     61  CG       -14.2190    6.6170  -29.5190 C.3   194  LEU194      0.0019
     62  CD1      -12.8520    6.0210  -29.8320 C.3   194  LEU194      0.0001
     63  CD2      -15.1110    5.6220  -28.7800 C.3   194  LEU194      0.0001
     64  N        -14.1380   10.4550  -27.1790 N.am  195  LEU195     -0.1980
     65  CA       -13.6690   11.2910  -26.0800 C.3   195  LEU195      0.1596
     66  C        -14.8200   11.9450  -25.3050 C.2   195  LEU195      0.2287
     67  O        -14.8820   11.8180  -24.0830 O.2   195  LEU195     -0.2864
     68  CB       -12.7290   12.3540  -26.6460 C.3   195  LEU195      0.0297
     69  CG       -11.5140   12.9100  -25.9170 C.3   195  LEU195      0.0022
     70  CD1      -10.7630   11.8460  -25.1330 C.3   195  LEU195      0.0001
     71  CD2      -10.6080   13.5670  -26.9510 C.3   195  LEU195      0.0001
     72  N        -16.8440    9.5700  -23.0160 N.3   198  PHE198     -0.1241
     73  CA       -16.2060    9.3580  -21.7240 C.3   198  PHE198      0.1605
     74  C        -16.1830   10.5940  -20.8230 C.2   198  PHE198      0.2264
     75  O        -16.2550   10.4660  -19.6050 O.2   198  PHE198     -0.2867
     76  CB       -14.8260    8.7060  -21.8920 C.3   198  PHE198      0.0534
     77  CG       -14.9050    7.3100  -22.4470 C.ar  198  PHE198     -0.0203
     78  CD1      -15.1730    6.2290  -21.6100 C.ar  198  PHE198     -0.0042
     79  CD2      -14.7640    7.0770  -23.8080 C.ar  198  PHE198     -0.0042
     80  CE1      -15.2790    4.9440  -22.1170 C.ar  198  PHE198     -0.0003
     81  CE2      -14.8690    5.8000  -24.3210 C.ar  198  PHE198     -0.0003
     82  CZ       -15.1220    4.7330  -23.4760 C.ar  198  PHE198     -0.0000
@<TRIPOS>BOND
     1    43    42    2
     2    42    41    1
     3    41    44    1
     4    41    40    1
     5    44    45    1
     6    44    46    1
     7    45    47    1
     8    36    35    2
     9    54    53    1
    10    48    49    1
    11    53    55    1
    12    53    52    1
    13    35    34    1
    14    52    49    1
    15    38    37    1
    16    49    50    1
    17    28    27    2
    18    34    37    1
    19    34    33    1
    20    50    51    2
    21    37    39    1
    22    27    33   am
    23    27    26    1
    24    62    61    1
    25    61    63    1
    26    61    60    1
    27    56    57    1
    28    31    29    1
    29    26    29    1
    30    26    25    1
    31    60    57    1
    32    57    58    1
    33    29    30    1
    34    24    23    2
    35    64    58   am
    36    64    65    1
    37    58    59    2
    38    30    32    1
    39    71    69    1
    40    68    65    1
    41    68    69    1
    42    23    22    1
    43    65    66    1
    44    69    70    1
    45    66    67    2
    46    22    21    1
    47    81    79   ar
    48    81    82   ar
    49    79    77   ar
    50    82    80   ar
    51    72    73    1
    52    16    15    2
    53    77    76    1
    54    77    78   ar
    55    80    78   ar
    56    76    73    1
    57    73    74    1
    58    15    14    1
    59    20    18    1
    60    14    17    1
    61    14    13    1
    62    74    75    2
    63    17    18    1
    64    18    19    1
    65    12    11    1
    66    11     9   ar
    67    11    10   ar
    68     9     7   ar
    69     4     3    2
    70    10     8   ar
    71     7     6   ar
    72     8     6   ar
    73     3     2    1
    74     6     5    1
    75     2     5    1
    76     2     1    1
