@<TRIPOS>MOLECULE
tmp/4tl6B00.pdb
 92 91 0 0 0
SMALL
GASTEIGER

@<TRIPOS>ATOM
      1  N          9.8170    2.5740   19.3990 N.3   173  GLU173     -0.1231
      2  CA        10.6530    1.4890   19.9260 C.3   173  GLU173      0.1699
      3  C         12.1240    1.9110   19.9990 C.2   173  GLU173      0.2592
      4  O         12.8750    1.4320   20.8530 O.2   173  GLU173     -0.2718
      5  CB        10.5000    0.2190   19.0720 C.3   173  GLU173      0.0402
      6  CG        11.0790    0.4040   17.6770 C.3   173  GLU173      0.1161
      7  CD        10.0360    0.7790   16.6660 C.2   173  GLU173      0.3649
      8  OE1        9.1530    1.6210   16.9940 O.co2 173  GLU173     -0.2457
      9  OE2       10.1150    0.2260   15.5450 O.co2 173  GLU173     -0.2457
     10  N         12.5120    2.8500   19.1360 N.am  174  PHE174     -0.1976
     11  CA        13.9220    3.2570   19.0130 C.3   174  PHE174      0.1639
     12  C         14.3740    4.2040   20.1080 C.2   174  PHE174      0.2290
     13  O         15.5700    4.2810   20.4300 O.2   174  PHE174     -0.2864
     14  CB        14.1570    3.8940   17.6330 C.3   174  PHE174      0.0560
     15  CG        14.0500    2.9160   16.5310 C.ar  174  PHE174     -0.0200
     16  CD1       15.0240    1.9280   16.3740 C.ar  174  PHE174     -0.0042
     17  CD2       12.9540    2.9200   15.6760 C.ar  174  PHE174     -0.0042
     18  CE1       14.9470    1.0290   15.3540 C.ar  174  PHE174     -0.0003
     19  CE2       12.8640    1.9980   14.6700 C.ar  174  PHE174     -0.0003
     20  CZ        13.8570    1.0490   14.4980 C.ar  174  PHE174     -0.0000
     21  N         10.7070   -7.8730   22.9930 N.3   198  LEU198     -0.1231
     22  CA        11.4690   -7.7520   21.7660 C.3   198  LEU198      0.1693
     23  C         12.9420   -7.4220   22.1030 C.2   198  LEU198      0.2592
     24  O         13.8820   -7.8990   21.4420 O.2   198  LEU198     -0.2718
     25  CB        10.8730   -6.6370   20.9170 C.3   198  LEU198      0.0284
     26  CG        11.5780   -6.4110   19.5600 C.3   198  LEU198      0.0019
     27  CD1       11.3950   -7.6130   18.6290 C.3   198  LEU198      0.0001
     28  CD2       11.0090   -5.1210   18.9390 C.3   198  LEU198      0.0001
     29  N         13.1100   -6.5630   23.1000 N.am  199  LYS199     -0.1966
     30  CA        14.4150   -5.9560   23.3920 C.3   199  LYS199      0.1728
     31  C         14.4820   -5.4710   24.8230 C.2   199  LYS199      0.2616
     32  O         13.5370   -4.8210   25.3030 O.2   199  LYS199     -0.2715
     33  CB        14.6490   -4.7330   22.4550 C.3   199  LYS199      0.0311
     34  CG        15.7260   -3.7520   22.8930 C.3   199  LYS199      0.0038
     35  CD        15.8180   -2.5230   21.9630 C.3   199  LYS199      0.0206
     36  CE        14.8190   -1.3920   22.3300 C.3   199  LYS199      0.1093
     37  NZ        14.9840   -0.1210   21.5280 N.3   199  LYS199     -0.1314
     38  N         15.5990   -5.7540   25.4990 N.am  200  LEU200     -0.1963
     39  CA        15.9420   -5.0660   26.7200 C.3   200  LEU200      0.1728
     40  C         17.3910   -4.6410   26.5650 C.2   200  LEU200      0.2616
     41  O         18.2530   -5.5290   26.5850 O.2   200  LEU200     -0.2715
     42  CB        15.7890   -5.9740   27.9430 C.3   200  LEU200      0.0311
     43  CG        14.4200   -6.6180   28.2630 C.3   200  LEU200      0.0022
     44  CD1       14.5550   -7.6050   29.4290 C.3   200  LEU200      0.0001
     45  CD2       13.3450   -5.5790   28.5870 C.3   200  LEU200      0.0001
     46  N         17.6840   -3.3420   26.4030 N.am  201  ARG201     -0.1963
     47  CA        19.0900   -2.9650   26.2090 C.3   201  ARG201      0.1729
     48  C         19.9290   -3.3970   27.4130 C.2   201  ARG201      0.2617
     49  O         19.5300   -3.1990   28.5450 O.2   201  ARG201     -0.2715
     50  CB        19.2450   -1.4550   26.0020 C.3   201  ARG201      0.0348
     51  CG        18.7750   -1.0140   24.6040 C.3   201  ARG201      0.0492
     52  CD        18.8710    0.5070   24.4930 C.3   201  ARG201      0.2205
     53  NE        18.4460    0.9780   23.1690 N.pl3 201  ARG201     -0.0865
     54  CZ        17.8590    2.1410   22.9380 C.cat 201  ARG201      0.5346
     55  NH1       17.6070    2.9920   23.9370 N.pl3 201  ARG201      0.1354
     56  NH2       17.5670    2.4700   21.6870 N.pl3 201  ARG201      0.1354
     57  N         21.1030   -3.9760   27.1190 N.am  202  GLY202     -0.1940
     58  CA        22.0860   -4.2680   28.1350 C.3   202  GLY202      0.2014
     59  C         21.7770   -5.4710   29.0100 C.2   202  GLY202      0.2640
     60  O         22.4190   -5.6430   30.0380 O.2   202  GLY202     -0.2714
     61  N         20.7980   -6.2910   28.6480 N.am  203  THR203     -0.1936
     62  CA        20.5140   -7.4540   29.4880 C.3   203  THR203      0.2028
     63  C         19.8050   -8.5520   28.6920 C.2   203  THR203      0.2643
     64  O         19.4560   -8.3790   27.5300 O.2   203  THR203     -0.2714
     65  CB        19.6680   -7.0530   30.7520 C.3   203  THR203      0.1808
     66  OG1       19.5280   -8.1880   31.6180 O.3   203  THR203     -0.2208
     67  CG2       18.2850   -6.5720   30.3150 C.3   203  THR203      0.0379
     68  N         19.6130   -9.7030   29.3110 N.am  204  SER204     -0.1935
     69  CA        19.0610  -10.8370   28.5450 C.3   204  SER204      0.2055
     70  C         17.5730  -10.9830   28.8200 C.2   204  SER204      0.2643
     71  O         17.0630  -10.4340   29.7860 O.2   204  SER204     -0.2714
     72  CB        19.8150  -12.1340   28.9030 C.3   204  SER204      0.2130
     73  OG        19.6040  -12.4700   30.2770 O.3   204  SER204     -0.2179
     74  N         16.8810  -11.7490   27.9610 N.am  205  HIS205     -0.1973
     75  CA        15.4770  -12.0420   28.1430 C.3   205  HIS205      0.1656
     76  C         15.1220  -13.2050   27.2360 C.2   205  HIS205      0.2291
     77  O         15.8400  -13.5020   26.2660 O.2   205  HIS205     -0.2864
     78  CB        14.5800  -10.8390   27.8000 C.3   205  HIS205      0.0771
     79  CG        14.8440  -10.2720   26.4430 C.ar  205  HIS205      0.0820
     80  ND1       14.1480  -10.6630   25.3140 N.ar  205  HIS205     -0.2267
     81  CD2       15.7630   -9.3680   26.0300 C.ar  205  HIS205      0.1154
     82  CE1       14.6320  -10.0240   24.2590 C.ar  205  HIS205      0.1986
     83  NE2       15.5940   -9.2110   24.6710 N.ar  205  HIS205     -0.2212
     84  N         13.0500  -15.0010   24.2480 N.3   207  LYS207     -0.1245
     85  CA        12.7100  -14.5040   22.9180 C.3   207  LYS207      0.1561
     86  C         11.4670  -15.1070   22.3120 C.2   207  LYS207      0.2260
     87  O         11.1390  -16.2610   22.5790 O.2   207  LYS207     -0.2867
     88  CB        13.8640  -14.7950   21.9410 C.3   207  LYS207      0.0271
     89  CG        15.2030  -14.4160   22.4230 C.3   207  LYS207      0.0035
     90  CD        15.2670  -12.9350   22.6530 C.3   207  LYS207      0.0206
     91  CE        16.7040  -12.5270   22.8400 C.3   207  LYS207      0.1093
     92  NZ        17.4480  -13.4540   23.7770 N.3   207  LYS207     -0.1314
@<TRIPOS>BOND
     1    20    19   ar
     2    20    18   ar
     3    19    17   ar
     4    18    16   ar
     5     9     7   ar
     6    17    15   ar
     7    16    15   ar
     8    15    14    1
     9     7     8   ar
    10     7     6    1
    11    14    11    1
    12     6     5    1
    13    27    26    1
    14    28    26    1
    15    11    10    1
    16    11    12    1
    17     5     2    1
    18    10     3   am
    19     1     2    1
    20    26    25    1
    21     2     3    1
    22     3     4    2
    23    12    13    2
    24    25    22    1
    25    24    23    2
    26    37    36    1
    27    56    54    1
    28    22    23    1
    29    22    21    1
    30    88    89    1
    31    88    85    1
    32    35    36    1
    33    35    34    1
    34    23    29   am
    35    86    87    2
    36    86    85    1
    37    89    90    1
    38    33    34    1
    39    33    30    1
    40    90    91    1
    41    91    92    1
    42    85    84    1
    43    54    53    2
    44    54    55    1
    45    29    30    1
    46    53    52    1
    47    30    31    1
    48    82    83   ar
    49    82    80   ar
    50    52    51    1
    51    51    50    1
    52    83    81   ar
    53    31    32    2
    54    31    38   am
    55    80    79   ar
    56    38    39    1
    57    50    47    1
    58    81    79   ar
    59    47    46    1
    60    47    48    1
    61    77    76    2
    62    46    40   am
    63    79    78    1
    64    40    41    2
    65    40    39    1
    66    39    42    1
    67    57    48   am
    68    57    58    1
    69    76    75    1
    70    48    49    2
    71    64    63    2
    72    78    75    1
    73    42    43    1
    74    74    75    1
    75    74    70   am
    76    58    59    1
    77    43    45    1
    78    43    44    1
    79    69    70    1
    80    69    72    1
    81    69    68    1
    82    61    59   am
    83    61    62    1
    84    63    68   am
    85    63    62    1
    86    70    71    2
    87    72    73    1
    88    59    60    2
    89    62    65    1
    90    67    65    1
    91    65    66    1
