@<TRIPOS>MOLECULE
tmp/4tl6B01.pdb
 113 108 0 0 0
SMALL
GASTEIGER

@<TRIPOS>ATOM
      1  N         -5.9130   -2.5630   20.1170 N.3    32  SER32      -0.1202
      2  CA        -6.8730   -2.3050   21.1820 C.3    32  SER32       0.2020
      3  C         -7.3760   -3.5660   21.8880 C.2    32  SER32       0.2619
      4  O         -7.7120   -4.5650   21.2490 O.2    32  SER32      -0.2717
      5  CB        -8.0420   -1.5020   20.5800 C.3    32  SER32       0.2103
      6  OG        -8.9710   -1.1210   21.5710 O.3    32  SER32      -0.2182
      7  N         -7.4660   -3.5110   23.2120 N.am   33  GLY33      -0.1942
      8  CA        -7.9810   -4.6430   23.9610 C.3    33  GLY33       0.2014
      9  C         -6.9310   -5.7350   24.1640 C.2    33  GLY33       0.2640
     10  O         -7.2900   -6.8680   24.4010 O.2    33  GLY33      -0.2714
     11  N         -5.6350   -5.4040   24.0210 N.am   34  THR34      -0.1936
     12  CA        -4.6330   -6.4660   24.1770 C.3    34  THR34       0.2028
     13  C         -4.1890   -6.6620   25.6390 C.2    34  THR34       0.2643
     14  O         -3.4400   -7.6200   25.9370 O.2    34  THR34      -0.2714
     15  CB        -3.3400   -6.1740   23.3660 C.3    34  THR34       0.1808
     16  OG1       -3.0130   -4.7780   23.5140 O.3    34  THR34      -0.2208
     17  CG2       -3.5110   -6.5820   21.8910 C.3    34  THR34       0.0379
     18  N         -4.5820   -5.7430   26.5200 N.am   35  GLY35      -0.1939
     19  CA        -4.2030   -5.8720   27.9320 C.3    35  GLY35       0.2014
     20  C         -3.1680   -4.8580   28.4120 C.2    35  GLY35       0.2639
     21  O         -2.5270   -5.0570   29.4450 O.2    35  GLY35      -0.2714
     22  N         -2.9590   -3.7880   27.6390 N.am   36  LYS36      -0.1963
     23  CA        -1.9150   -2.8230   27.9970 C.3    36  LYS36       0.1728
     24  C         -2.1960   -2.0950   29.3010 C.2    36  LYS36       0.2617
     25  O         -1.3040   -1.9530   30.1490 O.2    36  LYS36      -0.2715
     26  CB        -1.7550   -1.8070   26.8760 C.3    36  LYS36       0.0311
     27  CG        -1.3810   -2.4240   25.5490 C.3    36  LYS36       0.0038
     28  CD        -1.1660   -1.3710   24.4480 C.3    36  LYS36       0.0206
     29  CE        -2.4040   -0.5380   24.1810 C.3    36  LYS36       0.1093
     30  NZ        -3.5640   -1.3760   23.6570 N.3    36  LYS36      -0.1314
     31  N         -3.4040   -1.5210   29.4360 N.am   37  THR37      -0.1937
     32  CA        -3.7670   -0.8690   30.6880 C.3    37  THR37       0.2028
     33  C         -3.7020   -1.8250   31.8940 C.2    37  THR37       0.2642
     34  O         -3.2000   -1.4690   32.9650 O.2    37  THR37      -0.2714
     35  CB        -5.1880   -0.2620   30.5920 C.3    37  THR37       0.1808
     36  OG1       -5.1660    0.7150   29.5640 O.3    37  THR37      -0.2208
     37  CG2       -5.6100    0.4400   31.9360 C.3    37  THR37       0.0379
     38  N         -4.1890   -3.0370   31.6950 N.am   38  LEU38      -0.1977
     39  CA        -4.0760   -4.0580   32.7300 C.3    38  LEU38       0.1596
     40  C         -2.6270   -4.3330   33.1480 C.2    38  LEU38       0.2287
     41  O         -2.3400   -4.3830   34.3530 O.2    38  LEU38      -0.2864
     42  CB        -4.7360   -5.3760   32.2660 C.3    38  LEU38       0.0297
     43  CG        -4.6220   -6.5580   33.2210 C.3    38  LEU38       0.0022
     44  CD1       -5.1840   -6.2250   34.6030 C.3    38  LEU38       0.0001
     45  CD2       -5.3690   -7.7910   32.6640 C.3    38  LEU38       0.0001
     46  N         -8.7500    7.5030   29.5880 N.3    62  GLU62      -0.1245
     47  CA        -9.6400    6.9400   30.6350 C.3    62  GLU62       0.1567
     48  C         -9.6590    7.8340   31.8700 C.2    62  GLU62       0.2260
     49  O         -8.6240    8.3750   32.2230 O.2    62  GLU62      -0.2867
     50  CB        -9.2090    5.5460   31.0390 C.3    62  GLU62       0.0388
     51  CG        -9.3850    4.4810   29.9560 C.3    62  GLU62       0.1160
     52  CD        -9.4730    3.0800   30.5520 C.2    62  GLU62       0.3649
     53  OE1       -8.5860    2.2570   30.2590 O.co2  62  GLU62      -0.2457
     54  OE2      -10.4320    2.8080   31.3070 O.co2  62  GLU62      -0.2457
     55  N        -12.7240   -5.5270   38.5470 N.3    73  SER73      -0.1202
     56  CA       -12.8680   -6.7860   37.7790 C.3    73  SER73       0.2020
     57  C        -11.9260   -7.8670   38.3400 C.2    73  SER73       0.2618
     58  O        -12.2030   -9.0560   38.2090 O.2    73  SER73      -0.2717
     59  CB       -12.5850   -6.5760   36.2780 C.3    73  SER73       0.2103
     60  OG       -12.7820   -7.7810   35.4700 O.3    73  SER73      -0.2182
     61  N        -10.8400   -7.4430   38.9900 N.am   74  PHE74      -0.1975
     62  CA        -9.7570   -8.3640   39.3670 C.3    74  PHE74       0.1639
     63  C         -9.6600   -8.4560   40.8680 C.2    74  PHE74       0.2290
     64  O         -8.7310   -9.0700   41.4120 O.2    74  PHE74      -0.2864
     65  CB        -8.4070   -7.8970   38.7530 C.3    74  PHE74       0.0560
     66  CG        -8.5000   -7.6780   37.2670 C.ar   74  PHE74      -0.0200
     67  CD1       -8.5070   -8.7710   36.4030 C.ar   74  PHE74      -0.0042
     68  CD2       -8.7190   -6.4130   36.7430 C.ar   74  PHE74      -0.0042
     69  CE1       -8.6410   -8.5990   35.0540 C.ar   74  PHE74      -0.0003
     70  CE2       -8.8550   -6.2330   35.3720 C.ar   74  PHE74      -0.0003
     71  CZ        -8.8230   -7.3290   34.5250 C.ar   74  PHE74      -0.0000
     72  N         -0.2300    5.7550   30.4520 N.3   120  ASP120     -0.1239
     73  CA        -1.2110    5.0580   29.6120 C.3   120  ASP120      0.1674
     74  C         -2.2960    5.9980   29.0340 C.2   120  ASP120      0.2266
     75  O         -3.1040    6.4850   29.8040 O.2   120  ASP120     -0.2867
     76  CB        -1.8630    3.9610   30.4770 C.3   120  ASP120      0.1410
     77  CG        -2.8640    3.1170   29.7150 C.2   120  ASP120      0.3668
     78  OD1       -2.6410    2.8350   28.5040 O.co2 120  ASP120     -0.2456
     79  OD2       -3.8650    2.7120   30.3490 O.co2 120  ASP120     -0.2456
     80  N         -3.9740  -14.6320   22.7580 N.3   193  ARG193     -0.1245
     81  CA        -3.1290  -13.5810   23.2840 C.3   193  ARG193      0.1563
     82  C         -1.6970  -14.0520   23.4350 C.2   193  ARG193      0.2260
     83  O         -1.4530  -15.1710   23.9170 O.2   193  ARG193     -0.2867
     84  CB        -3.6300  -13.1170   24.6450 C.3   193  ARG193      0.0307
     85  CG        -5.1210  -12.6120   24.6300 C.3   193  ARG193      0.0489
     86  CD        -5.3810  -11.9760   25.9750 C.3   193  ARG193      0.2205
     87  NE        -6.7870  -11.6260   26.2290 N.pl3 193  ARG193     -0.0865
     88  CZ        -7.3300  -10.5060   25.7700 C.cat 193  ARG193      0.5346
     89  NH1       -8.5990  -10.1890   26.0720 N.pl3 193  ARG193      0.1354
     90  NH2       -6.5940   -9.7010   25.0160 N.pl3 193  ARG193      0.1354
     91  N         -6.0400  -13.5070   30.1790 N.3   214  ILE214     -0.1231
     92  CA        -6.4530  -12.5560   31.1900 C.3   214  ILE214      0.1692
     93  C         -7.5770  -13.2220   31.9870 C.2   214  ILE214      0.2593
     94  O         -8.5310  -13.7320   31.3950 O.2   214  ILE214     -0.2718
     95  CB        -6.9420  -11.2410   30.5580 C.3   214  ILE214      0.0266
     96  CG1       -5.8000  -10.5350   29.7850 C.3   214  ILE214      0.0019
     97  CG2       -7.5230  -10.3100   31.6920 C.3   214  ILE214      0.0020
     98  CD1       -6.2800   -9.2730   28.9780 C.3   214  ILE214      0.0001
     99  N         -7.4220  -13.3040   33.3070 N.am  215  THR215     -0.1939
    100  CA        -8.4300  -13.9390   34.1420 C.3   215  THR215      0.2028
    101  C         -8.8490  -12.9520   35.2050 C.2   215  THR215      0.2642
    102  O         -8.3790  -11.8160   35.2230 O.2   215  THR215     -0.2714
    103  CB        -7.9170  -15.2010   34.8050 C.3   215  THR215      0.1808
    104  OG1       -6.8840  -14.8720   35.7450 O.3   215  THR215     -0.2208
    105  CG2       -7.3580  -16.1840   33.7500 C.3   215  THR215      0.0379
    106  N         -9.6720  -13.4260   36.1200 N.am  216  ASP216     -0.1971
    107  CA       -10.0030  -12.6790   37.3220 C.3   216  ASP216      0.1709
    108  C         -8.7970  -12.2590   38.1390 C.2   216  ASP216      0.2293
    109  O         -8.9110  -11.3760   38.9920 O.2   216  ASP216     -0.2864
    110  CB       -10.9140  -13.5160   38.2220 C.3   216  ASP216      0.1436
    111  CG       -12.3120  -13.5770   37.7070 C.2   216  ASP216      0.3671
    112  OD1      -12.5960  -12.8850   36.7120 O.co2 216  ASP216     -0.2456
    113  OD2      -13.1260  -14.3040   38.3020 O.co2 216  ASP216     -0.2456
@<TRIPOS>BOND
     1     1     2    1
     2     5     2    1
     3     5     6    1
     4     2     3    1
     5     4     3    2
     6     3     7   am
     7    17    15    1
     8    80    81    1
     9     7     8    1
    10    81    82    1
    11    81    84    1
    12    15    16    1
    13    15    12    1
    14    82    83    2
    15    30    29    1
    16     8     9    1
    17    11     9   am
    18    11    12    1
    19     9    10    2
    20    12    13    1
    21    29    28    1
    22    28    27    1
    23    85    84    1
    24    85    86    1
    25    90    88    1
    26    27    26    1
    27    13    14    2
    28    13    18   am
    29    88    89    1
    30    88    87    2
    31    86    87    1
    32    18    19    1
    33    26    23    1
    34    22    23    1
    35    22    20   am
    36    19    20    1
    37    23    24    1
    38    20    21    2
    39    78    77   ar
    40    98    96    1
    41    74    73    1
    42    74    75    2
    43    24    31   am
    44    24    25    2
    45    31    32    1
    46    36    35    1
    47    46    47    1
    48    73    72    1
    49    73    76    1
    50    77    79   ar
    51    77    76    1
    52    96    95    1
    53    51    52    1
    54    51    50    1
    55    91    92    1
    56    53    52   ar
    57    52    54   ar
    58    95    92    1
    59    95    97    1
    60    35    32    1
    61    35    37    1
    62    47    50    1
    63    47    48    1
    64    32    33    1
    65    92    93    1
    66    94    93    2
    67    38    33   am
    68    38    39    1
    69    48    49    2
    70    33    34    2
    71    93    99   am
    72    42    39    1
    73    42    43    1
    74    45    43    1
    75    39    40    1
    76    40    41    2
    77    43    44    1
    78    99   100    1
    79   105   103    1
    80   100   103    1
    81   100   101    1
    82    71    69   ar
    83    71    70   ar
    84   103   104    1
    85    69    67   ar
    86   101   102    2
    87   101   106   am
    88    70    68   ar
    89    60    59    1
    90   106   107    1
    91    59    56    1
    92    67    66   ar
    93   112   111   ar
    94    68    66   ar
    95    66    65    1
    96   107   108    1
    97   107   110    1
    98   111   110    1
    99   111   113   ar
   100    56    57    1
   101    56    55    1
   102   108   109    2
   103    58    57    2
   104    57    61   am
   105    65    62    1
   106    61    62    1
   107    62    63    1
   108    63    64    2
