@<TRIPOS>MOLECULE
tmp/4tlaF01.pdb
 129 123 0 0 0
SMALL
GASTEIGER

@<TRIPOS>ATOM
      1  N        -35.4150    7.5390   -0.9950 N.3    32  THR32      -0.1203
      2  CA       -35.9330    6.3900   -0.2640 C.3    32  THR32       0.1994
      3  C        -35.6190    6.4640    1.2380 C.2    32  THR32       0.2618
      4  O        -34.5620    6.9470    1.6570 O.2    32  THR32      -0.2717
      5  CB       -35.3800    5.0630   -0.8990 C.3    32  THR32       0.1784
      6  OG1      -36.1440    3.9360   -0.4330 O.3    32  THR32      -0.2211
      7  CG2      -33.9570    4.8690   -0.5310 C.3    32  THR32       0.0376
      8  N        -36.5670    6.0050    2.0500 N.am   33  GLY33      -0.1942
      9  CA       -36.3890    5.9820    3.4960 C.3    33  GLY33       0.2014
     10  C        -36.3820    7.3690    4.1470 C.2    33  GLY33       0.2640
     11  O        -35.7610    7.5540    5.2030 O.2    33  GLY33      -0.2714
     12  N        -37.0410    8.3470    3.5090 N.am   34  THR34      -0.1936
     13  CA       -37.1470    9.6870    4.0840 C.3    34  THR34       0.2028
     14  C        -38.3330    9.8470    5.0410 C.2    34  THR34       0.2643
     15  O        -38.3820   10.8470    5.7640 O.2    34  THR34      -0.2714
     16  CB       -37.2960   10.7830    3.0030 C.3    34  THR34       0.1808
     17  OG1      -38.2440   10.3450    1.9990 O.3    34  THR34      -0.2208
     18  CG2      -35.8850   11.1380    2.4090 C.3    34  THR34       0.0379
     19  N        -39.2290    8.8460    5.1110 N.am   35  GLY35      -0.1939
     20  CA       -40.3890    8.9510    5.9950 C.3    35  GLY35       0.2014
     21  C        -41.6920    9.3180    5.2810 C.2    35  GLY35       0.2639
     22  O        -42.6630    9.7440    5.9080 O.2    35  GLY35      -0.2714
     23  N        -41.7450    9.1210    3.9680 N.am   36  LYS36      -0.1963
     24  CA       -42.9820    9.4210    3.2210 C.3    36  LYS36       0.1728
     25  C        -44.1650    8.5540    3.6070 C.2    36  LYS36       0.2617
     26  O        -45.2730    9.0530    3.8430 O.2    36  LYS36      -0.2715
     27  CB       -42.7430    9.2760    1.6960 C.3    36  LYS36       0.0311
     28  CG       -41.6150   10.1580    1.1690 C.3    36  LYS36       0.0038
     29  CD       -41.3950   10.0060   -0.3510 C.3    36  LYS36       0.0206
     30  CE       -41.1020    8.5840   -0.8200 C.3    36  LYS36       0.1093
     31  NZ       -39.8360    8.0070   -0.2030 N.3    36  LYS36      -0.1314
     32  N        -43.9700    7.2480    3.6000 N.am   37  THR37      -0.1937
     33  CA       -45.0400    6.3460    4.0010 C.3    37  THR37       0.2028
     34  C        -45.4750    6.6720    5.4460 C.2    37  THR37       0.2642
     35  O        -46.6700    6.7670    5.7550 O.2    37  THR37      -0.2714
     36  CB       -44.5900    4.8810    3.8690 C.3    37  THR37       0.1808
     37  OG1      -44.2990    4.6510    2.4850 O.3    37  THR37      -0.2208
     38  CG2      -45.6840    3.8910    4.2960 C.3    37  THR37       0.0379
     39  N        -44.4940    6.8610    6.3150 N.am   38  LEU38      -0.1977
     40  CA       -44.8070    7.1840    7.7180 C.3    38  LEU38       0.1596
     41  C        -45.6500    8.4630    7.8200 C.2    38  LEU38       0.2287
     42  O        -46.6580    8.4970    8.5110 O.2    38  LEU38      -0.2864
     43  CB       -43.5040    7.3250    8.5100 C.3    38  LEU38       0.0297
     44  CG       -43.7030    7.8400    9.9270 C.3    38  LEU38       0.0022
     45  CD1      -44.6550    6.9280   10.7140 C.3    38  LEU38       0.0001
     46  CD2      -42.3060    7.8900   10.5710 C.3    38  LEU38       0.0001
     47  N        -46.1350   -1.6610   -1.4350 N.3    62  GLU62      -0.1245
     48  CA       -46.2180   -2.4220   -0.1790 C.3    62  GLU62       0.1567
     49  C        -47.5660   -3.1030    0.0020 C.2    62  GLU62       0.2260
     50  O        -48.6350   -2.5370   -0.3110 O.2    62  GLU62      -0.2867
     51  CB       -45.9670   -1.5170    1.0230 C.3    62  GLU62       0.0388
     52  CG       -44.5250   -1.0600    1.1780 C.3    62  GLU62       0.1160
     53  CD       -44.2590   -0.4570    2.5450 C.2    62  GLU62       0.3649
     54  OE1      -44.3040   -1.2090    3.5420 O.co2  62  GLU62      -0.2457
     55  OE2      -43.9940    0.7560    2.6280 O.co2  62  GLU62      -0.2457
     56  N        -44.0610   -0.6950   14.5510 N.3    73  SER73      -0.1202
     57  CA       -42.8400   -0.0350   15.0180 C.3    73  SER73       0.2020
     58  C        -43.1570    1.2040   15.9050 C.2    73  SER73       0.2618
     59  O        -42.3920    1.5380   16.8110 O.2    73  SER73      -0.2717
     60  CB       -41.9780    0.3820   13.8470 C.3    73  SER73       0.2103
     61  OG       -40.7280    0.8570   14.3120 O.3    73  SER73      -0.2182
     62  N        -44.2950    1.8620   15.6670 N.am   74  PHE74      -0.1975
     63  CA       -44.6430    3.0840   16.4070 C.3    74  PHE74       0.1639
     64  C        -45.7600    2.8480   17.4270 C.2    74  PHE74       0.2290
     65  O        -46.3240    3.7790   18.0040 O.2    74  PHE74      -0.2864
     66  CB       -45.0250    4.1990   15.4180 C.3    74  PHE74       0.0560
     67  CG       -44.1130    4.2830   14.2410 C.ar   74  PHE74      -0.0200
     68  CD1      -42.8750    4.9120   14.3430 C.ar   74  PHE74      -0.0042
     69  CD2      -44.4630    3.7100   13.0350 C.ar   74  PHE74      -0.0042
     70  CE1      -42.0090    4.9450   13.2920 C.ar   74  PHE74      -0.0003
     71  CE2      -43.6070    3.7570   11.9540 C.ar   74  PHE74      -0.0003
     72  CZ       -42.3690    4.3720   12.0760 C.ar   74  PHE74      -0.0000
     73  N        -49.9540    5.9500   -1.7400 N.3   120  ASP120     -0.1225
     74  CA       -48.5310    5.6890   -1.5950 C.3   120  ASP120      0.1805
     75  C        -47.9580    4.9410   -2.7920 C.2   120  ASP120      0.2598
     76  O        -48.4890    3.8960   -3.1680 O.2   120  ASP120     -0.2718
     77  CB       -48.2900    4.8760   -0.3090 C.3   120  ASP120      0.1424
     78  CG       -46.8160    4.8660    0.1230 C.2   120  ASP120      0.3668
     79  OD1      -45.9900    5.6620   -0.3880 O.co2 120  ASP120     -0.2456
     80  OD2      -46.4830    4.0430    0.9820 O.co2 120  ASP120     -0.2456
     81  N        -46.8820    5.4870   -3.3610 N.am  121  SER121     -0.1952
     82  CA       -46.1900    4.9070   -4.5290 C.3   121  SER121      0.1924
     83  C        -47.0120    4.8350   -5.8230 C.2   121  SER121      0.2314
     84  O        -46.8470    3.9060   -6.6090 O.2   121  SER121     -0.2863
     85  CB       -45.6910    3.4950   -4.1780 C.3   121  SER121      0.2116
     86  OG       -45.0490    3.5040   -2.9120 O.3   121  SER121     -0.2180
     87  N        -41.5280    9.9270   -5.5450 N.3   158  GLU158     -0.1245
     88  CA       -40.1170    9.5870   -5.3710 C.3   158  GLU158      0.1567
     89  C        -39.1990   10.6110   -6.0390 C.2   158  GLU158      0.2260
     90  O        -39.5730   11.2580   -6.9970 O.2   158  GLU158     -0.2867
     91  CB       -39.8450    8.1900   -5.9630 C.3   158  GLU158      0.0388
     92  CG       -40.8030    7.1190   -5.4380 C.3   158  GLU158      0.1160
     93  CD       -40.6080    5.7510   -6.0870 C.2   158  GLU158      0.3649
     94  OE1      -40.9140    4.7370   -5.4230 O.co2 158  GLU158     -0.2457
     95  OE2      -40.1570    5.6940   -7.2570 O.co2 158  GLU158     -0.2457
     96  N        -32.4720   14.5760    8.7580 N.3   193  ARG193     -0.1245
     97  CA       -33.7710   14.6230    8.0870 C.3   193  ARG193      0.1563
     98  C        -34.3170   16.0400    8.1900 C.2   193  ARG193      0.2260
     99  O        -34.2420   16.6400    9.2460 O.2   193  ARG193     -0.2867
    100  CB       -34.7670   13.6670    8.7110 C.3   193  ARG193      0.0307
    101  CG       -34.2370   12.1890    8.8630 C.3   193  ARG193      0.0489
    102  CD       -35.3820   11.3600    9.3920 C.3   193  ARG193      0.2205
    103  NE       -35.0480    9.9460    9.6390 N.pl3 193  ARG193     -0.0865
    104  CZ       -35.0070    9.0160    8.6900 C.cat 193  ARG193      0.5346
    105  NH1      -35.1710    9.3470    7.4120 N.pl3 193  ARG193      0.1354
    106  NH2      -34.7420    7.7480    9.0060 N.pl3 193  ARG193      0.1354
    107  N        -37.4250   10.6150   13.3030 N.3   214  ILE214     -0.1231
    108  CA       -38.3810    9.5260   13.3880 C.3   214  ILE214      0.1692
    109  C        -38.0550    8.7130   14.6490 C.2   214  ILE214      0.2593
    110  O        -36.9310    8.2660   14.8380 O.2   214  ILE214     -0.2718
    111  CB       -38.3430    8.6330   12.1580 C.3   214  ILE214      0.0266
    112  CG1      -38.6940    9.4560   10.9080 C.3   214  ILE214      0.0019
    113  CG2      -39.3310    7.4650   12.3450 C.3   214  ILE214      0.0020
    114  CD1      -38.5060    8.7060    9.5850 C.3   214  ILE214      0.0001
    115  N        -39.0270    8.5980   15.5210 N.am  215  THR215     -0.1939
    116  CA       -38.8260    7.8830   16.7790 C.3   215  THR215      0.2028
    117  C        -39.9310    6.8810   16.9400 C.2   215  THR215      0.2642
    118  O        -40.7050    6.6740   16.0200 O.2   215  THR215     -0.2714
    119  CB       -38.8050    8.8330   17.9850 C.3   215  THR215      0.1808
    120  OG1      -40.0390    9.5490   18.0510 O.3   215  THR215     -0.2208
    121  CG2      -37.6180    9.8160   17.8680 C.3   215  THR215      0.0379
    122  N        -39.9960    6.2520   18.1110 N.am  216  ASP216     -0.1971
    123  CA       -41.0840    5.3320   18.4360 C.3   216  ASP216      0.1709
    124  C        -42.4500    6.0000   18.3820 C.2   216  ASP216      0.2293
    125  O        -43.4720    5.3200   18.3890 O.2   216  ASP216     -0.2864
    126  CB       -40.8770    4.7330   19.8280 C.3   216  ASP216      0.1436
    127  CG       -39.7860    3.7120   19.8430 C.2   216  ASP216      0.3671
    128  OD1      -39.3970    3.2570   18.7380 O.co2 216  ASP216     -0.2456
    129  OD2      -39.3170    3.3650   20.9480 O.co2 216  ASP216     -0.2456
@<TRIPOS>BOND
     1    95    93   ar
     2    90    89    2
     3    84    83    2
     4    93    92    1
     5    93    94   ar
     6    89    88    1
     7    91    92    1
     8    91    88    1
     9    83    82    1
    10    87    88    1
    11    82    85    1
    12    82    81    1
    13    85    86    1
    14    81    75   am
    15    76    75    2
    16    75    74    1
    17    73    74    1
    18    74    77    1
    19    47    48    1
    20     1     2    1
    21     5     7    1
    22     5     6    1
    23     5     2    1
    24    30    29    1
    25    30    31    1
    26    79    78   ar
    27    29    28    1
    28    50    49    2
    29    77    78    1
    30     2     3    1
    31    48    49    1
    32    48    51    1
    33    78    80   ar
    34    51    52    1
    35    28    27    1
    36    52    53    1
    37     3     4    2
    38     3     8   am
    39    27    24    1
    40    17    16    1
    41     8     9    1
    42    18    16    1
    43    37    36    1
    44    53    55   ar
    45    53    54   ar
    46    16    13    1
    47    24    25    1
    48    24    23    1
    49     9    10    1
    50    12    13    1
    51    12    10   am
    52    32    25   am
    53    32    33    1
    54    25    26    2
    55    36    33    1
    56    36    38    1
    57    23    21   am
    58    33    34    1
    59    13    14    1
    60    10    11    2
    61    14    19   am
    62    14    15    2
    63    19    20    1
    64    21    22    2
    65    21    20    1
    66    34    35    2
    67    34    39   am
    68    39    40    1
    69   105   104    1
    70    40    41    1
    71    40    43    1
    72    41    42    2
    73    97    98    1
    74    97   100    1
    75    97    96    1
    76    98    99    2
    77    43    44    1
    78   104   106    1
    79   104   103    2
    80   100   101    1
    81   101   102    1
    82   102   103    1
    83   114   112    1
    84    44    46    1
    85    44    45    1
    86   112   111    1
    87    71    72   ar
    88    71    69   ar
    89    72    70   ar
    90   111   113    1
    91   111   108    1
    92    69    67   ar
    93    70    68   ar
    94   107   108    1
    95   108   109    1
    96    60    61    1
    97    60    57    1
    98    67    68   ar
    99    67    66    1
   100    56    57    1
   101   109   110    2
   102   109   115   am
   103    57    58    1
   104    66    63    1
   105   115   116    1
   106    62    58   am
   107    62    63    1
   108    58    59    2
   109   118   117    2
   110    63    64    1
   111   116   117    1
   112   116   119    1
   113   117   122   am
   114    64    65    2
   115   121   119    1
   116   119   120    1
   117   122   123    1
   118   124   125    2
   119   124   123    1
   120   123   126    1
   121   128   127   ar
   122   126   127    1
   123   127   129   ar
