@<TRIPOS>MOLECULE
tmp/4tlgA00.pdb
 183 173 0 0 0
SMALL
GASTEIGER

@<TRIPOS>ATOM
      1  N         83.4420   -4.1130   82.9090 N.3   101  ILE101     -0.1245
      2  CA        83.3170   -4.6960   84.2500 C.3   101  ILE101      0.1561
      3  C         84.6740   -5.0260   84.9110 C.2   101  ILE101      0.2260
      4  O         84.8820   -4.7640   86.1130 O.2   101  ILE101     -0.2867
      5  CB        82.4500   -5.9730   84.2170 C.3   101  ILE101      0.0252
      6  CG1       81.0460   -5.6840   83.6860 C.3   101  ILE101      0.0019
      7  CG2       82.3540   -6.5740   85.6200 C.3   101  ILE101      0.0019
      8  CD1       80.1640   -4.8900   84.6210 C.3   101  ILE101      0.0001
      9  N         86.4130   -2.2070   86.6460 N.3   104  LEU104     -0.1245
     10  CA        85.6200   -1.4910   87.6430 C.3   104  LEU104      0.1561
     11  C         86.1410   -1.8030   89.0400 C.2   104  LEU104      0.2260
     12  O         86.5970   -2.9310   89.3090 O.2   104  LEU104     -0.2867
     13  CB        84.1540   -1.8910   87.5390 C.3   104  LEU104      0.0270
     14  CG        83.1070   -1.0310   88.2350 C.3   104  LEU104      0.0019
     15  CD1       83.0220    0.3650   87.6230 C.3   104  LEU104      0.0001
     16  CD2       81.7570   -1.7260   88.1670 C.3   104  LEU104      0.0001
     17  N         84.1610   -1.6420   92.0880 N.3   106  PRO106     -0.2116
     18  CA        82.8740   -1.4010   92.7390 C.3   106  PRO106      0.1372
     19  C         82.9840   -1.2380   94.2550 C.2   106  PRO106      0.2244
     20  O         82.1740   -0.5230   94.8500 O.2   106  PRO106     -0.2868
     21  CB        82.0470   -2.6380   92.3710 C.3   106  PRO106      0.0268
     22  CG        83.0670   -3.6960   92.0940 C.3   106  PRO106      0.0207
     23  CD        84.1880   -2.9620   91.4260 C.3   106  PRO106      0.0892
     24  N         80.4390   -6.7590   77.0890 N.3   151  PHE151     -0.1241
     25  CA        80.9290   -6.8660   78.4650 C.3   151  PHE151      0.1605
     26  C         82.3910   -7.2800   78.4680 C.2   151  PHE151      0.2264
     27  O         82.7370   -8.4080   78.1010 O.2   151  PHE151     -0.2867
     28  CB        80.1200   -7.8640   79.2800 C.3   151  PHE151      0.0534
     29  CG        78.6990   -7.4640   79.4860 C.ar  151  PHE151     -0.0203
     30  CD1       77.7500   -7.7050   78.4990 C.ar  151  PHE151     -0.0042
     31  CD2       78.2960   -6.8760   80.6750 C.ar  151  PHE151     -0.0042
     32  CE1       76.4390   -7.3400   78.6860 C.ar  151  PHE151     -0.0003
     33  CE2       76.9800   -6.4970   80.8610 C.ar  151  PHE151     -0.0003
     34  CZ        76.0510   -6.7400   79.8770 C.ar  151  PHE151     -0.0000
     35  N         85.5070   -8.3410   80.3320 N.3   153  MET153     -0.1245
     36  CA        85.7790   -8.9860   81.6070 C.3   153  MET153      0.1570
     37  C         87.2600   -8.9650   81.9820 C.2   153  MET153      0.2261
     38  O         87.6240   -9.5160   83.0110 O.2   153  MET153     -0.2867
     39  CB        85.2450  -10.4320   81.5780 C.3   153  MET153      0.0387
     40  CG        83.7970  -10.5510   81.0930 C.3   153  MET153      0.0595
     41  SD        82.5520   -9.5510   81.9650 S.3   153  MET153     -0.1393
     42  CE        82.9170  -10.1470   83.5890 C.3   153  MET153      0.0692
     43  N         88.7020   -9.1340   85.7340 N.3   156  LEU156     -0.1245
     44  CA        87.7560   -9.6940   86.6920 C.3   156  LEU156      0.1561
     45  C         88.5170  -10.5210   87.7520 C.2   156  LEU156      0.2260
     46  O         89.3660  -11.3410   87.4270 O.2   156  LEU156     -0.2867
     47  CB        86.7100  -10.5420   85.9660 C.3   156  LEU156      0.0270
     48  CG        85.6620  -11.2370   86.8160 C.3   156  LEU156      0.0019
     49  CD1       84.6960  -10.1960   87.3230 C.3   156  LEU156      0.0001
     50  CD2       84.9480  -12.3350   86.0500 C.3   156  LEU156      0.0001
     51  N         86.0050   -8.5050   92.8050 N.3   160  HIS160     -0.1226
     52  CA        84.6740   -8.1380   92.2560 C.3   160  HIS160      0.1752
     53  C         83.5300   -8.9040   92.9220 C.2   160  HIS160      0.2595
     54  O         82.3750   -8.5240   92.7710 O.2   160  HIS160     -0.2718
     55  CB        84.6140   -8.3460   90.7310 C.3   160  HIS160      0.0759
     56  CG        85.4780   -7.3930   89.9550 C.ar  160  HIS160      0.0818
     57  ND1       86.7670   -7.6900   89.5760 N.ar  160  HIS160     -0.2268
     58  CD2       85.2450   -6.1370   89.5140 C.ar  160  HIS160      0.1154
     59  CE1       87.2890   -6.6610   88.9340 C.ar  160  HIS160      0.1986
     60  NE2       86.3810   -5.7060   88.8830 N.ar  160  HIS160     -0.2212
     61  N         83.8450   -9.9710   93.6600 N.am  161  LEU161     -0.1980
     62  CA        82.8090  -10.8020   94.2700 C.3   161  LEU161      0.1596
     63  C         82.4180  -10.3440   95.6870 C.2   161  LEU161      0.2287
     64  O         81.6550  -11.0080   96.3570 O.2   161  LEU161     -0.2864
     65  CB        83.2380  -12.2710   94.2950 C.3   161  LEU161      0.0297
     66  CG        83.7330  -12.9050   93.0020 C.3   161  LEU161      0.0022
     67  CD1       83.9030  -14.4010   93.2350 C.3   161  LEU161      0.0001
     68  CD2       82.7840  -12.6470   91.8470 C.3   161  LEU161      0.0001
     69  N         78.9440   -5.4800   96.4380 N.3   165  ALA165     -0.1231
     70  CA        79.0850   -5.1110   95.0140 C.3   165  ALA165      0.1694
     71  C         78.2180   -6.0220   94.1520 C.2   165  ALA165      0.2591
     72  O         77.5360   -5.5620   93.2260 O.2   165  ALA165     -0.2718
     73  CB        80.5290   -5.2090   94.5680 C.3   165  ALA165      0.0304
     74  N         78.2180   -7.3100   94.4780 N.am  166  VAL166     -0.1980
     75  CA        77.3950   -8.2680   93.7420 C.3   166  VAL166      0.1595
     76  C         75.8930   -7.9200   93.8560 C.2   166  VAL166      0.2287
     77  O         75.1320   -7.9890   92.8640 O.2   166  VAL166     -0.2864
     78  CB        77.6800   -9.7180   94.1540 C.3   166  VAL166      0.0276
     79  CG1       76.7800  -10.6690   93.3840 C.3   166  VAL166      0.0022
     80  CG2       79.1390  -10.0720   93.8840 C.3   166  VAL166      0.0022
     81  N         74.6750   -5.0280   93.9700 N.3   168  VAL168     -0.1231
     82  CA        74.4590   -3.9780   92.9630 C.3   168  VAL168      0.1692
     83  C         74.0870   -4.5410   91.6110 C.2   168  VAL168      0.2592
     84  O         73.1180   -4.0770   90.9860 O.2   168  VAL168     -0.2718
     85  CB        75.7010   -3.0810   92.7100 C.3   168  VAL168      0.0266
     86  CG1       75.4700   -2.1380   91.5090 C.3   168  VAL168      0.0020
     87  CG2       76.0290   -2.2700   93.9480 C.3   168  VAL168      0.0020
     88  N         74.8790   -5.4870   91.1230 N.am  169  TYR169     -0.1976
     89  CA        74.5870   -6.0210   89.8200 C.3   169  TYR169      0.1639
     90  C         73.3380   -6.8610   89.8190 C.2   169  TYR169      0.2290
     91  O         72.6050   -6.8210   88.8490 O.2   169  TYR169     -0.2864
     92  CB        75.7880   -6.6580   89.1100 C.3   169  TYR169      0.0560
     93  CG        76.3020   -5.6440   88.0920 C.ar  169  TYR169     -0.0198
     94  CD1       76.9000   -4.4590   88.5230 C.ar  169  TYR169     -0.0009
     95  CD2       76.0990   -5.8120   86.7160 C.ar  169  TYR169     -0.0009
     96  CE1       77.3250   -3.4970   87.6230 C.ar  169  TYR169      0.0417
     97  CE2       76.5250   -4.8530   85.8090 C.ar  169  TYR169      0.0417
     98  CZ        77.1320   -3.6930   86.2690 C.ar  169  TYR169      0.1957
     99  OH        77.5740   -2.7250   85.4110 O.3   169  TYR169     -0.2866
    100  N         70.1810   -5.9980   87.4220 N.3   173  PHE173     -0.1241
    101  CA        69.5670   -6.9320   86.4530 C.3   173  PHE173      0.1605
    102  C         68.0570   -7.0870   86.7280 C.2   173  PHE173      0.2264
    103  O         67.2730   -7.1660   85.7850 O.2   173  PHE173     -0.2867
    104  CB        70.2940   -8.3030   86.4020 C.3   173  PHE173      0.0534
    105  CG        71.5080   -8.3290   85.4880 C.ar  173  PHE173     -0.0203
    106  CD1       71.3630   -8.2280   84.1130 C.ar  173  PHE173     -0.0042
    107  CD2       72.7970   -8.4860   86.0040 C.ar  173  PHE173     -0.0042
    108  CE1       72.4660   -8.2380   83.2690 C.ar  173  PHE173     -0.0003
    109  CE2       73.9050   -8.5080   85.1670 C.ar  173  PHE173     -0.0003
    110  CZ        73.7400   -8.3840   83.7940 C.ar  173  PHE173     -0.0000
    111  N         74.2110   -9.8360   74.3310 N.3   187  LEU187     -0.1245
    112  CA        75.1270   -9.5140   75.4310 C.3   187  LEU187      0.1561
    113  C         76.4060  -10.2680   75.1230 C.2   187  LEU187      0.2260
    114  O         76.4880  -11.4860   75.3240 O.2   187  LEU187     -0.2867
    115  CB        74.5490   -9.9270   76.8000 C.3   187  LEU187      0.0270
    116  CG        73.2990   -9.1870   77.3010 C.3   187  LEU187      0.0019
    117  CD1       72.0250   -9.5950   76.5790 C.3   187  LEU187      0.0001
    118  CD2       73.0930   -9.3620   78.8200 C.3   187  LEU187      0.0001
    119  N         80.1870  -11.2220   75.6030 N.3   189  VAL189     -0.1245
    120  CA        81.2170  -11.2870   76.6330 C.3   189  VAL189      0.1561
    121  C         82.6000  -11.5250   76.0330 C.2   189  VAL189      0.2260
    122  O         82.8080  -12.5070   75.3280 O.2   189  VAL189     -0.2867
    123  CB        80.9080  -12.4180   77.6270 C.3   189  VAL189      0.0252
    124  CG1       82.0130  -12.5180   78.6790 C.3   189  VAL189      0.0019
    125  CG2       79.5370  -12.2070   78.2720 C.3   189  VAL189      0.0019
    126  N         85.2330  -16.3570   85.4290 N.3   196  PHE196     -0.1241
    127  CA        83.9400  -15.9430   84.8800 C.3   196  PHE196      0.1605
    128  C         82.7390  -16.8570   85.2380 C.2   196  PHE196      0.2264
    129  O         81.6970  -16.3450   85.6480 O.2   196  PHE196     -0.2867
    130  CB        84.0270  -15.7200   83.3610 C.3   196  PHE196      0.0534
    131  CG        82.7200  -15.3130   82.7530 C.ar  196  PHE196     -0.0203
    132  CD1       82.2880  -14.0000   82.8280 C.ar  196  PHE196     -0.0042
    133  CD2       81.8790  -16.2610   82.1890 C.ar  196  PHE196     -0.0042
    134  CE1       81.0620  -13.6140   82.2900 C.ar  196  PHE196     -0.0003
    135  CE2       80.6410  -15.8880   81.6600 C.ar  196  PHE196     -0.0003
    136  CZ        80.2390  -14.5620   81.7100 C.ar  196  PHE196     -0.0000
    137  N         81.5960  -16.1140   88.7480 N.3   199  ALA199     -0.1231
    138  CA        81.0190  -14.7780   88.8210 C.3   199  ALA199      0.1694
    139  C         79.6400  -14.7380   88.1600 C.2   199  ALA199      0.2592
    140  O         78.6910  -14.1880   88.7200 O.2   199  ALA199     -0.2718
    141  CB        81.9370  -13.7750   88.1720 C.3   199  ALA199      0.0304
    142  N         79.5320  -15.3360   86.9770 N.am  200  PHE200     -0.1976
    143  CA        78.2730  -15.3420   86.2520 C.3   200  PHE200      0.1639
    144  C         77.1730  -16.0600   87.0320 C.2   200  PHE200      0.2290
    145  O         76.0190  -15.6220   87.0360 O.2   200  PHE200     -0.2864
    146  CB        78.4250  -15.9660   84.8550 C.3   200  PHE200      0.0560
    147  CG        77.1360  -15.9910   84.0850 C.ar  200  PHE200     -0.0200
    148  CD1       76.5410  -14.8000   83.6850 C.ar  200  PHE200     -0.0042
    149  CD2       76.4910  -17.1870   83.8010 C.ar  200  PHE200     -0.0042
    150  CE1       75.3390  -14.8080   82.9960 C.ar  200  PHE200     -0.0003
    151  CE2       75.2890  -17.1960   83.1040 C.ar  200  PHE200     -0.0003
    152  CZ        74.7200  -16.0080   82.7010 C.ar  200  PHE200     -0.0000
    153  N         76.5230  -15.9810   90.0520 N.3   202  LEU202     -0.1231
    154  CA        75.9440  -15.0960   91.0560 C.3   202  LEU202      0.1693
    155  C         74.8500  -14.1800   90.5210 C.2   202  LEU202      0.2591
    156  O         74.0160  -13.7110   91.2990 O.2   202  LEU202     -0.2718
    157  CB        77.0300  -14.2360   91.7050 C.3   202  LEU202      0.0284
    158  CG        78.1610  -14.9670   92.3990 C.3   202  LEU202      0.0019
    159  CD1       79.2710  -13.9970   92.7380 C.3   202  LEU202      0.0001
    160  CD2       77.6450  -15.6760   93.6450 C.3   202  LEU202      0.0001
    161  N         74.8540  -13.8940   89.2190 N.am  203  VAL203     -0.1980
    162  CA        73.8760  -12.9600   88.6530 C.3   203  VAL203      0.1595
    163  C         72.8640  -13.6120   87.7240 C.2   203  VAL203      0.2287
    164  O         71.8540  -12.9960   87.3890 O.2   203  VAL203     -0.2864
    165  CB        74.5420  -11.7830   87.8970 C.3   203  VAL203      0.0276
    166  CG1       75.3650  -10.9410   88.8640 C.3   203  VAL203      0.0022
    167  CG2       75.3850  -12.2590   86.7010 C.3   203  VAL203      0.0022
    168  N         68.5630  -12.4440   85.7540 N.3   207  MET207     -0.1245
    169  CA        68.1750  -12.1320   84.3870 C.3   207  MET207      0.1570
    170  C         67.1230  -13.1380   83.8730 C.2   207  MET207      0.2261
    171  O         66.9780  -14.2160   84.4120 O.2   207  MET207     -0.2867
    172  CB        69.4020  -12.0330   83.4900 C.3   207  MET207      0.0387
    173  CG        70.3330  -13.2020   83.4340 C.3   207  MET207      0.0595
    174  SD        71.8630  -12.8440   82.5150 S.3   207  MET207     -0.1393
    175  CE        72.8470  -11.9610   83.7090 C.3   207  MET207      0.0692
    176  N         73.1710  -14.1910   75.4250 N.3   215  ILE215     -0.1245
    177  CA        74.5720  -14.0910   75.8140 C.3   215  ILE215      0.1561
    178  C         75.4380  -14.8770   74.8300 C.2   215  ILE215      0.2260
    179  O         75.1120  -16.0120   74.4650 O.2   215  ILE215     -0.2867
    180  CB        74.8210  -14.6260   77.2470 C.3   215  ILE215      0.0252
    181  CG1       74.0280  -13.7920   78.2480 C.3   215  ILE215      0.0019
    182  CG2       76.3110  -14.5770   77.5750 C.3   215  ILE215      0.0019
    183  CD1       74.1270  -14.2660   79.6870 C.3   215  ILE215      0.0001
@<TRIPOS>BOND
     1   111   112    1
     2   179   178    2
     3   178   177    1
     4   113   114    2
     5   113   112    1
     6   122   121    2
     7   176   177    1
     8   112   115    1
     9   119   120    1
    10   177   180    1
    11   121   120    1
    12   117   116    1
    13   120   123    1
    14   115   116    1
    15    24    25    1
    16   180   182    1
    17   180   181    1
    18   116   118    1
    19   123   125    1
    20   123   124    1
    21    27    26    2
    22   181   183    1
    23    25    26    1
    24    25    28    1
    25    30    32   ar
    26    30    29   ar
    27    32    34   ar
    28    28    29    1
    29    29    31   ar
    30    34    33   ar
    31    35    36    1
    32    31    33   ar
    33    40    39    1
    34    40    41    1
    35    39    36    1
    36    36    37    1
    37   135   136   ar
    38   135   133   ar
    39   136   134   ar
    40    41    42    1
    41    37    38    2
    42   133   131   ar
    43   134   132   ar
    44   174   173    1
    45   174   175    1
    46   152   150   ar
    47   152   151   ar
    48   131   132   ar
    49   131   130    1
    50     1     2    1
    51   150   148   ar
    52   151   149   ar
    53   108   110   ar
    54   108   106   ar
    55   130   127    1
    56   173   172    1
    57   172   169    1
    58   148   147   ar
    59     6     5    1
    60     6     8    1
    61   110   109   ar
    62   149   147   ar
    63   170   169    1
    64   170   171    2
    65   147   146    1
    66   106   105   ar
    67     5     2    1
    68     5     7    1
    69     2     3    1
    70   169   168    1
    71   146   143    1
    72   127   128    1
    73   127   126    1
    74     3     4    2
    75   109   107   ar
    76   128   129    2
    77    99    98    1
    78   105   107   ar
    79   105   104    1
    80    43    44    1
    81   103   102    2
    82    97    98   ar
    83    97    95   ar
    84    47    44    1
    85    47    48    1
    86    50    48    1
    87   143   142    1
    88   143   144    1
    89    98    96   ar
    90   104   101    1
    91   101   102    1
    92   101   100    1
    93     9    10    1
    94    44    45    1
    95   167   165    1
    96    95    93   ar
    97    48    49    1
    98   142   139   am
    99   144   145    2
   100   164   163    2
   101    46    45    2
   102    13    10    1
   103    13    14    1
   104    96    94   ar
   105    15    14    1
   106    10    11    1
   107   163   162    1
   108   165   162    1
   109   165   166    1
   110    93    94   ar
   111    93    92    1
   112   139   140    2
   113   139   138    1
   114    16    14    1
   115   141   138    1
   116   162   161    1
   117   137   138    1
   118    91    90    2
   119    60    59   ar
   120    60    58   ar
   121    59    57   ar
   122    11    12    2
   123    92    89    1
   124   161   155   am
   125    58    56   ar
   126    57    56   ar
   127    90    89    1
   128    89    88    1
   129    56    55    1
   130   153   154    1
   131   155   154    1
   132   155   156    2
   133    55    52    1
   134    84    83    2
   135   154   157    1
   136    88    83   am
   137    23    17    1
   138    23    22    1
   139    86    85    1
   140    83    82    1
   141   157   158    1
   142    68    66    1
   143    17    18    1
   144    22    21    1
   145    52    51    1
   146    52    53    1
   147    21    18    1
   148   158   159    1
   149   158   160    1
   150    85    82    1
   151    85    87    1
   152    18    19    1
   153    54    53    2
   154    77    76    2
   155    53    61   am
   156    82    81    1
   157    66    67    1
   158    66    65    1
   159    72    71    2
   160    79    78    1
   161    61    62    1
   162    75    76    1
   163    75    78    1
   164    75    74    1
   165    80    78    1
   166    71    74   am
   167    71    70    1
   168    19    20    2
   169    62    65    1
   170    62    63    1
   171    73    70    1
   172    70    69    1
   173    63    64    2
