@<TRIPOS>MOLECULE
tmp/4tllA03.pdb
 94 90 0 0 0
SMALL
GASTEIGER

@<TRIPOS>ATOM
      1  N        116.8030   71.0260  401.6160 N.3    53  ALA53      -0.1245
      2  CA       117.6290   70.4780  402.6900 C.3    53  ALA53       0.1562
      3  C        118.8660   69.8460  402.0680 C.2    53  ALA53       0.2260
      4  O        119.9820   69.9300  402.6080 O.2    53  ALA53      -0.2867
      5  CB       116.8540   69.4580  403.5080 C.3    53  ALA53       0.0290
      6  N        114.0120   73.4740  407.4610 N.3    84  PRO84      -0.2116
      7  CA       115.0100   72.4290  407.1890 C.3    84  PRO84       0.1372
      8  C        116.4360   72.9530  407.1690 C.2    84  PRO84       0.2244
      9  O        117.3750   72.1900  407.3780 O.2    84  PRO84      -0.2868
     10  CB       114.6200   71.9130  405.7980 C.3    84  PRO84       0.0268
     11  CG       113.2400   72.4040  405.5580 C.3    84  PRO84       0.0207
     12  CD       113.1510   73.6990  406.2870 C.3    84  PRO84       0.0892
     13  N        117.5130   75.4530  409.2050 N.3    86  SER86      -0.1202
     14  CA       117.8470   75.5690  410.6210 C.3    86  SER86       0.2020
     15  C        118.1540   74.2130  411.2320 C.2    86  SER86       0.2619
     16  O        119.0100   74.0970  412.1110 O.2    86  SER86      -0.2717
     17  CB       116.7070   76.2260  411.3980 C.3    86  SER86       0.2103
     18  OG       116.8750   76.0330  412.7940 O.3    86  SER86      -0.2182
     19  N        117.4590   73.1900  410.7430 N.am   87  TYR87      -0.1961
     20  CA       117.7020   71.8180  411.1670 C.3    87  TYR87       0.1771
     21  C        119.0830   71.3680  410.7180 C.2    87  TYR87       0.2620
     22  O        119.9240   70.9670  411.5230 O.2    87  TYR87      -0.2715
     23  CB       116.6570   70.8650  410.5820 C.3    87  TYR87       0.0574
     24  CG       115.3020   70.9260  411.2380 C.ar   87  TYR87      -0.0198
     25  CD1      115.0920   71.6820  412.3830 C.ar   87  TYR87      -0.0009
     26  CD2      114.2300   70.2140  410.7160 C.ar   87  TYR87      -0.0009
     27  CE1      113.8450   71.7400  412.9820 C.ar   87  TYR87       0.0417
     28  CE2      112.9860   70.2580  411.3120 C.ar   87  TYR87       0.0417
     29  CZ       112.7970   71.0250  412.4430 C.ar   87  TYR87       0.1957
     30  OH       111.5570   71.0730  413.0370 O.3    87  TYR87      -0.2866
     31  N        119.3030   71.4480  409.4110 N.am   88  THR88      -0.1951
     32  CA       120.5000   70.8940  408.8100 C.3    88  THR88       0.1897
     33  C        121.7270   71.5910  409.3540 C.2    88  THR88       0.2313
     34  O        122.6370   70.9480  409.8720 O.2    88  THR88      -0.2863
     35  CB       120.4780   71.0450  407.2730 C.3    88  THR88       0.1794
     36  OG1      119.2120   70.6080  406.7610 O.3    88  THR88      -0.2208
     37  CG2      121.5980   70.2370  406.6340 C.3    88  THR88       0.0378
     38  N        121.8300   73.4200  411.9970 N.3    90  GLY90      -0.1210
     39  CA       121.8340   73.3350  413.4460 C.3    90  GLY90       0.1956
     40  C        122.4160   72.0460  413.9880 C.2    90  GLY90       0.2611
     41  O        122.9800   72.0260  415.0850 O.2    90  GLY90      -0.2717
     42  N        122.2660   70.9680  413.2240 N.am   91  PHE91      -0.1976
     43  CA       122.8840   69.6890  413.5520 C.3    91  PHE91       0.1639
     44  C        124.3840   69.8740  413.7110 C.2    91  PHE91       0.2290
     45  O        124.9880   69.3440  414.6390 O.2    91  PHE91      -0.2864
     46  CB       122.5530   68.6340  412.4950 C.3    91  PHE91       0.0560
     47  CG       123.1900   67.2970  412.7490 C.ar   91  PHE91      -0.0200
     48  CD1      123.3030   66.8020  414.0400 C.ar   91  PHE91      -0.0042
     49  CD2      123.5980   66.5020  411.6950 C.ar   91  PHE91      -0.0042
     50  CE1      123.8720   65.5670  414.2780 C.ar   91  PHE91      -0.0003
     51  CE2      124.1550   65.2590  411.9260 C.ar   91  PHE91      -0.0003
     52  CZ       124.2880   64.7900  413.2200 C.ar   91  PHE91      -0.0000
     53  N        125.5870   72.7180  414.2420 N.3    93  ARG93      -0.1245
     54  CA       125.6570   73.9450  415.0330 C.3    93  ARG93       0.1563
     55  C        126.1550   75.1230  414.2030 C.2    93  ARG93       0.2260
     56  O        126.7640   76.0520  414.7340 O.2    93  ARG93      -0.2867
     57  CB       126.5510   73.7560  416.2610 C.3    93  ARG93       0.0307
     58  CG       126.1440   72.6040  417.1550 C.3    93  ARG93       0.0489
     59  CD       124.7520   72.8010  417.7270 C.3    93  ARG93       0.2205
     60  NE       124.3850   71.7110  418.6270 N.pl3  93  ARG93      -0.0865
     61  CZ       123.7740   70.5950  418.2410 C.cat  93  ARG93       0.5346
     62  NH1      123.4520   70.4140  416.9670 N.pl3  93  ARG93       0.1354
     63  NH2      123.4830   69.6560  419.1320 N.pl3  93  ARG93       0.1354
     64  N        114.5930   77.5800  421.5130 N.3   109  LYS109     -0.1231
     65  CA       115.9570   77.0600  421.4880 C.3   109  LYS109      0.1693
     66  C        116.0030   75.5400  421.5340 C.2   109  LYS109      0.2593
     67  O        117.0280   74.9400  421.2040 O.2   109  LYS109     -0.2718
     68  CB       116.7670   77.6160  422.6580 C.3   109  LYS109      0.0285
     69  CG       117.0890   79.0930  422.5580 C.3   109  LYS109      0.0035
     70  CD       117.9660   79.5410  423.7250 C.3   109  LYS109      0.0206
     71  CE       117.3030   79.2600  425.0680 C.3   109  LYS109      0.1093
     72  NZ       118.0220   79.9330  426.1830 N.3   109  LYS109     -0.1314
     73  N        114.9030   74.9170  421.9500 N.am  110  SER110     -0.1938
     74  CA       114.8340   73.4630  421.9570 C.3   110  SER110      0.2055
     75  C        114.7750   72.9540  420.5240 C.2   110  SER110      0.2642
     76  O        115.5720   72.1100  420.1270 O.2   110  SER110     -0.2714
     77  CB       113.6190   72.9700  422.7440 C.3   110  SER110      0.2130
     78  OG       112.4200   73.1720  422.0160 O.3   110  SER110     -0.2179
     79  N        113.8170   73.4690  419.7560 N.am  111  ILE111     -0.1977
     80  CA       113.6450   73.0630  418.3640 C.3   111  ILE111      0.1596
     81  C        114.6390   73.7170  417.3950 C.2   111  ILE111      0.2287
     82  O        115.2520   73.0200  416.5880 O.2   111  ILE111     -0.2864
     83  CB       112.2190   73.3300  417.8850 C.3   111  ILE111      0.0276
     84  CG1      111.2230   72.7050  418.8630 C.3   111  ILE111      0.0022
     85  CG2      112.0170   72.7370  416.5090 C.3   111  ILE111      0.0022
     86  CD1      109.8030   72.6360  418.3410 C.3   111  ILE111      0.0001
     87  N        118.0920   75.7690  417.4230 N.3   113  LEU113     -0.1245
     88  CA       119.2040   76.3200  418.1880 C.3   113  LEU113      0.1561
     89  C        120.0490   77.3560  417.4440 C.2   113  LEU113      0.2260
     90  O        120.4420   78.3740  418.0070 O.2   113  LEU113     -0.2867
     91  CB       120.1040   75.1920  418.6770 C.3   113  LEU113      0.0270
     92  CG       121.0580   75.6450  419.7750 C.3   113  LEU113      0.0019
     93  CD1      121.0240   74.6720  420.9330 C.3   113  LEU113      0.0001
     94  CD2      122.4690   75.8020  419.2260 C.3   113  LEU113      0.0001
@<TRIPOS>BOND
     1     1     2    1
     2     3     4    2
     3     3     2    1
     4     2     5    1
     5    11    10    1
     6    11    12    1
     7    10     7    1
     8    12     6    1
     9    37    35    1
    10    36    35    1
    11     8     7    1
    12     8     9    2
    13     7     6    1
    14    35    32    1
    15    32    33    1
    16    32    31    1
    17    13    14    1
    18    33    34    2
    19    31    21   am
    20    23    20    1
    21    23    24    1
    22    14    15    1
    23    14    17    1
    24    26    24   ar
    25    26    28   ar
    26    21    20    1
    27    21    22    2
    28    19    20    1
    29    19    15   am
    30    15    16    2
    31    24    25   ar
    32    28    29   ar
    33    17    18    1
    34    49    51   ar
    35    49    47   ar
    36    51    52   ar
    37    38    39    1
    38    25    27   ar
    39    29    27   ar
    40    29    30    1
    41    46    47    1
    42    46    43    1
    43    47    48   ar
    44    52    50   ar
    45    42    43    1
    46    42    40   am
    47    39    40    1
    48    43    44    1
    49    44    45    2
    50    40    41    2
    51    48    50   ar
    52    55    56    2
    53    55    54    1
    54    53    54    1
    55    54    57    1
    56    57    58    1
    57    85    83    1
    58    82    81    2
    59    62    61    1
    60    58    59    1
    61    81    80    1
    62    87    88    1
    63    89    90    2
    64    89    88    1
    65    59    60    1
    66    83    80    1
    67    83    84    1
    68    88    91    1
    69    61    60    2
    70    61    63    1
    71    86    84    1
    72    80    79    1
    73    91    92    1
    74    94    92    1
    75    79    75   am
    76    92    93    1
    77    76    75    2
    78    75    74    1
    79    67    66    2
    80    65    64    1
    81    65    66    1
    82    65    68    1
    83    66    73   am
    84    73    74    1
    85    74    77    1
    86    78    77    1
    87    69    68    1
    88    69    70    1
    89    70    71    1
    90    71    72    1
