@<TRIPOS>MOLECULE
tmp/4tllD00.pdb
 133 129 0 0 0
SMALL
GASTEIGER

@<TRIPOS>ATOM
      1  N        165.0140   91.6510  447.0850 N.3    40  PRO40      -0.2102
      2  CA       165.8180   91.0400  448.1520 C.3    40  PRO40       0.1504
      3  C        167.3240   91.2550  448.0260 C.2    40  PRO40       0.2575
      4  O        167.9620   91.5600  449.0300 O.2    40  PRO40      -0.2718
      5  CB       165.4840   89.5520  448.0250 C.3    40  PRO40       0.0282
      6  CG       164.1160   89.5370  447.4840 C.3    40  PRO40       0.0208
      7  CD       164.0510   90.6870  446.5240 C.3    40  PRO40       0.0893
      8  N        167.8860   91.0890  446.8330 N.am   41  LYS41      -0.1980
      9  CA       169.3240   91.2680  446.6620 C.3    41  LYS41       0.1596
     10  C        169.7020   92.7230  446.8750 C.2    41  LYS41       0.2287
     11  O        170.7350   93.0210  447.4640 O.2    41  LYS41      -0.2864
     12  CB       169.7790   90.8110  445.2780 C.3    41  LYS41       0.0298
     13  CG       169.3680   89.3870  444.9280 C.3    41  LYS41       0.0038
     14  CD       170.1160   88.3590  445.7610 C.3    41  LYS41       0.0206
     15  CE       169.6570   86.9410  445.4720 C.3    41  LYS41       0.1093
     16  NZ       168.4320   86.5710  446.2360 N.3    41  LYS41      -0.1314
     17  N        169.3530   93.3670  450.8170 N.3    44  ILE44      -0.1245
     18  CA       170.4380   92.7090  451.5380 C.3    44  ILE44       0.1561
     19  C        171.8000   93.3430  451.2440 C.2    44  ILE44       0.2260
     20  O        172.5810   93.6050  452.1620 O.2    44  ILE44      -0.2867
     21  CB       170.5000   91.2030  451.1940 C.3    44  ILE44       0.0252
     22  CG1      169.2850   90.4720  451.7690 C.3    44  ILE44       0.0019
     23  CG2      171.7900   90.5800  451.7070 C.3    44  ILE44       0.0019
     24  CD1      169.3220   88.9730  451.5660 C.3    44  ILE44       0.0001
     25  N        154.6360   92.0570  450.8130 N.3    68  GLU68      -0.1231
     26  CA       154.6270   91.5550  452.1780 C.3    68  GLU68       0.1699
     27  C        155.8910   90.7450  452.4160 C.2    68  GLU68       0.2592
     28  O        156.1750   90.3210  453.5350 O.2    68  GLU68      -0.2718
     29  CB       153.3940   90.6880  452.4240 C.3    68  GLU68       0.0402
     30  CG       153.3290   89.4460  451.5370 C.3    68  GLU68       0.1161
     31  CD       152.8040   89.7360  450.1390 C.2    68  GLU68       0.3649
     32  OE1      152.3340   90.8670  449.8990 O.co2  68  GLU68      -0.2457
     33  OE2      152.8600   88.8290  449.2810 O.co2  68  GLU68      -0.2457
     34  N        156.6370   90.5260  451.3390 N.am   69  ALA69      -0.1980
     35  CA       157.8740   89.7620  451.3820 C.3    69  ALA69       0.1597
     36  C        158.9640   90.5290  452.1190 C.2    69  ALA69       0.2287
     37  O        159.8880   89.9330  452.6740 O.2    69  ALA69      -0.2864
     38  CB       158.3270   89.4200  449.9780 C.3    69  ALA69       0.0319
     39  N        159.4590   89.5580  455.6310 N.3    72  GLN72      -0.1231
     40  CA       160.1420   88.2720  455.7170 C.3    72  GLN72       0.1698
     41  C        161.6450   88.4320  455.5120 C.2    72  GLN72       0.2592
     42  O        162.4390   87.8150  456.2190 O.2    72  GLN72      -0.2718
     43  CB       159.5690   87.2790  454.7020 C.3    72  GLN72       0.0381
     44  CG       158.0480   87.2150  454.6860 C.3    72  GLN72       0.0905
     45  CD       157.5280   85.7920  454.6240 C.2    72  GLN72       0.2608
     46  OE1      158.2970   84.8350  454.7030 O.2    72  GLN72      -0.2717
     47  NE2      156.2170   85.6460  454.4810 N.am   72  GLN72      -0.0878
     48  N        162.0290   89.2420  454.5280 N.am   73  ILE73      -0.1980
     49  CA       163.4370   89.5520  454.3050 C.3    73  ILE73       0.1595
     50  C        164.0580   90.1820  455.5490 C.2    73  ILE73       0.2287
     51  O        165.0510   89.6850  456.0790 O.2    73  ILE73      -0.2864
     52  CB       163.6310   90.5020  453.1060 C.3    73  ILE73       0.0276
     53  CG1      163.0120   89.9090  451.8480 C.3    73  ILE73       0.0022
     54  CG2      165.1150   90.7970  452.9110 C.3    73  ILE73       0.0022
     55  CD1      163.0030   90.9740  450.7420 C.3    73  ILE73       0.0001
     56  N        164.4020   87.8460  458.3530 N.3    76  PHE76      -0.1241
     57  CA       165.4640   86.8940  458.0540 C.3    76  PHE76       0.1605
     58  C        166.8340   87.4900  458.3720 C.2    76  PHE76       0.2264
     59  O        167.6900   86.8320  458.9740 O.2    76  PHE76      -0.2867
     60  CB       165.3730   86.4760  456.5820 C.3    76  PHE76       0.0534
     61  CG       166.5800   85.7480  456.0700 C.ar   76  PHE76      -0.0203
     62  CD1      166.7990   84.4200  456.3940 C.ar   76  PHE76      -0.0042
     63  CD2      167.4830   86.3880  455.2370 C.ar   76  PHE76      -0.0042
     64  CE1      167.9080   83.7500  455.9110 C.ar   76  PHE76      -0.0003
     65  CE2      168.5910   85.7250  454.7510 C.ar   76  PHE76      -0.0003
     66  CZ       168.8040   84.4040  455.0880 C.ar   76  PHE76      -0.0000
     67  N        143.8360   81.9750  452.6550 N.3   136  THR136     -0.1203
     68  CA       144.8150   81.3040  451.8180 C.3   136  THR136      0.1994
     69  C        145.7540   80.5340  452.7100 C.2   136  THR136      0.2618
     70  O        145.5610   80.4910  453.9200 O.2   136  THR136     -0.2717
     71  CB       145.5980   82.2940  450.9430 C.3   136  THR136      0.1784
     72  OG1      146.1530   83.3270  451.7660 O.3   136  THR136     -0.2211
     73  CG2      144.6770   82.9180  449.9020 C.3   136  THR136      0.0376
     74  N        146.7680   79.9190  452.1220 N.am  137  TYR137     -0.1961
     75  CA       147.7180   79.1740  452.9220 C.3   137  TYR137      0.1771
     76  C        148.8970   80.0620  453.3020 C.2   137  TYR137      0.2620
     77  O        149.8640   79.5960  453.9010 O.2   137  TYR137     -0.2715
     78  CB       148.1720   77.9250  452.1760 C.3   137  TYR137      0.0574
     79  CG       147.1720   76.8000  452.2990 C.ar  137  TYR137     -0.0198
     80  CD1      146.6460   76.4500  453.5360 C.ar  137  TYR137     -0.0009
     81  CD2      146.7320   76.1080  451.1810 C.ar  137  TYR137     -0.0009
     82  CE1      145.7230   75.4300  453.6580 C.ar  137  TYR137      0.0417
     83  CE2      145.8080   75.0860  451.2920 C.ar  137  TYR137      0.0417
     84  CZ       145.3070   74.7510  452.5340 C.ar  137  TYR137      0.1957
     85  OH       144.3870   73.7350  452.6520 O.3   137  TYR137     -0.2866
     86  N        148.8110   81.3390  452.9330 N.am  138  PHE138     -0.1960
     87  CA       149.7760   82.3410  453.3770 C.3   138  PHE138      0.1756
     88  C        149.8650   82.3250  454.8970 C.2   138  PHE138      0.2461
     89  O        148.8590   82.1130  455.5720 O.2   138  PHE138     -0.2730
     90  CB       149.3850   83.7350  452.8700 C.3   138  PHE138      0.0574
     91  CG       150.3640   84.8170  453.2390 C.ar  138  PHE138     -0.0200
     92  CD1      151.5220   85.0070  452.5000 C.ar  138  PHE138     -0.0042
     93  CD2      150.1180   85.6560  454.3130 C.ar  138  PHE138     -0.0042
     94  CE1      152.4240   86.0000  452.8370 C.ar  138  PHE138     -0.0003
     95  CE2      151.0120   86.6530  454.6510 C.ar  138  PHE138     -0.0003
     96  CZ       152.1660   86.8260  453.9110 C.ar  138  PHE138     -0.0000
     97  N        151.0740   82.5330  455.4390 N.am  139  PRO139     -0.2727
     98  CA       151.3010   82.5260  456.8850 C.3   139  PRO139      0.1402
     99  C        150.3030   83.3820  457.6630 C.2   139  PRO139      0.2269
    100  O        150.0250   84.5140  457.2740 O.2   139  PRO139     -0.2865
    101  CB       152.7140   83.0980  456.9980 C.3   139  PRO139      0.0296
    102  CG       153.3960   82.6040  455.7760 C.3   139  PRO139      0.0237
    103  CD       152.3450   82.5500  454.6920 C.3   139  PRO139      0.0939
    104  N        147.0410   78.8080  446.9100 N.3   169  MET169     -0.1230
    105  CA       147.4980   79.6920  445.8400 C.3   169  MET169      0.1702
    106  C        148.8350   79.2360  445.2600 C.2   169  MET169      0.2593
    107  O        149.3800   79.8610  444.3490 O.2   169  MET169     -0.2718
    108  CB       147.6100   81.1300  446.3500 C.3   169  MET169      0.0401
    109  CG       146.3510   81.6470  447.0250 C.3   169  MET169      0.0596
    110  SD       144.8970   81.6330  445.9540 S.3   169  MET169     -0.1393
    111  CE       145.4010   82.7630  444.6570 C.3   169  MET169      0.0692
    112  N        149.3550   78.1410  445.8000 N.am  170  SER170     -0.1952
    113  CA       150.6240   77.5750  445.3630 C.3   170  SER170      0.1924
    114  C        150.5100   76.9590  443.9710 C.2   170  SER170      0.2314
    115  O        151.5140   76.7740  443.2840 O.2   170  SER170     -0.2863
    116  CB       151.1210   76.5300  446.3620 C.3   170  SER170      0.2116
    117  OG       150.2920   75.3830  446.3580 O.3   170  SER170     -0.2180
    118  N        147.2010   87.9970  451.0310 N.3   195  THR195     -0.1218
    119  CA       148.0000   89.1460  450.6260 C.3   195  THR195      0.1862
    120  C        147.2730   89.9450  449.5510 C.2   195  THR195      0.2287
    121  O        146.2480   89.5010  449.0330 O.2   195  THR195     -0.2866
    122  CB       149.3770   88.7190  450.1090 C.3   195  THR195      0.1770
    123  OG1      149.2250   87.9250  448.9280 O.3   195  THR195     -0.2211
    124  CG2      150.0920   87.9090  451.1630 C.3   195  THR195      0.0375
    125  N        146.8770   88.2510  446.1770 N.3   198  GLU198     -0.1245
    126  CA       145.9360   87.1720  446.4170 C.3   198  GLU198      0.1567
    127  C        144.5480   87.7670  446.5020 C.2   198  GLU198      0.2260
    128  O        143.6090   87.2320  445.9280 O.2   198  GLU198     -0.2867
    129  CB       146.2760   86.4070  447.7000 C.3   198  GLU198      0.0388
    130  CG       147.5000   85.5070  447.6020 C.3   198  GLU198      0.1160
    131  CD       148.0610   85.1310  448.9640 C.2   198  GLU198      0.3649
    132  OE1      147.6900   85.7820  449.9640 O.co2 198  GLU198     -0.2457
    133  OE2      148.8740   84.1840  449.0350 O.co2 198  GLU198     -0.2457
@<TRIPOS>BOND
     1   115   114    2
     2   114   113    1
     3   107   106    2
     4   111   110    1
     5    13    12    1
     6    13    14    1
     7   106   112   am
     8   106   105    1
     9    12     9    1
    10   113   112    1
    11   113   116    1
    12    15    14    1
    13    15    16    1
    14   105   108    1
    15   105   104    1
    16   128   127    2
    17   110   109    1
    18   125   126    1
    19   108   109    1
    20   117   116    1
    21   126   127    1
    22   126   129    1
    23     7     1    1
    24     7     6    1
    25     9     8    1
    26     9    10    1
    27     8     3   am
    28    10    11    2
    29     1     2    1
    30     6     5    1
    31   130   129    1
    32   130   131    1
    33     5     2    1
    34     3     2    1
    35     3     4    2
    36   123   122    1
    37   131   133   ar
    38   131   132   ar
    39   121   120    2
    40    33    31   ar
    41   120   119    1
    42    32    31   ar
    43    73    71    1
    44    38    35    1
    45   122   119    1
    46   122   124    1
    47    31    30    1
    48   119   118    1
    49    55    53    1
    50    25    26    1
    51    17    18    1
    52    71    72    1
    53    71    68    1
    54    81    83   ar
    55    81    79   ar
    56    21    18    1
    57    21    23    1
    58    21    22    1
    59    19    18    1
    60    19    20    2
    61    83    84   ar
    62    34    35    1
    63    34    27   am
    64    35    36    1
    65    30    29    1
    66    24    22    1
    67    68    67    1
    68    68    69    1
    69    53    52    1
    70    36    37    2
    71    74    69   am
    72    74    75    1
    73    78    79    1
    74    78    75    1
    75    26    27    1
    76    26    29    1
    77    79    80   ar
    78    27    28    2
    79    92    94   ar
    80    92    91   ar
    81    84    85    1
    82    84    82   ar
    83    69    70    2
    84    94    96   ar
    85    90    91    1
    86    90    87    1
    87    54    52    1
    88    75    76    1
    89    86    76   am
    90    86    87    1
    91    52    49    1
    92    91    93   ar
    93    76    77    2
    94    87    88    1
    95    80    82   ar
    96    96    95   ar
    97    49    48    1
    98    49    50    1
    99    93    95   ar
   100    47    45   am
   101    48    41   am
   102    45    44    1
   103    45    46    2
   104    44    43    1
   105   103    97    1
   106   103   102    1
   107    43    40    1
   108    65    66   ar
   109    65    63   ar
   110    88    97   am
   111    88    89    2
   112    66    64   ar
   113    63    61   ar
   114    97    98    1
   115    41    40    1
   116    41    42    2
   117    50    51    2
   118    39    40    1
   119   102   101    1
   120    64    62   ar
   121    61    62   ar
   122    61    60    1
   123    60    57    1
   124    98   101    1
   125    98    99    1
   126   100    99    2
   127    57    56    1
   128    57    58    1
   129    58    59    2
