@<TRIPOS>MOLECULE
tmp/4tllA02.pdb
 96 95 0 0 0
SMALL
GASTEIGER

@<TRIPOS>ATOM
      1  N         83.6590   73.2260  447.4670 N.3   460  PHE460     -0.1241
      2  CA        84.1590   74.5940  447.5660 C.3   460  PHE460      0.1605
      3  C         85.1090   74.9380  446.4280 C.2   460  PHE460      0.2264
      4  O         84.7690   75.7160  445.5360 O.2   460  PHE460     -0.2867
      5  CB        84.8590   74.8060  448.9090 C.3   460  PHE460      0.0534
      6  CG        83.9580   74.6210  450.0950 C.ar  460  PHE460     -0.0203
      7  CD1       83.7070   73.3570  450.6000 C.ar  460  PHE460     -0.0042
      8  CD2       83.3640   75.7130  450.7060 C.ar  460  PHE460     -0.0042
      9  CE1       82.8760   73.1830  451.6880 C.ar  460  PHE460     -0.0003
     10  CE2       82.5350   75.5460  451.7980 C.ar  460  PHE460     -0.0003
     11  CZ        82.2900   74.2800  452.2870 C.ar  460  PHE460     -0.0000
     12  N         81.3900   80.2580  453.2780 N.3   492  PRO492     -0.2102
     13  CA        82.5110   80.0100  454.1870 C.3   492  PRO492      0.1504
     14  C         83.6700   79.2920  453.4990 C.2   492  PRO492      0.2576
     15  O         83.8730   78.0980  453.7130 O.2   492  PRO492     -0.2718
     16  CB        81.8910   79.1250  455.2710 C.3   492  PRO492      0.0282
     17  CG        80.7590   78.4420  454.5880 C.3   492  PRO492      0.0208
     18  CD        80.2030   79.4620  453.6370 C.3   492  PRO492      0.0893
     19  N         84.4160   80.0240  452.6760 N.am  493  LEU493     -0.1966
     20  CA        85.5750   79.4700  451.9860 C.3   493  LEU493      0.1728
     21  C         86.8300   79.7580  452.8000 C.2   493  LEU493      0.2616
     22  O         87.2170   80.9140  452.9700 O.2   493  LEU493     -0.2715
     23  CB        85.7050   80.0520  450.5770 C.3   493  LEU493      0.0311
     24  CG        86.8140   79.4980  449.6980 C.3   493  LEU493      0.0022
     25  CD1       86.4200   78.1720  449.0380 C.3   493  LEU493      0.0001
     26  CD2       87.1190   80.5660  448.6760 C.3   493  LEU493      0.0001
     27  N         87.4570   78.7000  453.3030 N.am  494  THR494     -0.1951
     28  CA        88.6420   78.8340  454.1440 C.3   494  THR494      0.1897
     29  C         89.8320   79.4360  453.4050 C.2   494  THR494      0.2313
     30  O         90.1700   79.0090  452.3020 O.2   494  THR494     -0.2863
     31  CB        89.0610   77.4680  454.7230 C.3   494  THR494      0.1794
     32  OG1       87.9480   76.8670  455.3950 O.3   494  THR494     -0.2208
     33  CG2       90.2140   77.6300  455.7030 C.3   494  THR494      0.0378
     34  N         94.9240   78.5520  447.5860 N.3   499  ARG499     -0.1245
     35  CA        93.8340   79.2570  446.9190 C.3   499  ARG499      0.1563
     36  C         94.1510   80.7380  446.7460 C.2   499  ARG499      0.2260
     37  O         93.6680   81.3740  445.8090 O.2   499  ARG499     -0.2867
     38  CB        92.5220   79.0860  447.6860 C.3   499  ARG499      0.0307
     39  CG        91.9370   77.6860  447.5940 C.3   499  ARG499      0.0489
     40  CD        90.7330   77.5170  448.5050 C.3   499  ARG499      0.2205
     41  NE        90.2340   76.1450  448.4840 N.pl3 499  ARG499     -0.0865
     42  CZ        89.2730   75.6850  449.2780 C.cat 499  ARG499      0.5346
     43  NH1       88.7010   76.4870  450.1650 N.pl3 499  ARG499      0.1354
     44  NH2       88.8850   74.4200  449.1860 N.pl3 499  ARG499      0.1354
     45  N         88.3450   68.8300  449.7960 N.3   634  SER634     -0.1202
     46  CA        88.0460   70.0800  450.4870 C.3   634  SER634      0.2020
     47  C         89.3290   70.6610  451.0720 C.2   634  SER634      0.2619
     48  O         90.4030   70.0850  450.9030 O.2   634  SER634     -0.2717
     49  CB        87.0040   69.8600  451.5860 C.3   634  SER634      0.2103
     50  OG        87.4780   68.9560  452.5700 O.3   634  SER634     -0.2182
     51  N         89.2210   71.7990  451.7530 N.am  635  SER635     -0.1937
     52  CA        90.3980   72.4330  452.3380 C.3   635  SER635      0.2055
     53  C         91.0220   71.5480  453.4110 C.2   635  SER635      0.2642
     54  O         92.2410   71.5340  453.5800 O.2   635  SER635     -0.2714
     55  CB        90.0430   73.7950  452.9320 C.3   635  SER635      0.2130
     56  OG        89.5770   73.6590  454.2610 O.3   635  SER635     -0.2179
     57  N         90.1790   70.8170  454.1350 N.am  636  VAL636     -0.1977
     58  CA        90.6470   69.8800  455.1500 C.3   636  VAL636      0.1596
     59  C         91.4690   68.7770  454.4930 C.2   636  VAL636      0.2287
     60  O         92.5340   68.3920  454.9840 O.2   636  VAL636     -0.2864
     61  CB        89.4780   69.2550  455.9360 C.3   636  VAL636      0.0276
     62  CG1       90.0740   68.3180  456.9720 C.3   636  VAL636      0.0022
     63  CG2       88.6510   70.3490  456.6220 C.3   636  VAL636      0.0022
     64  N         86.4460   68.9570  460.9840 N.3   678  TRP678     -0.1227
     65  CA        85.8460   69.9670  460.1190 C.3   678  TRP678      0.1737
     66  C         86.0360   71.3540  460.7300 C.2   678  TRP678      0.2595
     67  O         86.6990   71.4970  461.7560 O.2   678  TRP678     -0.2718
     68  CB        84.3610   69.6670  459.8970 C.3   678  TRP678      0.0564
     69  CG        83.7370   70.3970  458.7410 C.ar  678  TRP678      0.0003
     70  CD1       82.7570   71.3450  458.8050 C.ar  678  TRP678      0.0946
     71  CD2       84.0530   70.2420  457.3530 C.ar  678  TRP678      0.0152
     72  NE1       82.4410   71.7860  457.5430 N.ar  678  TRP678     -0.2442
     73  CE2       83.2230   71.1250  456.6340 C.ar  678  TRP678      0.0810
     74  CE3       84.9550   69.4410  456.6490 C.ar  678  TRP678      0.0012
     75  CZ2       83.2680   71.2280  455.2470 C.ar  678  TRP678      0.0191
     76  CZ3       85.0010   69.5490  455.2730 C.ar  678  TRP678      0.0001
     77  CH2       84.1620   70.4340  454.5860 C.ar  678  TRP678      0.0015
     78  N         85.4530   72.3690  460.0990 N.am  679  ASP679     -0.1974
     79  CA        85.5230   73.7340  460.6070 C.3   679  ASP679      0.1709
     80  C         84.8190   73.8770  461.9530 C.2   679  ASP679      0.2293
     81  O         83.7570   73.2940  462.1660 O.2   679  ASP679     -0.2864
     82  CB        84.8990   74.7030  459.6040 C.3   679  ASP679      0.1436
     83  CG        85.3570   74.4490  458.1900 C.2   679  ASP679      0.3671
     84  OD1       86.4700   73.9140  458.0130 O.co2 679  ASP679     -0.2456
     85  OD2       84.6020   74.7860  457.2560 O.co2 679  ASP679     -0.2456
     86  N         87.3010   82.9110  457.2580 N.3   705  PHE705     -0.1241
     87  CA        86.4320   82.8150  456.0940 C.3   705  PHE705      0.1605
     88  C         86.3080   84.1870  455.4570 C.2   705  PHE705      0.2264
     89  O         86.1100   85.1770  456.1560 O.2   705  PHE705     -0.2867
     90  CB        85.0310   82.3280  456.4790 C.3   705  PHE705      0.0534
     91  CG        84.9670   80.9030  456.9350 C.ar  705  PHE705     -0.0203
     92  CD1       85.8790   79.9660  456.4860 C.ar  705  PHE705     -0.0042
     93  CD2       83.9680   80.4980  457.8050 C.ar  705  PHE705     -0.0042
     94  CE1       85.8020   78.6520  456.9070 C.ar  705  PHE705     -0.0003
     95  CE2       83.8860   79.1900  458.2290 C.ar  705  PHE705     -0.0003
     96  CZ        84.8020   78.2640  457.7780 C.ar  705  PHE705     -0.0000
@<TRIPOS>BOND
     1     4     3    2
     2    37    36    2
     3     3     2    1
     4    36    35    1
     5    35    34    1
     6    35    38    1
     7     1     2    1
     8     2     5    1
     9    39    38    1
    10    39    40    1
    11    41    40    1
    12    41    42    2
    13    26    24    1
    14     5     6    1
    15    25    24    1
    16    44    42    1
    17    42    43    1
    18    24    23    1
    19    45    46    1
    20     6     7   ar
    21     6     8   ar
    22    46    47    1
    23    46    49    1
    24    23    20    1
    25     7     9   ar
    26     8    10   ar
    27    48    47    2
    28    47    51   am
    29    49    50    1
    30     9    11   ar
    31    51    52    1
    32    10    11   ar
    33    20    19    1
    34    20    21    1
    35    30    29    2
    36    52    55    1
    37    52    53    1
    38    19    14   am
    39    21    22    2
    40    21    27   am
    41    55    56    1
    42    12    18    1
    43    12    13    1
    44    27    28    1
    45    29    28    1
    46    53    54    2
    47    53    57   am
    48    14    15    2
    49    14    13    1
    50    18    17    1
    51    57    58    1
    52    28    31    1
    53    13    16    1
    54    59    60    2
    55    59    58    1
    56    77    75   ar
    57    77    76   ar
    58    17    16    1
    59    31    32    1
    60    31    33    1
    61    58    61    1
    62    75    73   ar
    63    76    74   ar
    64    88    87    1
    65    88    89    2
    66    61    63    1
    67    61    62    1
    68    87    90    1
    69    87    86    1
    70    90    91    1
    71    92    94   ar
    72    92    91   ar
    73    73    71   ar
    74    73    72   ar
    75    74    71   ar
    76    94    96   ar
    77    91    93   ar
    78    85    83   ar
    79    71    69   ar
    80    72    70   ar
    81    96    95   ar
    82    93    95   ar
    83    84    83   ar
    84    83    82    1
    85    69    70   ar
    86    69    68    1
    87    82    79    1
    88    68    65    1
    89    78    79    1
    90    78    66   am
    91    65    66    1
    92    65    64    1
    93    79    80    1
    94    66    67    2
    95    80    81    2
