@<TRIPOS>MOLECULE
tmp/4tllD01.pdb
 85 80 0 0 0
SMALL
GASTEIGER

@<TRIPOS>ATOM
      1  N        101.1220  102.6490  470.6660 N.3   437  HIS437     -0.1241
      2  CA       100.5070  102.3050  469.3900 C.3   437  HIS437      0.1621
      3  C        100.1760  103.5610  468.5860 C.2   437  HIS437      0.2264
      4  O        100.6520  103.7270  467.4630 O.2   437  HIS437     -0.2867
      5  CB        99.2770  101.4270  469.6010 C.3   437  HIS437      0.0745
      6  CG        99.6150   99.9900  469.8510 C.ar  437  HIS437      0.0817
      7  ND1       98.9500   98.9490  469.2420 N.ar  437  HIS437     -0.2268
      8  CD2      100.5700   99.4250  470.6270 C.ar  437  HIS437      0.1154
      9  CE1       99.4700   97.8020  469.6440 C.ar  437  HIS437      0.1986
     10  NE2      100.4560   98.0630  470.4830 N.ar  437  HIS437     -0.2212
     11  N        102.2820   94.4840  468.0150 N.3   463  SER463     -0.1217
     12  CA       101.0110   94.0900  468.6140 C.3   463  SER463      0.1889
     13  C         99.8540   94.9320  468.0920 C.2   463  SER463      0.2288
     14  O         98.7370   94.8470  468.5990 O.2   463  SER463     -0.2866
     15  CB       101.0840   94.1970  470.1400 C.3   463  SER463      0.2089
     16  OG        99.9400   93.8950  470.7660 O.3   463  SER463     -0.2183
     17  N         96.7310   96.3110  466.2850 N.3   465  THR465     -0.1218
     18  CA        95.4880   95.7250  465.7930 C.3   465  THR465      0.1862
     19  C         95.1060   96.2950  464.4330 C.2   465  THR465      0.2287
     20  O         95.7040   97.2650  463.9690 O.2   465  THR465     -0.2866
     21  CB        94.3250   95.9640  466.7700 C.3   465  THR465      0.1770
     22  OG1       94.1400   97.3730  466.9510 O.3   465  THR465     -0.2211
     23  CG2       94.6130   95.3150  468.1140 C.3   465  THR465      0.0375
     24  N         92.5330  102.6230  459.7190 N.3   470  ARG470     -0.1245
     25  CA        93.9160  102.3910  459.3030 C.3   470  ARG470      0.1563
     26  C         94.0230  101.7120  457.9370 C.2   470  ARG470      0.2260
     27  O         94.8510  102.0870  457.1100 O.2   470  ARG470     -0.2867
     28  CB        94.6560  101.5570  460.3500 C.3   470  ARG470      0.0307
     29  CG        94.7550  102.2160  461.7380 C.3   470  ARG470      0.0489
     30  CD        95.2630  101.2120  462.7590 C.3   470  ARG470      0.2205
     31  NE        95.6300  101.8750  464.0180 N.pl3 470  ARG470     -0.0865
     32  CZ        95.2280  101.4370  465.2340 C.cat 470  ARG470      0.5346
     33  NH1       94.7690  100.1870  465.4020 N.pl3 470  ARG470      0.1354
     34  NH2       95.2970  102.2620  466.2610 N.pl3 470  ARG470      0.1354
     35  N         90.1720  101.7510  480.0860 N.3   598  THR598     -0.1203
     36  CA        91.1300  101.1760  479.1530 C.3   598  THR598      0.1994
     37  C         92.3010  102.1240  478.9270 C.2   598  THR598      0.2617
     38  O         92.2600  103.2830  479.3360 O.2   598  THR598     -0.2717
     39  CB        90.4740  100.8550  477.7980 C.3   598  THR598      0.1784
     40  OG1       91.3940  100.1110  476.9930 O.3   598  THR598     -0.2211
     41  CG2       90.0560  102.1280  477.0840 C.3   598  THR598      0.0376
     42  N         93.3440  101.6260  478.2740 N.am  599  VAL599     -0.1979
     43  CA        94.5070  102.4430  477.9530 C.3   599  VAL599      0.1595
     44  C         94.1400  103.4240  476.8430 C.2   599  VAL599      0.2287
     45  O         93.7450  103.0100  475.7530 O.2   599  VAL599     -0.2864
     46  CB        95.7100  101.5860  477.5240 C.3   599  VAL599      0.0276
     47  CG1       96.9000  102.4720  477.1940 C.3   599  VAL599      0.0022
     48  CG2       96.0680  100.5940  478.6200 C.3   599  VAL599      0.0022
     49  N         94.6120  104.2040  472.4670 N.3   602  GLY602     -0.1210
     50  CA        94.6690  102.8670  471.9090 C.3   602  GLY602      0.1956
     51  C         93.5520  102.6360  470.9110 C.2   602  GLY602      0.2613
     52  O         92.6840  103.4880  470.7280 O.2   602  GLY602     -0.2717
     53  N         93.5790  101.4780  470.2610 N.am  603  SER603     -0.1938
     54  CA        92.5630  101.1230  469.2780 C.3   603  SER603      0.2055
     55  C         91.2610  100.7750  469.9790 C.2   603  SER603      0.2643
     56  O         90.1780  101.1110  469.4980 O.2   603  SER603     -0.2714
     57  CB        93.0260   99.9540  468.4100 C.3   603  SER603      0.2130
     58  OG        92.1200   99.5450  467.5130 O.3   603  SER603     -0.2179
     59  N         91.3720  100.0890  471.1110 N.am  604  THR604     -0.1950
     60  CA        90.2020   99.7560  471.9090 C.3   604  THR604      0.1897
     61  C         89.5110  101.0260  472.4020 C.2   604  THR604      0.2313
     62  O         88.2910  101.0560  472.5420 O.2   604  THR604     -0.2863
     63  CB        90.5710   98.8760  473.1180 C.3   604  THR604      0.1794
     64  OG1       91.4920   99.5920  473.9270 O.3   604  THR604     -0.2208
     65  CG2       91.1560   97.5430  472.6940 C.3   604  THR604      0.0378
     66  N         90.6300   95.5690  477.1940 N.3   644  TYR644     -0.1227
     67  CA        91.8880   95.5550  476.4660 C.3   644  TYR644      0.1736
     68  C         91.8780   94.5590  475.3260 C.2   644  TYR644      0.2595
     69  O         90.8540   93.9890  474.9900 O.2   644  TYR644     -0.2718
     70  CB        93.0510   95.2340  477.4010 C.3   644  TYR644      0.0548
     71  CG        94.4060   95.6540  476.8300 C.ar  644  TYR644     -0.0200
     72  CD1       94.6910   97.0070  476.5480 C.ar  644  TYR644     -0.0009
     73  CD2       95.3810   94.6990  476.5340 C.ar  644  TYR644     -0.0009
     74  CE1       95.9220   97.3870  475.9700 C.ar  644  TYR644      0.0417
     75  CE2       96.6030   95.0660  475.9590 C.ar  644  TYR644      0.0417
     76  CZ        96.8660   96.4010  475.6800 C.ar  644  TYR644      0.1957
     77  OH        98.0670   96.7320  475.0860 O.3   644  TYR644     -0.2866
     78  N         93.0460   94.3650  474.7360 N.am  645  ASP645     -0.1974
     79  CA        93.2130   93.4330  473.6440 C.3   645  ASP645      0.1709
     80  C         92.9420   91.9780  474.0870 C.2   645  ASP645      0.2293
     81  O         93.3380   91.5650  475.1820 O.2   645  ASP645     -0.2864
     82  CB        94.6210   93.5830  473.0790 C.3   645  ASP645      0.1436
     83  CG        94.8530   92.7270  471.8510 C.2   645  ASP645      0.3671
     84  OD1       94.3700   93.1120  470.7410 O.co2 645  ASP645     -0.2456
     85  OD2       95.4920   91.6490  472.0150 O.co2 645  ASP645     -0.2456
@<TRIPOS>BOND
     1    27    26    2
     2    26    25    1
     3    25    24    1
     4    25    28    1
     5    28    29    1
     6    29    30    1
     7    30    31    1
     8    20    19    2
     9    31    32    2
    10    19    18    1
    11    32    33    1
    12    32    34    1
    13    18    17    1
    14    18    21    1
    15    21    22    1
    16    21    23    1
    17     4     3    2
    18    58    57    1
    19    11    12    1
    20    13    14    2
    21    13    12    1
    22    57    54    1
    23     3     2    1
    24    12    15    1
    25     7     9   ar
    26     7     6   ar
    27    54    55    1
    28    54    53    1
    29     2     5    1
    30     2     1    1
    31    56    55    2
    32     5     6    1
    33     9    10   ar
    34     6     8   ar
    35    55    59   am
    36    15    16    1
    37    53    51   am
    38    10     8   ar
    39    52    51    2
    40    84    83   ar
    41    51    50    1
    42    59    60    1
    43    83    85   ar
    44    83    82    1
    45    60    61    1
    46    60    63    1
    47    50    49    1
    48    61    62    2
    49    65    63    1
    50    82    79    1
    51    63    64    1
    52    79    80    1
    53    79    78    1
    54    80    81    2
    55    78    68   am
    56    69    68    2
    57    77    76    1
    58    68    67    1
    59    76    75   ar
    60    76    74   ar
    61    45    44    2
    62    75    73   ar
    63    74    72   ar
    64    67    66    1
    65    67    70    1
    66    73    71   ar
    67    72    71   ar
    68    71    70    1
    69    44    43    1
    70    40    39    1
    71    41    39    1
    72    47    46    1
    73    46    43    1
    74    46    48    1
    75    39    36    1
    76    43    42    1
    77    42    37   am
    78    37    36    1
    79    37    38    2
    80    36    35    1
