@<TRIPOS>MOLECULE
tmp/4tlmA02.pdb
 123 120 0 0 0
SMALL
GASTEIGER

@<TRIPOS>ATOM
      1  N        -53.1140    6.9990  253.6060 N.3   383  GLN383     -0.1245
      2  CA       -52.5530    6.8270  254.9360 C.3   383  GLN383      0.1566
      3  C        -53.6170    7.2520  255.9290 C.2   383  GLN383      0.2260
      4  O        -54.0920    8.3860  255.8850 O.2   383  GLN383     -0.2867
      5  CB       -51.2740    7.6460  255.1140 C.3   383  GLN383      0.0367
      6  CG       -50.3050    7.0230  256.1160 C.3   383  GLN383      0.0905
      7  CD       -49.9200    5.5710  255.7690 C.2   383  GLN383      0.2608
      8  OE1      -49.7630    4.7430  256.6720 O.2   383  GLN383     -0.2717
      9  NE2      -49.7590    5.2670  254.4810 N.am  383  GLN383     -0.0878
     10  N        -45.6810    5.7420  248.0730 N.3   460  PHE460     -0.1241
     11  CA       -45.3450    7.1570  247.9330 C.3   460  PHE460      0.1605
     12  C        -44.2760    7.3590  246.8750 C.2   460  PHE460      0.2264
     13  O        -44.4750    8.0900  245.9080 O.2   460  PHE460     -0.2867
     14  CB       -44.8480    7.7310  249.2550 C.3   460  PHE460      0.0534
     15  CG       -45.4440    7.0810  250.4630 C.ar  460  PHE460     -0.0203
     16  CD1      -46.6380    7.5370  250.9950 C.ar  460  PHE460     -0.0042
     17  CD2      -44.8000    6.0230  251.0790 C.ar  460  PHE460     -0.0042
     18  CE1      -47.1830    6.9410  252.1120 C.ar  460  PHE460     -0.0003
     19  CE2      -45.3400    5.4220  252.1910 C.ar  460  PHE460     -0.0003
     20  CZ       -46.5320    5.8830  252.7120 C.ar  460  PHE460     -0.0000
     21  N        -48.3800   12.3730  254.2040 N.3   492  PRO492     -0.2102
     22  CA       -47.4240   12.1970  255.3050 C.3   492  PRO492      0.1504
     23  C        -46.0920   11.6340  254.8110 C.2   492  PRO492      0.2576
     24  O        -45.8960   10.4200  254.8570 O.2   492  PRO492     -0.2718
     25  CB       -48.1240   11.2040  256.2340 C.3   492  PRO492      0.0282
     26  CG       -49.0690   10.4610  255.3730 C.3   492  PRO492      0.0208
     27  CD       -49.4180   11.3230  254.1970 C.3   492  PRO492      0.0893
     28  N        -45.1930   12.4970  254.3440 N.am  493  LEU493     -0.1966
     29  CA       -43.9360   12.0340  253.7640 C.3   493  LEU493      0.1728
     30  C        -42.7580   12.3550  254.6930 C.2   493  LEU493      0.2616
     31  O        -42.5200   13.5180  255.0060 O.2   493  LEU493     -0.2715
     32  CB       -43.7130   12.7030  252.4040 C.3   493  LEU493      0.0311
     33  CG       -44.2200   12.0460  251.1150 C.3   493  LEU493      0.0022
     34  CD1      -43.5280   12.6440  249.8960 C.3   493  LEU493      0.0001
     35  CD2      -44.1040   10.5450  251.1320 C.3   493  LEU493      0.0001
     36  N        -42.0100   11.3340  255.1130 N.am  494  THR494     -0.1951
     37  CA       -40.7820   11.5540  255.8860 C.3   494  THR494      0.1897
     38  C        -39.7240   12.2490  255.0410 C.2   494  THR494      0.2313
     39  O        -39.6610   12.0200  253.8350 O.2   494  THR494     -0.2863
     40  CB       -40.1950   10.2270  256.3990 C.3   494  THR494      0.1794
     41  OG1      -41.1380    9.5800  257.2620 O.3   494  THR494     -0.2208
     42  CG2      -38.9220   10.4640  257.1510 C.3   494  THR494      0.0378
     43  N        -33.8440   11.4520  248.7540 N.3   499  ARG499     -0.1245
     44  CA       -34.9070   12.1400  248.0340 C.3   499  ARG499      0.1563
     45  C        -34.5580   13.6220  247.8720 C.2   499  ARG499      0.2260
     46  O        -34.8590   14.2330  246.8480 O.2   499  ARG499     -0.2867
     47  CB       -36.2440   11.9550  248.7590 C.3   499  ARG499      0.0307
     48  CG       -36.6980   10.4930  248.8070 C.3   499  ARG499      0.0489
     49  CD       -37.9040   10.2660  249.7160 C.3   499  ARG499      0.2205
     50  NE       -38.4230    8.9040  249.5920 N.pl3 499  ARG499     -0.0865
     51  CZ       -39.5830    8.4880  250.0930 C.cat 499  ARG499      0.5346
     52  NH1      -40.3650    9.3270  250.7580 N.pl3 499  ARG499      0.1354
     53  NH2      -39.9620    7.2280  249.9270 N.pl3 499  ARG499      0.1354
     54  N        -41.4560    0.7770  251.4180 N.3   640  SER640     -0.1202
     55  CA       -41.6620    1.8210  252.4150 C.3   640  SER640      0.2020
     56  C        -40.3070    2.4700  252.6770 C.2   640  SER640      0.2619
     57  O        -39.2830    1.8100  252.5410 O.2   640  SER640     -0.2717
     58  CB       -42.2580    1.2560  253.7020 C.3   640  SER640      0.2103
     59  OG       -42.3870    2.2620  254.6900 O.3   640  SER640     -0.2182
     60  N        -40.2920    3.7510  253.0350 N.am  641  SER641     -0.1937
     61  CA       -39.0320    4.4780  253.2160 C.3   641  SER641      0.2055
     62  C        -38.1200    3.8200  254.2380 C.2   641  SER641      0.2642
     63  O        -36.9020    3.9040  254.1290 O.2   641  SER641     -0.2714
     64  CB       -39.2830    5.9240  253.6180 C.3   641  SER641      0.2130
     65  OG       -39.6150    6.6880  252.4780 O.3   641  SER641     -0.2179
     66  N        -38.7190    3.1970  255.2470 N.am  642  VAL642     -0.1977
     67  CA       -37.9790    2.3610  256.1880 C.3   642  VAL642      0.1596
     68  C        -37.0600    1.3680  255.4610 C.2   642  VAL642      0.2287
     69  O        -35.9090    1.1530  255.8610 O.2   642  VAL642     -0.2864
     70  CB       -38.9370    1.5860  257.1150 C.3   642  VAL642      0.0276
     71  CG1      -38.1810    0.6990  258.0980 C.3   642  VAL642      0.0022
     72  CG2      -39.7630    2.5950  257.9170 C.3   642  VAL642      0.0022
     73  N        -43.1630    0.8950  261.9880 N.3   684  TRP684     -0.1227
     74  CA       -43.4860    2.0510  261.1510 C.3   684  TRP684      0.1737
     75  C        -43.3140    3.3650  261.9180 C.2   684  TRP684      0.2595
     76  O        -43.2570    3.3710  263.1490 O.2   684  TRP684     -0.2718
     77  CB       -44.9120    1.9240  260.6030 C.3   684  TRP684      0.0564
     78  CG       -45.0890    2.4710  259.2100 C.ar  684  TRP684      0.0003
     79  CD1      -44.4690    3.5550  258.6640 C.ar  684  TRP684      0.0946
     80  CD2      -45.9150    1.9230  258.1770 C.ar  684  TRP684      0.0152
     81  NE1      -44.8770    3.7340  257.3660 N.ar  684  TRP684     -0.2442
     82  CE2      -45.7620    2.7420  257.0400 C.ar  684  TRP684      0.0810
     83  CE3      -46.7750    0.8260  258.1050 C.ar  684  TRP684      0.0012
     84  CZ2      -46.4370    2.4970  255.8490 C.ar  684  TRP684      0.0191
     85  CZ3      -47.4380    0.5830  256.9240 C.ar  684  TRP684      0.0001
     86  CH2      -47.2700    1.4160  255.8110 C.ar  684  TRP684      0.0015
     87  N        -43.2230    4.4730  261.1840 N.am  685  ASP685     -0.1974
     88  CA       -43.0510    5.7940  261.7830 C.3   685  ASP685      0.1709
     89  C        -44.2290    6.1340  262.6810 C.2   685  ASP685      0.2293
     90  O        -45.3560    5.7110  262.4270 O.2   685  ASP685     -0.2864
     91  CB       -42.8750    6.8690  260.7060 C.3   685  ASP685      0.1436
     92  CG       -43.9250    6.7870  259.6100 C.2   685  ASP685      0.3671
     93  OD1      -44.9890    6.1720  259.8260 O.co2 685  ASP685     -0.2456
     94  OD2      -43.6810    7.3440  258.5210 O.co2 685  ASP685     -0.2456
     95  N        -48.2140    7.9370  261.8440 N.3   688  VAL688     -0.1245
     96  CA       -49.2440    7.0030  261.3990 C.3   688  VAL688      0.1561
     97  C        -49.6320    5.9950  262.4910 C.2   688  VAL688      0.2260
     98  O        -50.7950    5.6040  262.6000 O.2   688  VAL688     -0.2867
     99  CB       -48.8010    6.2530  260.1230 C.3   688  VAL688      0.0252
    100  CG1      -49.8600    5.2530  259.6870 C.3   688  VAL688      0.0019
    101  CG2      -48.5270    7.2440  259.0010 C.3   688  VAL688      0.0019
    102  N        -34.6970    7.1960  264.0830 N.3   707  PHE707     -0.1241
    103  CA       -34.8070    7.6570  262.7070 C.3   707  PHE707      0.1605
    104  C        -35.6770    8.9170  262.7980 C.2   707  PHE707      0.2264
    105  O        -36.5200    9.2030  261.9480 O.2   707  PHE707     -0.2867
    106  CB       -35.3580    6.5230  261.8060 C.3   707  PHE707      0.0534
    107  CG       -36.0630    6.9780  260.5580 C.ar  707  PHE707     -0.0203
    108  CD1      -35.3590    7.5260  259.5010 C.ar  707  PHE707     -0.0042
    109  CD2      -37.4380    6.8270  260.4380 C.ar  707  PHE707     -0.0042
    110  CE1      -36.0150    7.9320  258.3570 C.ar  707  PHE707     -0.0003
    111  CE2      -38.0960    7.2330  259.3000 C.ar  707  PHE707     -0.0003
    112  CZ       -37.3820    7.7780  258.2570 C.ar  707  PHE707     -0.0000
    113  N        -42.3210   15.3060  258.7010 N.3   711  PHE711     -0.1241
    114  CA       -43.1450   15.1160  257.5180 C.3   711  PHE711      0.1605
    115  C        -43.3120   16.4650  256.8260 C.2   711  PHE711      0.2264
    116  O        -43.5810   17.4670  257.4820 O.2   711  PHE711     -0.2867
    117  CB       -44.5060   14.5090  257.8770 C.3   711  PHE711      0.0534
    118  CG       -44.4450   13.0800  258.3650 C.ar  711  PHE711     -0.0203
    119  CD1      -43.2400   12.4090  258.4870 C.ar  711  PHE711     -0.0042
    120  CD2      -45.6100   12.4060  258.6970 C.ar  711  PHE711     -0.0042
    121  CE1      -43.1970   11.1040  258.9420 C.ar  711  PHE711     -0.0003
    122  CE2      -45.5720   11.0990  259.1430 C.ar  711  PHE711     -0.0003
    123  CZ       -44.3640   10.4480  259.2680 C.ar  711  PHE711     -0.0000
@<TRIPOS>BOND
     1    13    12    2
     2    46    45    2
     3    12    11    1
     4    45    44    1
     5    11    10    1
     6    11    14    1
     7    44    43    1
     8    44    47    1
     9    47    48    1
    10    48    49    1
    11    14    15    1
    12    50    49    1
    13    50    51    2
    14    34    33    1
    15    53    51    1
    16    51    52    1
    17    15    16   ar
    18    15    17   ar
    19    16    18   ar
    20    17    19   ar
    21    33    35    1
    22    33    32    1
    23    54    55    1
    24    18    20   ar
    25    19    20   ar
    26    32    29    1
    27    55    56    1
    28    55    58    1
    29    65    64    1
    30    57    56    2
    31    56    60   am
    32    60    61    1
    33    61    64    1
    34    61    62    1
    35     1     2    1
    36    58    59    1
    37    29    28    1
    38    29    30    1
    39    39    38    2
    40    63    62    2
    41    27    21    1
    42    27    26    1
    43    21    22    1
    44    62    66   am
    45    28    23   am
    46     9     7   am
    47    30    31    2
    48    30    36   am
    49    23    24    2
    50    23    22    1
    51     2     5    1
    52     2     3    1
    53    38    37    1
    54    36    37    1
    55     5     6    1
    56    66    67    1
    57    22    25    1
    58    26    25    1
    59    68    69    2
    60    68    67    1
    61     7     6    1
    62     7     8    2
    63    86    84   ar
    64    86    85   ar
    65    84    82   ar
    66     4     3    2
    67    37    40    1
    68    67    70    1
    69    40    42    1
    70    40    41    1
    71   115   116    2
    72   115   114    1
    73    85    83   ar
    74    82    81   ar
    75    82    80   ar
    76    70    72    1
    77    70    71    1
    78    81    79   ar
    79   114   117    1
    80   114   113    1
    81   117   118    1
    82    83    80   ar
    83    80    78   ar
    84   112   110   ar
    85   112   111   ar
    86   110   108   ar
    87   118   119   ar
    88   118   120   ar
    89   119   121   ar
    90    94    92   ar
    91    79    78   ar
    92   120   122   ar
    93   121   123   ar
    94   101    99    1
    95   122   123   ar
    96    78    77    1
    97   111   109   ar
    98   108   107   ar
    99    92    93   ar
   100    92    91    1
   101   100    99    1
   102    99    96    1
   103   109   107   ar
   104   107   106    1
   105    77    74    1
   106    91    88    1
   107    74    75    1
   108    74    73    1
   109    87    88    1
   110    87    75   am
   111    96    95    1
   112    96    97    1
   113    88    89    1
   114   106   103    1
   115    75    76    2
   116   105   104    2
   117    90    89    2
   118    97    98    2
   119   103   104    1
   120   103   102    1
