@<TRIPOS>MOLECULE
tmp/4tlmC02.pdb
 94 90 0 0 0
SMALL
GASTEIGER

@<TRIPOS>ATOM
      1  N         42.5830   15.6160  251.0810 N.3    53  ALA53      -0.1245
      2  CA        41.3840   16.2520  250.5330 C.3    53  ALA53       0.1562
      3  C         41.7850   17.2610  249.4600 C.2    53  ALA53       0.2260
      4  O         41.1620   17.3540  248.3940 O.2    53  ALA53      -0.2867
      5  CB        40.5790   16.9280  251.6350 C.3    53  ALA53       0.0290
      6  N         37.6310   11.8690  254.9650 N.3    84  PRO84      -0.2116
      7  CA        37.5090   13.1820  254.3200 C.3    84  PRO84       0.1372
      8  C         37.0700   13.1700  252.8620 C.2    84  PRO84       0.2244
      9  O         36.3240   14.0400  252.4370 O.2    84  PRO84      -0.2868
     10  CB        38.9330   13.7370  254.4390 C.3    84  PRO84       0.0268
     11  CG        39.7610   12.5340  254.2940 C.3    84  PRO84       0.0207
     12  CD        39.0570   11.5780  255.2030 C.3    84  PRO84       0.0892
     13  N         35.3500   11.1710  250.9750 N.3    86  SER86      -0.1202
     14  CA        33.9620   10.8500  250.7770 C.3    86  SER86       0.2020
     15  C         33.2150   12.1400  250.9960 C.2    86  SER86       0.2619
     16  O         32.2380   12.4310  250.3210 O.2    86  SER86      -0.2717
     17  CB        33.4960    9.7640  251.7420 C.3    86  SER86       0.2103
     18  OG        33.5040   10.2420  253.0730 O.3    86  SER86      -0.2182
     19  N         33.6990   12.9220  251.9510 N.am   87  TYR87      -0.1961
     20  CA        33.1130   14.2200  252.1930 C.3    87  TYR87       0.1771
     21  C         33.4330   15.1260  250.9960 C.2    87  TYR87       0.2620
     22  O         32.5280   15.7150  250.4100 O.2    87  TYR87      -0.2715
     23  CB        33.6400   14.8000  253.5160 C.3    87  TYR87       0.0574
     24  CG        33.1810   14.0150  254.7350 C.ar   87  TYR87      -0.0198
     25  CD1       32.5770   12.7750  254.5860 C.ar   87  TYR87      -0.0009
     26  CD2       33.3710   14.4930  256.0270 C.ar   87  TYR87      -0.0009
     27  CE1       32.1720   12.0400  255.6600 C.ar   87  TYR87       0.0417
     28  CE2       32.9560   13.7500  257.1280 C.ar   87  TYR87       0.0417
     29  CZ        32.3560   12.5200  256.9300 C.ar   87  TYR87       0.1957
     30  OH        31.9330   11.7580  257.9960 O.3    87  TYR87      -0.2866
     31  N         34.6960   15.1950  250.5870 N.am   88  THR88      -0.1951
     32  CA        35.0730   16.1130  249.5110 C.3    88  THR88       0.1897
     33  C         34.3690   15.6950  248.2200 C.2    88  THR88       0.2313
     34  O         33.7120   16.5070  247.5620 O.2    88  THR88      -0.2863
     35  CB        36.5890   16.1770  249.2790 C.3    88  THR88       0.1794
     36  OG1       37.2270   16.7020  250.4490 O.3    88  THR88      -0.2208
     37  CG2       36.8900   17.1040  248.1150 C.3    88  THR88       0.0378
     38  N         31.7980   13.9440  248.2120 N.3    90  GLY90      -0.1210
     39  CA        30.3930   13.9950  248.5590 C.3    90  GLY90       0.1956
     40  C         29.8570   15.3270  248.0830 C.2    90  GLY90       0.2611
     41  O         28.6790   15.4490  247.7450 O.2    90  GLY90      -0.2717
     42  N         30.7390   16.3280  248.0460 N.am   91  PHE91      -0.1976
     43  CA        30.3270   17.6650  247.6470 C.3    91  PHE91       0.1639
     44  C         29.7680   17.7110  246.2230 C.2    91  PHE91       0.2290
     45  O         28.7440   18.3520  245.9780 O.2    91  PHE91      -0.2864
     46  CB        31.5390   18.5910  247.7650 C.3    91  PHE91       0.0560
     47  CG        31.2730   20.0040  247.3770 C.ar   91  PHE91      -0.0200
     48  CD1       30.0620   20.6110  247.6480 C.ar   91  PHE91      -0.0042
     49  CD2       32.2370   20.7190  246.6940 C.ar   91  PHE91      -0.0042
     50  CE1       29.8320   21.9160  247.2660 C.ar   91  PHE91      -0.0003
     51  CE2       32.0070   22.0170  246.3080 C.ar   91  PHE91      -0.0003
     52  CZ        30.8090   22.6190  246.5960 C.ar   91  PHE91      -0.0000
     53  N         28.9050   14.9350  244.5720 N.3    93  ARG93      -0.1245
     54  CA        28.1830   13.6720  244.4310 C.3    93  ARG93       0.1563
     55  C         28.9510   12.7080  243.5340 C.2    93  ARG93       0.2260
     56  O         28.3680   11.8260  242.9030 O.2    93  ARG93      -0.2867
     57  CB        26.7680   13.9020  243.8860 C.3    93  ARG93       0.0307
     58  CG        25.9030   14.8530  244.6950 C.3    93  ARG93       0.0489
     59  CD        25.6550   14.3680  246.1020 C.3    93  ARG93       0.2205
     60  NE        24.5950   15.1420  246.7310 N.pl3  93  ARG93      -0.0865
     61  CZ        24.7810   16.1980  247.5230 C.cat  93  ARG93       0.5346
     62  NH1       26.0120   16.6160  247.8060 N.pl3  93  ARG93       0.1354
     63  NH2       23.7320   16.8650  248.0010 N.pl3  93  ARG93       0.1354
     64  N         23.5160    6.6240  254.9280 N.3   109  LYS109     -0.1231
     65  CA        23.5560    7.3410  253.6600 C.3   109  LYS109      0.1693
     66  C         23.6960    8.8470  253.8620 C.2   109  LYS109      0.2593
     67  O         24.3360    9.5340  253.0720 O.2   109  LYS109     -0.2718
     68  CB        22.3000    7.0360  252.8410 C.3   109  LYS109      0.0285
     69  CG        22.2220    5.5670  252.4340 C.3   109  LYS109      0.0035
     70  CD        21.1060    5.2640  251.4510 C.3   109  LYS109      0.0206
     71  CE        19.7580    5.1800  252.1270 C.3   109  LYS109      0.1093
     72  NZ        18.7620    4.5250  251.2300 N.3   109  LYS109     -0.1314
     73  N         23.0840    9.3420  254.9310 N.am  110  SER110     -0.1938
     74  CA        23.0650   10.7650  255.2740 C.3   110  SER110      0.2055
     75  C         24.3890   11.4800  255.3280 C.2   110  SER110      0.2642
     76  O         24.5880   12.5060  254.6830 O.2   110  SER110     -0.2714
     77  CB        22.4180   10.9400  256.6280 C.3   110  SER110      0.2130
     78  OG        21.2040   10.2630  256.6100 O.3   110  SER110     -0.2179
     79  N         25.2910   10.9380  256.1280 N.am  111  ILE111     -0.1977
     80  CA        26.5510   11.5970  256.3710 C.3   111  ILE111      0.1596
     81  C         27.4680   11.3540  255.1870 C.2   111  ILE111      0.2287
     82  O         28.0980   12.2870  254.6890 O.2   111  ILE111     -0.2864
     83  CB        27.1910   11.1040  257.6800 C.3   111  ILE111      0.0276
     84  CG1       26.1300   11.0400  258.7850 C.3   111  ILE111      0.0022
     85  CG2       28.3460   12.0070  258.0810 C.3   111  ILE111      0.0022
     86  CD1       26.6800   10.7550  260.1640 C.3   111  ILE111      0.0001
     87  N         27.0530   10.2150  251.4230 N.3   113  LEU113     -0.1245
     88  CA        26.0420    9.8540  250.4260 C.3   113  LEU113      0.1561
     89  C         26.6780    9.3740  249.1290 C.2   113  LEU113      0.2260
     90  O         25.9960    8.8750  248.2390 O.2   113  LEU113     -0.2867
     91  CB        25.1110   11.0370  250.1420 C.3   113  LEU113      0.0270
     92  CG        23.8780   10.8360  249.2550 C.3   113  LEU113      0.0019
     93  CD1       22.8080   10.0190  249.9650 C.3   113  LEU113      0.0001
     94  CD2       23.3200   12.1750  248.7870 C.3   113  LEU113      0.0001
@<TRIPOS>BOND
     1    56    55    2
     2    55    54    1
     3    57    54    1
     4    57    58    1
     5    54    53    1
     6    58    59    1
     7    45    44    2
     8    59    60    1
     9    44    43    1
    10    51    52   ar
    11    51    49   ar
    12    52    50   ar
    13    49    47   ar
    14    60    61    2
    15    50    48   ar
    16    47    48   ar
    17    47    46    1
    18    61    62    1
    19    61    63    1
    20    34    33    2
    21    43    46    1
    22    43    42    1
    23    41    40    2
    24    42    40   am
    25    40    39    1
    26    37    35    1
    27    38    39    1
    28    33    32    1
    29    90    89    2
    30     4     3    2
    31    94    92    1
    32    89    88    1
    33    92    93    1
    34    92    91    1
    35    35    32    1
    36    35    36    1
    37     3     2    1
    38    32    31    1
    39    91    88    1
    40    16    15    2
    41    22    21    2
    42    88    87    1
    43     2     1    1
    44     2     5    1
    45    31    21   am
    46    14    13    1
    47    14    15    1
    48    14    17    1
    49    21    20    1
    50    15    19   am
    51    72    71    1
    52    70    71    1
    53    70    69    1
    54    17    18    1
    55    19    20    1
    56    20    23    1
    57    69    68    1
    58     9     8    2
    59    68    65    1
    60     8     7    1
    61    67    66    2
    62    23    24    1
    63    65    66    1
    64    65    64    1
    65    66    73   am
    66    11    10    1
    67    11    12    1
    68     7    10    1
    69     7     6    1
    70    25    24   ar
    71    25    27   ar
    72    76    75    2
    73    82    81    2
    74    24    26   ar
    75    73    74    1
    76     6    12    1
    77    81    80    1
    78    74    75    1
    79    74    77    1
    80    75    79   am
    81    27    29   ar
    82    26    28   ar
    83    79    80    1
    84    80    83    1
    85    78    77    1
    86    29    28   ar
    87    29    30    1
    88    83    85    1
    89    83    84    1
    90    84    86    1
