@<TRIPOS>MOLECULE
tmp/4tlnA00.pdb
 151 148 0 0 0
SMALL
GASTEIGER

@<TRIPOS>ATOM
      1  N         47.2480   15.5380    0.2830 N.3   112  ASN112     -0.1225
      2  CA        47.9510   16.3680   -0.7030 C.3   112  ASN112      0.1785
      3  C         47.3220   17.7690   -0.7360 C.2   112  ASN112      0.2597
      4  O         46.3120   18.1220   -0.1670 O.2   112  ASN112     -0.2718
      5  CB        47.7800   15.5690   -1.9660 C.3   112  ASN112      0.1169
      6  CG        48.8310   15.8250   -3.0900 C.2   112  ASN112      0.2627
      7  OD1       49.8840   16.5150   -3.0930 O.2   112  ASN112     -0.2716
      8  ND2       48.6720   15.1750   -4.1840 N.am  112  ASN112     -0.0877
      9  N         48.0820   18.5290   -1.5390 N.am  113  ALA113     -0.1966
     10  CA        47.8180   19.9100   -1.8040 C.3   113  ALA113      0.1728
     11  C         48.2930   20.0640   -3.1980 C.2   113  ALA113      0.2616
     12  O         49.1620   19.2540   -3.4420 O.2   113  ALA113     -0.2715
     13  CB        48.6520   20.6870   -0.8110 C.3   113  ALA113      0.0334
     14  N         47.9200   20.9290   -4.0690 N.am  114  PHE114     -0.1960
     15  CA        48.0560   21.3830   -5.3720 C.3   114  PHE114      0.1771
     16  C         47.5160   22.7760   -5.7080 C.2   114  PHE114      0.2616
     17  O         46.8150   23.4570   -5.0840 O.2   114  PHE114     -0.2715
     18  CB        47.3580   20.3220   -6.3190 C.3   114  PHE114      0.0574
     19  CG        45.9090   20.0560   -6.1620 C.ar  114  PHE114     -0.0200
     20  CD1       44.9110   20.6780   -6.9530 C.ar  114  PHE114     -0.0042
     21  CD2       45.4470   19.1200   -5.2990 C.ar  114  PHE114     -0.0042
     22  CE1       43.5500   20.3580   -6.8880 C.ar  114  PHE114     -0.0003
     23  CE2       44.1050   18.8420   -5.1510 C.ar  114  PHE114     -0.0003
     24  CZ        43.1070   19.4060   -5.9030 C.ar  114  PHE114     -0.0000
     25  N         48.0090   23.1910   -6.8830 N.am  115  TRP115     -0.2027
     26  CA        47.7890   24.4460   -7.6720 C.3   115  TRP115      0.1326
     27  C         46.9690   23.8710   -8.7600 C.3   115  TRP115      0.2039
     28  O         47.6030   22.8770   -9.3060 O.3   115  TRP115     -0.2185
     29  CB        49.0580   25.2230   -8.0770 C.3   115  TRP115      0.0523
     30  CG        48.6930   26.2270   -9.1120 C.ar  115  TRP115      0.0002
     31  CD1       48.8880   26.0420  -10.4020 C.ar  115  TRP115      0.0946
     32  CD2       48.0940   27.5240   -8.9000 C.ar  115  TRP115      0.0152
     33  NE1       48.4040   27.1960  -11.1140 N.ar  115  TRP115     -0.2442
     34  CE2       47.9480   28.1260  -10.1130 C.ar  115  TRP115      0.0810
     35  CE3       47.7130   28.3120   -7.8050 C.ar  115  TRP115      0.0012
     36  CZ2       47.3950   29.3950  -10.2520 C.ar  115  TRP115      0.0191
     37  CZ3       47.2260   29.5740   -7.8500 C.ar  115  TRP115      0.0001
     38  CH2       47.0110   30.1190   -9.1860 C.ar  115  TRP115      0.0015
     39  N         49.7920   12.3970    6.7090 N.3   130  PHE130     -0.1298
     40  CA        49.8990   13.8320    6.7440 C.3   130  PHE130      0.1290
     41  C         48.8590   14.3820    7.6880 C.3   130  PHE130      0.2013
     42  O         47.8910   13.5610    7.8520 O.3   130  PHE130     -0.2188
     43  CB        49.3330   14.5800    5.4380 C.3   130  PHE130      0.0480
     44  CG        50.3630   14.4500    4.3610 C.ar  130  PHE130     -0.0206
     45  CD1       50.3940   13.5210    3.3750 C.ar  130  PHE130     -0.0042
     46  CD2       51.4180   15.3640    4.3760 C.ar  130  PHE130     -0.0042
     47  CE1       51.3890   13.4090    2.4080 C.ar  130  PHE130     -0.0003
     48  CE2       52.4410   15.3030    3.4800 C.ar  130  PHE130     -0.0003
     49  CZ        52.4250   14.3450    2.4880 C.ar  130  PHE130     -0.0000
     50  N         47.7210   19.8300    5.2360 N.3   133  LEU133     -0.1301
     51  CA        48.8270   20.3900    4.5060 C.3   133  LEU133      0.1247
     52  C         49.1290   21.8130    4.5360 C.3   133  LEU133      0.2009
     53  O         50.3890   22.0070    4.2040 O.3   133  LEU133     -0.2188
     54  CB        48.7560   19.7880    3.0350 C.3   133  LEU133      0.0217
     55  CG        49.1330   18.3060    3.2570 C.3   133  LEU133      0.0015
     56  CD1       47.9480   17.3600    3.4960 C.3   133  LEU133      0.0000
     57  CD2       49.8530   17.8550    2.0290 C.3   133  LEU133      0.0000
     58  N         55.3100   23.8370    1.8050 N.3   139  VAL139     -0.1245
     59  CA        54.1710   23.1500    1.0100 C.3   139  VAL139      0.1561
     60  C         53.4580   24.3090    0.3740 C.2   139  VAL139      0.2260
     61  O         53.3050   24.3610   -0.8040 O.2   139  VAL139     -0.2867
     62  CB        53.2280   22.3250    1.9170 C.3   139  VAL139      0.0252
     63  CG1       51.8430   22.0260    1.3390 C.3   139  VAL139      0.0019
     64  CG2       53.8390   21.0760    2.4260 C.3   139  VAL139      0.0019
     65  N         55.5810   26.1240   -2.2050 N.3   142  HIS142     -0.1226
     66  CA        55.8590   25.2000   -3.2680 C.3   142  HIS142      0.1752
     67  C         54.7140   25.3360   -4.3470 C.2   142  HIS142      0.2595
     68  O         54.7950   25.3540   -5.5150 O.2   142  HIS142     -0.2718
     69  CB        56.0230   23.8280   -2.6740 C.3   142  HIS142      0.0759
     70  CG        56.0890   22.7300   -3.6750 C.ar  142  HIS142      0.0818
     71  ND1       57.1360   21.8550   -3.9080 N.ar  142  HIS142     -0.2268
     72  CD2       55.0690   22.3900   -4.5580 C.ar  142  HIS142      0.1154
     73  CE1       56.8420   21.0630   -4.9650 C.ar  142  HIS142      0.1986
     74  NE2       55.5770   21.4040   -5.3360 N.ar  142  HIS142     -0.2212
     75  N         53.4780   25.4160   -3.8490 N.am  143  GLU143     -0.1979
     76  CA        52.1750   25.5160   -4.4700 C.3   143  GLU143      0.1602
     77  C         51.9720   26.8370   -5.1320 C.2   143  GLU143      0.2287
     78  O         51.5530   26.8170   -6.3140 O.2   143  GLU143     -0.2864
     79  CB        51.1300   25.2790   -3.4730 C.3   143  GLU143      0.0415
     80  CG        50.9270   23.7670   -2.9620 C.3   143  GLU143      0.1163
     81  CD        51.1430   22.7310   -4.0570 C.2   143  GLU143      0.3649
     82  OE1       51.0580   22.6120   -5.2230 O.co2 143  GLU143     -0.2457
     83  OE2       51.5400   21.7340   -3.4460 O.co2 143  GLU143     -0.2457
     84  N         54.1320   27.1990   -8.1410 N.3   146  HIS146     -0.1241
     85  CA        53.5910   26.5050   -9.2870 C.3   146  HIS146      0.1621
     86  C         52.8200   27.5800  -10.1160 C.2   146  HIS146      0.2264
     87  O         52.7690   27.4730  -11.2980 O.2   146  HIS146     -0.2867
     88  CB        52.6300   25.3360   -9.0750 C.3   146  HIS146      0.0745
     89  CG        53.2470   24.0890   -8.7400 C.ar  146  HIS146      0.0817
     90  ND1       54.1900   23.3840   -9.4330 N.ar  146  HIS146     -0.2268
     91  CD2       53.0620   23.2330   -7.6940 C.ar  146  HIS146      0.1154
     92  CE1       54.5540   22.2170   -8.9480 C.ar  146  HIS146      0.1986
     93  NE2       53.9110   22.1060   -7.8690 N.ar  146  HIS146     -0.2212
     94  N         53.8300   19.8230  -17.4220 N.3   157  TYR157     -0.1241
     95  CA        53.9350   18.9190  -16.3020 C.3   157  TYR157      0.1605
     96  C         54.3630   17.5450  -16.6180 C.2   157  TYR157      0.2264
     97  O         53.7480   16.6350  -16.0570 O.2   157  TYR157     -0.2867
     98  CB        52.6160   18.9380  -15.4170 C.3   157  TYR157      0.0534
     99  CG        52.9910   18.7820  -13.9140 C.ar  157  TYR157     -0.0201
    100  CD1       52.3990   17.6910  -13.1840 C.ar  157  TYR157     -0.0009
    101  CD2       53.8640   19.6090  -13.1650 C.ar  157  TYR157     -0.0009
    102  CE1       52.6380   17.4990  -11.8440 C.ar  157  TYR157      0.0417
    103  CE2       54.1420   19.4380  -11.7760 C.ar  157  TYR157      0.0417
    104  CZ        53.4820   18.3700  -11.1300 C.ar  157  TYR157      0.1957
    105  OH        53.6180   18.0950   -9.7740 O.3   157  TYR157     -0.2866
    106  N         58.6950   20.9360  -10.7240 N.3   166  GLU166     -0.1301
    107  CA        58.5320   20.4810   -9.2820 C.3   166  GLU166      0.1252
    108  C         59.7770   20.9310   -8.4970 C.3   166  GLU166      0.2009
    109  O         59.4540   21.3700   -7.4850 O.3   166  GLU166     -0.2188
    110  CB        58.5480   19.0120   -9.1780 C.3   166  GLU166      0.0335
    111  CG        57.1970   18.3640   -9.5460 C.3   166  GLU166      0.1156
    112  CD        56.3700   18.9120   -8.4640 C.2   166  GLU166      0.3649
    113  OE1       55.3860   19.4530   -8.5210 O.co2 166  GLU166     -0.2457
    114  OE2       56.8250   18.8130   -7.2330 O.co2 166  GLU166     -0.2457
    115  N         61.5930   18.8040    2.4550 N.3   188  ILE188     -0.1245
    116  CA        60.2390   19.1020    2.0660 C.3   188  ILE188      0.1561
    117  C         59.0920   18.3400    2.8330 C.2   188  ILE188      0.2260
    118  O         59.0690   17.0750    2.8160 O.2   188  ILE188     -0.2867
    119  CB        59.9930   18.9670    0.4810 C.3   188  ILE188      0.0252
    120  CG1       61.0700   19.7380   -0.1900 C.3   188  ILE188      0.0019
    121  CG2       58.5990   19.4410    0.0780 C.3   188  ILE188      0.0019
    122  CD1       61.0800   21.2340    0.0070 C.3   188  ILE188      0.0001
    123  N         59.0360   14.4380    3.3370 N.3   202  LEU202     -0.1231
    124  CA        58.5660   13.9580    2.0570 C.3   202  LEU202      0.1693
    125  C         59.7120   13.6470    1.0790 C.2   202  LEU202      0.2595
    126  O         59.7440   12.4670    0.6280 O.2   202  LEU202     -0.2718
    127  CB        57.5250   14.9850    1.6140 C.3   202  LEU202      0.0284
    128  CG        56.5490   14.4230    0.5740 C.3   202  LEU202      0.0019
    129  CD1       56.0700   13.1420    1.1940 C.3   202  LEU202      0.0001
    130  CD2       55.3430   15.3060    0.3150 C.3   202  LEU202      0.0001
    131  N         60.5990   14.6040    0.8790 N.am  203  ARG203     -0.1934
    132  CA        61.7570   14.6170    0.1390 C.3   203  ARG203      0.1813
    133  C         62.8720   15.4190    0.8120 C.2   203  ARG203      0.2332
    134  O         62.5480   16.2980    1.5920 O.2   203  ARG203     -0.2860
    135  CB        61.5910   15.3860   -1.2290 C.2   203  ARG203      0.0019
    136  CG        60.6740   14.8960   -2.2460 C.2   203  ARG203      0.0178
    137  CD        60.4440   15.6370   -3.5070 C.3   203  ARG203      0.2464
    138  NE        59.5730   16.8200   -3.4580 N.pl3 203  ARG203     -0.0815
    139  CZ        58.2670   16.8980   -3.4220 C.cat 203  ARG203      0.5349
    140  NH1       57.4480   15.8360   -3.3950 N.pl3 203  ARG203      0.1354
    141  NH2       57.6420   18.1390   -3.4280 N.pl3 203  ARG203      0.1354
    142  N         58.1460   14.0190   -9.7670 N.3   231  HIS231     -0.1241
    143  CA        58.4840   14.1480   -8.3760 C.3   231  HIS231      0.1621
    144  C         59.6780   13.2830   -7.9850 C.2   231  HIS231      0.2264
    145  O         60.0820   13.3380   -6.8170 O.2   231  HIS231     -0.2867
    146  CB        57.4070   13.8490   -7.2180 C.3   231  HIS231      0.0745
    147  CG        56.1590   14.6420   -7.4710 C.ar  231  HIS231      0.0817
    148  ND1       55.2860   14.2430   -8.4180 N.ar  231  HIS231     -0.2268
    149  CD2       55.6730   15.7760   -6.9050 C.ar  231  HIS231      0.1154
    150  CE1       54.2470   15.1220   -8.4540 C.ar  231  HIS231      0.1986
    151  NE2       54.4940   16.0580   -7.4860 N.ar  231  HIS231     -0.2212
@<TRIPOS>BOND
     1    94    95    1
     2    96    95    1
     3    96    97    2
     4    95    98    1
     5    98    99    1
     6    99   100   ar
     7    99   101   ar
     8   100   102   ar
     9   101   103   ar
    10   102   104   ar
    11   103   104   ar
    12    87    86    2
    13   104   105    1
    14    33    31   ar
    15    33    34   ar
    16   106   107    1
    17    31    30   ar
    18    36    34   ar
    19    36    38   ar
    20    86    85    1
    21    34    32   ar
    22   142   143    1
    23   111   110    1
    24   111   112    1
    25    90    92   ar
    26    90    89   ar
    27    28    27    1
    28    85    88    1
    29    85    84    1
    30   107   110    1
    31   107   108    1
    32    38    37   ar
    33    30    32   ar
    34    30    29    1
    35    88    89    1
    36    92    93   ar
    37    32    35   ar
    38    27    26    1
    39    89    91   ar
    40   113   112   ar
    41   108   109    1
    42   112   114   ar
    43   150   148   ar
    44   150   151   ar
    45   148   147   ar
    46   143   144    1
    47   143   146    1
    48    29    26    1
    49   144   145    2
    50    93    91   ar
    51    37    35   ar
    52    26    25    1
    53   151   149   ar
    54   147   146    1
    55   147   149   ar
    56    20    22   ar
    57    20    19   ar
    58    22    24   ar
    59    25    16   am
    60    18    19    1
    61    18    15    1
    62    78    77    2
    63    19    21   ar
    64    24    23   ar
    65    16    15    1
    66    16    17    2
    67    68    67    2
    68    15    14    1
    69    74    73   ar
    70    74    72   ar
    71    21    23   ar
    72    82    81   ar
    73    77    76    1
    74    73    71   ar
    75    72    70   ar
    76    76    75    1
    77    76    79    1
    78    67    75   am
    79    67    66    1
    80     8     6   am
    81    14    11   am
    82    81    83   ar
    83    81    80    1
    84    71    70   ar
    85    70    69    1
    86   137   138    1
    87   137   136    1
    88    79    80    1
    89   138   139    2
    90    12    11    2
    91   141   139    1
    92   139   140    1
    93    66    69    1
    94    66    65    1
    95    11    10    1
    96     7     6    2
    97     6     5    1
    98   136   135    2
    99     5     2    1
   100    10     9    1
   101    10    13    1
   102     9     3   am
   103   135   132    1
   104    61    60    2
   105     3     2    1
   106     3     4    2
   107     2     1    1
   108   120   122    1
   109   120   119    1
   110   121   119    1
   111   132   133    1
   112   132   131    1
   113   130   128    1
   114    60    59    1
   115   119   116    1
   116   128   129    1
   117   128   127    1
   118   126   125    2
   119   133   134    2
   120   131   125   am
   121    59    58    1
   122    59    62    1
   123   125   124    1
   124    63    62    1
   125   127   124    1
   126    62    64    1
   127    57    55    1
   128   124   123    1
   129   116   115    1
   130   116   117    1
   131    47    49   ar
   132    47    45   ar
   133    49    48   ar
   134   118   117    2
   135    54    55    1
   136    54    51    1
   137    55    56    1
   138    45    44   ar
   139    48    46   ar
   140    53    52    1
   141    44    46   ar
   142    44    43    1
   143    51    52    1
   144    51    50    1
   145    43    40    1
   146    39    40    1
   147    40    41    1
   148    41    42    1
