@<TRIPOS>MOLECULE
tmp/4tlrA01.pdb
 178 166 0 0 0
SMALL
GASTEIGER

@<TRIPOS>ATOM
      1  N         26.8750    8.1230    8.7010 N.3   193  PHE193     -0.1241
      2  CA        27.1000    9.1880    9.6990 C.3   193  PHE193      0.1605
      3  C         28.1740   10.2090    9.3430 C.2   193  PHE193      0.2264
      4  O         28.1590   11.3120    9.8860 O.2   193  PHE193     -0.2867
      5  CB        27.4060    8.5800   11.0870 C.3   193  PHE193      0.0534
      6  CG        26.2190    7.9140   11.7510 C.ar  193  PHE193     -0.0203
      7  CD1       25.0390    8.6230   11.9840 C.ar  193  PHE193     -0.0042
      8  CD2       26.3040    6.6040   12.2090 C.ar  193  PHE193     -0.0042
      9  CE1       23.9400    8.0080   12.6090 C.ar  193  PHE193     -0.0003
     10  CE2       25.2170    5.9950   12.8510 C.ar  193  PHE193     -0.0003
     11  CZ        24.0400    6.6970   13.0480 C.ar  193  PHE193     -0.0000
     12  N         24.3350   17.0160    6.8370 N.3   197  PRO197     -0.2116
     13  CA        23.0120   16.8850    6.1850 C.3   197  PRO197      0.1372
     14  C         23.0210   17.2720    4.6860 C.2   197  PRO197      0.2244
     15  O         22.3800   16.5990    3.8810 O.2   197  PRO197     -0.2868
     16  CB        22.1200   17.8260    7.0210 C.3   197  PRO197      0.0268
     17  CG        22.7990   17.9210    8.3440 C.3   197  PRO197      0.0207
     18  CD        24.2640   17.9530    7.9810 C.3   197  PRO197      0.0892
     19  N         24.7310   14.5840    2.7060 N.3   200  ARG200     -0.1245
     20  CA        23.8940   13.3840    2.6660 C.3   200  ARG200      0.1563
     21  C         22.8520   13.4830    1.5580 C.2   200  ARG200      0.2260
     22  O         22.6940   12.5330    0.7900 O.2   200  ARG200     -0.2867
     23  CB        23.2170   13.1410    4.0180 C.3   200  ARG200      0.0307
     24  CG        22.4950   11.7840    4.1250 C.3   200  ARG200      0.0489
     25  CD        21.9910   11.4910    5.5460 C.3   200  ARG200      0.2205
     26  NE        23.0950   11.2090    6.4680 N.pl3 200  ARG200     -0.0865
     27  CZ        23.6400   12.1030    7.2890 C.cat 200  ARG200      0.5346
     28  NH1       23.1080   13.3160    7.4120 N.pl3 200  ARG200      0.1354
     29  NH2       24.6960   11.7810    8.0220 N.pl3 200  ARG200      0.1354
     30  N         22.6360   11.1370   -1.8070 N.3   204  LEU204     -0.1245
     31  CA        21.4270   10.3750   -2.1010 C.3   204  LEU204      0.1561
     32  C         20.9070   10.6970   -3.4820 C.2   204  LEU204      0.2260
     33  O         20.5950    9.7730   -4.2420 O.2   204  LEU204     -0.2867
     34  CB        20.3300   10.7450   -1.0790 C.3   204  LEU204      0.0270
     35  CG        20.4010   10.1300    0.2770 C.3   204  LEU204      0.0019
     36  CD1       19.2550   10.7240    1.1470 C.3   204  LEU204      0.0001
     37  CD2       20.2730    8.5970    0.1750 C.3   204  LEU204      0.0001
     38  N         23.1200    2.9490    2.1960 N.3   314  LEU314     -0.1245
     39  CA        23.4310    4.0390    3.1220 C.3   314  LEU314      0.1561
     40  C         23.0040    3.5310    4.4900 C.2   314  LEU314      0.2260
     41  O         21.8260    3.1940    4.7010 O.2   314  LEU314     -0.2867
     42  CB        22.7430    5.3610    2.7800 C.3   314  LEU314      0.0270
     43  CG        23.3940    6.6170    3.4240 C.3   314  LEU314      0.0019
     44  CD1       24.9070    6.7430    3.0670 C.3   314  LEU314      0.0001
     45  CD2       22.6830    7.8920    2.9540 C.3   314  LEU314      0.0001
     46  N         23.0960    4.1170    8.6990 N.3   316  CYS316     -0.1235
     47  CA        23.2550    4.9520    9.9010 C.3   316  CYS316      0.1677
     48  C         22.7490    4.0770   11.0760 C.2   316  CYS316      0.2270
     49  O         21.5440    4.0590   11.3460 O.2   316  CYS316     -0.2867
     50  CB        22.4300    6.2340    9.7860 C.3   316  CYS316      0.0956
     51  SG        23.0650    7.4340    8.5930 S.3   316  CYS316     -0.0801
     52  N         19.3570    2.2240   10.8680 N.3   319  ASP319     -0.1239
     53  CA        18.6070    2.7840    9.7480 C.3   319  ASP319      0.1674
     54  C         19.3350    2.4430    8.4530 C.2   319  ASP319      0.2266
     55  O         20.5010    2.7990    8.2630 O.2   319  ASP319     -0.2867
     56  CB        18.4440    4.2930    9.9430 C.3   319  ASP319      0.1410
     57  CG        17.7620    4.6180   11.2780 C.2   319  ASP319      0.3668
     58  OD1       16.6030    4.2180   11.4580 O.co2 319  ASP319     -0.2456
     59  OD2       18.4430    5.1300   12.1790 O.co2 319  ASP319     -0.2456
     60  N         19.0170    2.1790    4.0750 N.3   321  VAL321     -0.1245
     61  CA        18.4000    2.4670    2.7780 C.3   321  VAL321      0.1561
     62  C         19.2110    1.7730    1.6910 C.2   321  VAL321      0.2260
     63  O         20.4340    1.8600    1.6850 O.2   321  VAL321     -0.2867
     64  CB        18.1610    3.9640    2.4850 C.3   321  VAL321      0.0252
     65  CG1       17.6980    4.1840    1.0360 C.3   321  VAL321      0.0019
     66  CG2       17.1410    4.5300    3.4500 C.3   321  VAL321      0.0019
     67  N         12.4100    8.7850   -5.3850 N.3   360  LEU360     -0.1245
     68  CA        13.3100    9.0810   -4.2630 C.3   360  LEU360      0.1561
     69  C         12.6330    9.7940   -3.1020 C.2   360  LEU360      0.2260
     70  O         12.8830    9.4490   -1.9460 O.2   360  LEU360     -0.2867
     71  CB        14.5100    9.9220   -4.7430 C.3   360  LEU360      0.0270
     72  CG        15.5620   10.2730   -3.6740 C.3   360  LEU360      0.0019
     73  CD1       16.1170    9.0250   -2.9620 C.3   360  LEU360      0.0001
     74  CD2       16.6760   11.0830   -4.2700 C.3   360  LEU360      0.0001
     75  N         10.7280    7.7950   -0.2370 N.3   363  ILE363     -0.1245
     76  CA        11.4240    6.9070    0.6890 C.3   363  ILE363      0.1561
     77  C         11.5500    7.6300    2.0220 C.2   363  ILE363      0.2260
     78  O         11.9430    8.7900    2.0340 O.2   363  ILE363     -0.2867
     79  CB        12.8090    6.4530    0.1400 C.3   363  ILE363      0.0252
     80  CG1       12.6580    5.6110   -1.1620 C.3   363  ILE363      0.0019
     81  CG2       13.5870    5.6700    1.2260 C.3   363  ILE363      0.0019
     82  CD1       13.9690    5.3760   -2.0040 C.3   363  ILE363      0.0001
     83  N         13.4650    7.4480    5.8470 N.3   365  SER365     -0.1202
     84  CA        14.4690    6.7870    6.6870 C.3   365  SER365      0.2020
     85  C         14.9460    7.8090    7.7030 C.2   365  SER365      0.2619
     86  O         15.1020    8.9850    7.3470 O.2   365  SER365     -0.2717
     87  CB        15.6330    6.2680    5.8520 C.3   365  SER365      0.2103
     88  OG        16.6290    5.6970    6.6910 O.3   365  SER365     -0.2182
     89  N         15.1700    7.3800    8.9670 N.am  366  CYS366     -0.1969
     90  CA        15.5270    8.3050   10.0710 C.3   366  CYS366      0.1712
     91  C         14.4240    9.3860   10.2010 C.2   366  CYS366      0.2296
     92  O         14.7320   10.5640   10.4400 O.2   366  CYS366     -0.2864
     93  CB        16.9050    8.9390    9.8710 C.3   366  CYS366      0.0983
     94  SG        18.2960    7.8080   10.1220 S.3   366  CYS366     -0.0798
     95  N         13.0050   10.8750    7.9870 N.3   368  SER368     -0.1202
     96  CA        13.2150   11.9240    6.9940 C.3   368  SER368      0.2020
     97  C         12.9810   11.5210    5.5640 C.2   368  SER368      0.2619
     98  O         13.0500   10.3390    5.2270 O.2   368  SER368     -0.2717
     99  CB        14.6340   12.4900    7.1360 C.3   368  SER368      0.2103
    100  OG        14.9030   12.8150    8.4930 O.3   368  SER368     -0.2182
    101  N         12.7450   12.5360    4.6940 N.am  369  ASN369     -0.1960
    102  CA        12.5730   12.3460    3.2620 C.3   369  ASN369      0.1819
    103  C         13.1850   13.5340    2.5100 C.2   369  ASN369      0.2621
    104  O         13.3270   14.6220    3.0580 O.2   369  ASN369     -0.2715
    105  CB        11.0990   12.1380    2.8680 C.3   369  ASN369      0.1195
    106  CG        10.2650   13.3670    3.0920 C.2   369  ASN369      0.2630
    107  OD1        9.8920   13.6770    4.2200 O.2   369  ASN369     -0.2716
    108  ND2       10.0000   14.1270    2.0430 N.am  369  ASN369     -0.0877
    109  N         13.5380   13.2960    1.2600 N.am  370  VAL370     -0.1977
    110  CA        14.1120   14.2830    0.3550 C.3   370  VAL370      0.1596
    111  C         12.9560   15.1170   -0.1820 C.2   370  VAL370      0.2287
    112  O         11.9420   14.5520   -0.5950 O.2   370  VAL370     -0.2864
    113  CB        14.8690   13.5920   -0.8160 C.3   370  VAL370      0.0276
    114  CG1       15.3140   14.6280   -1.8630 C.3   370  VAL370      0.0022
    115  CG2       16.0690   12.7890   -0.3050 C.3   370  VAL370      0.0022
    116  N         16.6960   17.6250    3.1390 N.3   384  LEU384     -0.1245
    117  CA        16.0030   16.6270    3.9510 C.3   384  LEU384      0.1561
    118  C         15.0560   17.2950    4.8940 C.2   384  LEU384      0.2260
    119  O         15.4030   18.2850    5.5520 O.2   384  LEU384     -0.2867
    120  CB        16.9990   15.7540    4.7370 C.3   384  LEU384      0.0270
    121  CG        17.8100   14.8060    3.8550 C.3   384  LEU384      0.0019
    122  CD1       19.0960   14.4090    4.5210 C.3   384  LEU384      0.0001
    123  CD2       16.9910   13.5880    3.4810 C.3   384  LEU384      0.0001
    124  N         11.2260   16.4010    7.5390 N.3   386  ARG386     -0.1245
    125  CA        10.4880   15.4020    8.3010 C.3   386  ARG386      0.1563
    126  C          9.1660   16.0370    8.7360 C.2   386  ARG386      0.2260
    127  O          9.0010   17.2610    8.6600 O.2   386  ARG386     -0.2867
    128  CB        11.2950   14.9570    9.5390 C.3   386  ARG386      0.0307
    129  CG        11.5610   16.0590   10.6080 C.3   386  ARG386      0.0489
    130  CD        11.8850   15.4200   11.9470 C.3   386  ARG386      0.2205
    131  NE        10.6580   14.8690   12.5250 N.pl3 386  ARG386     -0.0865
    132  CZ        10.5970   13.8130   13.3260 C.cat 386  ARG386      0.5346
    133  NH1       11.7040   13.1740   13.6800 N.pl3 386  ARG386      0.1354
    134  NH2        9.4290   13.3900   13.7820 N.pl3 386  ARG386      0.1354
    135  N         19.9750   20.5650   12.1030 N.3   414  MET414     -0.1230
    136  CA        19.7600   19.4610   11.1590 C.3   414  MET414      0.1702
    137  C         18.7180   19.7720   10.0810 C.2   414  MET414      0.2592
    138  O         18.7980   19.2170    8.9930 O.2   414  MET414     -0.2718
    139  CB        19.3770   18.1740   11.9120 C.3   414  MET414      0.0401
    140  CG        20.5470   17.6360   12.8080 C.3   414  MET414      0.0596
    141  SD        20.1540   16.0510   13.6380 S.3   414  MET414     -0.1393
    142  CE        19.0050   16.6040   14.9790 C.3   414  MET414      0.0692
    143  N         17.6910   20.5660   10.4290 N.am  415  TYR415     -0.1976
    144  CA        16.6010   20.8480    9.5070 C.3   415  TYR415      0.1639
    145  C         16.4980   22.3290    9.1230 C.2   415  TYR415      0.2290
    146  O         15.4180   22.7840    8.7710 O.2   415  TYR415     -0.2864
    147  CB        15.2560   20.2970   10.0680 C.3   415  TYR415      0.0560
    148  CG        15.1940   18.7850   10.1460 C.ar  415  TYR415     -0.0198
    149  CD1       15.0410   18.0090    8.9920 C.ar  415  TYR415     -0.0009
    150  CD2       15.3660   18.1230   11.3620 C.ar  415  TYR415     -0.0009
    151  CE1       14.9930   16.6150    9.0590 C.ar  415  TYR415      0.0417
    152  CE2       15.3080   16.7310   11.4470 C.ar  415  TYR415      0.0417
    153  CZ        15.1430   15.9820   10.2920 C.ar  415  TYR415      0.1957
    154  OH        15.0540   14.6290   10.4050 O.3   415  TYR415     -0.2866
    155  N         23.0540   13.9440   15.5400 N.3   448  TYR448     -0.1241
    156  CA        23.2930   12.5320   15.2620 C.3   448  TYR448      0.1605
    157  C         23.4780   11.7750   16.6020 C.2   448  TYR448      0.2264
    158  O         24.3420   10.9080   16.7120 O.2   448  TYR448     -0.2867
    159  CB        24.5320   12.2800   14.3380 C.3   448  TYR448      0.0534
    160  CG        24.5740   12.9220   12.9610 C.ar  448  TYR448     -0.0201
    161  CD1       23.4970   13.6660   12.4740 C.ar  448  TYR448     -0.0009
    162  CD2       25.6710   12.7370   12.1200 C.ar  448  TYR448     -0.0009
    163  CE1       23.5570   14.2950   11.2300 C.ar  448  TYR448      0.0417
    164  CE2       25.7110   13.3050   10.8470 C.ar  448  TYR448      0.0417
    165  CZ        24.6570   14.0920   10.4090 C.ar  448  TYR448      0.1957
    166  OH        24.7240   14.6870    9.1640 O.3   448  TYR448     -0.2866
    167  N         23.8960    7.6780   19.4370 N.3   555  TYR555     -0.1241
    168  CA        22.6780    6.9260   19.7890 C.3   555  TYR555      0.1605
    169  C         23.0200    5.5880   20.4960 C.2   555  TYR555      0.2264
    170  O         23.9580    4.9360   20.0620 O.2   555  TYR555     -0.2867
    171  CB        21.8460    6.6010   18.5390 C.3   555  TYR555      0.0534
    172  CG        21.5310    7.7640   17.6320 C.ar  555  TYR555     -0.0201
    173  CD1       20.4720    8.6260   17.9100 C.ar  555  TYR555     -0.0009
    174  CD2       22.2360    7.9560   16.4440 C.ar  555  TYR555     -0.0009
    175  CE1       20.1310    9.6610   17.0350 C.ar  555  TYR555      0.0417
    176  CE2       21.9120    8.9930   15.5690 C.ar  555  TYR555      0.0417
    177  CZ        20.8480    9.8320   15.8580 C.ar  555  TYR555      0.1957
    178  OH        20.5200   10.8330   14.9740 O.3   555  TYR555     -0.2866
@<TRIPOS>BOND
     1    67    68    1
     2    71    68    1
     3    71    72    1
     4    74    72    1
     5    68    69    1
     6    33    32    2
     7    72    73    1
     8    32    31    1
     9    69    70    2
    10    31    30    1
    11    31    34    1
    12    82    80    1
    13   114   113    1
    14    80    79    1
    15    34    35    1
    16   113   115    1
    17   113   110    1
    18   112   111    2
    19    75    76    1
    20   111   110    1
    21    79    76    1
    22    79    81    1
    23    37    35    1
    24    35    36    1
    25   110   109    1
    26    76    77    1
    27    22    21    2
    28    65    64    1
    29   109   103   am
    30    21    20    1
    31    63    62    2
    32    62    61    1
    33    77    78    2
    34   108   106   am
    35    38    39    1
    36    64    61    1
    37    64    66    1
    38   103   104    2
    39   103   102    1
    40    20    19    1
    41    20    23    1
    42    61    60    1
    43    42    39    1
    44    42    43    1
    45   105   106    1
    46   105   102    1
    47    45    43    1
    48    44    43    1
    49   106   107    2
    50    39    40    1
    51   116   117    1
    52   102   101    1
    53   123   121    1
    54   121   122    1
    55   121   120    1
    56    15    14    2
    57   117   120    1
    58   117   118    1
    59    23    24    1
    60    24    25    1
    61    40    41    2
    62    14    13    1
    63   101    97   am
    64   118   119    2
    65    98    97    2
    66    25    26    1
    67    97    96    1
    68    83    84    1
    69    87    84    1
    70    87    88    1
    71    13    12    1
    72    13    16    1
    73    26    27    2
    74    84    85    1
    75    12    18    1
    76    96    99    1
    77    96    95    1
    78    16    17    1
    79    99   100    1
    80    27    28    1
    81    27    29    1
    82    86    85    2
    83   124   125    1
    84    85    89   am
    85    18    17    1
    86    55    54    2
    87   125   126    1
    88   125   128    1
    89    54    53    1
    90    51    50    1
    91   127   126    2
    92    46    47    1
    93     1     2    1
    94   146   145    2
    95    89    90    1
    96   149   151   ar
    97   149   148   ar
    98   138   137    2
    99   151   153   ar
   100   145   144    1
   101   166   165    1
   102     3     2    1
   103     3     4    2
   104   144   147    1
   105   144   143    1
   106   128   129    1
   107     2     5    1
   108    53    56    1
   109    53    52    1
   110    50    47    1
   111    93    90    1
   112    93    94    1
   113    47    48    1
   114    56    57    1
   115   147   148    1
   116    90    91    1
   117   137   143   am
   118   137   136    1
   119   148   150   ar
   120    91    92    2
   121   153   154    1
   122   153   152   ar
   123   165   164   ar
   124   165   163   ar
   125   129   130    1
   126   164   162   ar
   127    48    49    2
   128     5     6    1
   129   136   139    1
   130   136   135    1
   131   163   161   ar
   132    57    58   ar
   133    57    59   ar
   134   150   152   ar
   135     6     7   ar
   136     6     8   ar
   137   139   140    1
   138   130   131    1
   139     7     9   ar
   140   162   160   ar
   141     8    10   ar
   142   161   160   ar
   143   131   132    2
   144     9    11   ar
   145   140   141    1
   146    10    11   ar
   147   160   159    1
   148   132   133    1
   149   132   134    1
   150   141   142    1
   151   159   156    1
   152   178   177    1
   153   156   155    1
   154   156   157    1
   155   176   177   ar
   156   176   174   ar
   157   177   175   ar
   158   174   172   ar
   159   157   158    2
   160   175   173   ar
   161   172   173   ar
   162   172   171    1
   163   171   168    1
   164   167   168    1
   165   168   169    1
   166   170   169    2
