@<TRIPOS>MOLECULE
tmp/4tlrA00.pdb
 133 127 0 0 0
SMALL
GASTEIGER

@<TRIPOS>ATOM
      1  N         10.8050   24.5160    5.7820 N.3   419  LEU419     -0.1245
      2  CA         9.8170   25.5530    5.9480 C.3   419  LEU419      0.1561
      3  C          9.4720   25.7600    7.4430 C.2   419  LEU419      0.2260
      4  O          9.3730   26.8980    7.9140 O.2   419  LEU419     -0.2867
      5  CB         8.5780   25.0840    5.1490 C.3   419  LEU419      0.0270
      6  CG         7.2520   25.7980    5.3670 C.3   419  LEU419      0.0019
      7  CD1        7.3790   27.3320    5.0320 C.3   419  LEU419      0.0001
      8  CD2        6.2010   25.1590    4.4490 C.3   419  LEU419      0.0001
      9  N         12.5050   27.1660    9.6850 N.3   422  ARG422     -0.1231
     10  CA        12.7110   28.5920    9.4060 C.3   422  ARG422      0.1694
     11  C         11.5700   29.4670    9.9400 C.2   422  ARG422      0.2591
     12  O         11.8000   30.4720   10.6380 O.2   422  ARG422     -0.2718
     13  CB        12.9130   28.8110    7.8950 C.3   422  ARG422      0.0321
     14  CG        14.2040   28.1380    7.3660 C.3   422  ARG422      0.0489
     15  CD        14.2630   28.2210    5.8670 C.3   422  ARG422      0.2205
     16  NE        14.5890   29.5840    5.4330 N.pl3 422  ARG422     -0.0865
     17  CZ        14.2990   30.0690    4.2320 C.cat 422  ARG422      0.5346
     18  NH1       13.6150   29.3350    3.3590 N.pl3 422  ARG422      0.1354
     19  NH2       14.6810   31.2960    3.8960 N.pl3 422  ARG422      0.1354
     20  N         10.3420   29.1090    9.5900 N.am  423  MET423     -0.1979
     21  CA         9.2020   29.9640    9.9270 C.3   423  MET423      0.1605
     22  C          8.9200   30.0110   11.4210 C.2   423  MET423      0.2287
     23  O          8.6730   31.0930   11.9760 O.2   423  MET423     -0.2864
     24  CB         7.9480   29.4830    9.1620 C.3   423  MET423      0.0413
     25  CG         6.7150   30.3370    9.4220 C.3   423  MET423      0.0598
     26  SD         5.2810   29.6940    8.5460 S.3   423  MET423     -0.1393
     27  CE         4.8800   28.2910    9.5100 C.3   423  MET423      0.0692
     28  N         15.4050   29.4720    0.4970 N.3   474  LEU474     -0.1231
     29  CA        14.5030   28.5420   -0.1870 C.3   474  LEU474      0.1693
     30  C         13.0730   29.0820   -0.2660 C.2   474  LEU474      0.2592
     31  O         12.6070   29.7070    0.6780 O.2   474  LEU474     -0.2718
     32  CB        14.5230   27.1600    0.5030 C.3   474  LEU474      0.0284
     33  CG        15.8680   26.4020    0.4430 C.3   474  LEU474      0.0019
     34  CD1       15.7060   24.9840    0.9410 C.3   474  LEU474      0.0001
     35  CD2       16.4800   26.4380   -0.9480 C.3   474  LEU474      0.0001
     36  N         12.4400   28.9020   -1.4270 N.am  475  HIS475     -0.1962
     37  CA        11.0620   29.3020   -1.7320 C.3   475  HIS475      0.1787
     38  C         10.4970   28.2150   -2.6320 C.2   475  HIS475      0.2621
     39  O         11.2320   27.3100   -3.0040 O.2   475  HIS475     -0.2715
     40  CB        11.0120   30.7120   -2.4000 C.3   475  HIS475      0.0785
     41  CG        11.7080   30.7740   -3.7180 C.ar  475  HIS475      0.0821
     42  ND1       11.1390   30.2340   -4.8610 N.ar  475  HIS475     -0.2267
     43  CD2       12.9300   31.2610   -4.0280 C.ar  475  HIS475      0.1154
     44  CE1       12.0370   30.4060   -5.8150 C.ar  475  HIS475      0.1986
     45  NE2       13.1350   30.9910   -5.3510 N.ar  475  HIS475     -0.2212
     46  N          9.2060   28.2800   -2.9980 N.am  476  SER476     -0.1936
     47  CA         8.6110   27.2530   -3.8550 C.3   476  SER476      0.2055
     48  C          8.7410   25.8710   -3.2260 C.2   476  SER476      0.2643
     49  O          9.1470   24.9050   -3.8780 O.2   476  SER476     -0.2714
     50  CB         9.1800   27.2760   -5.2780 C.3   476  SER476      0.2130
     51  OG         8.9500   28.5490   -5.8570 O.3   476  SER476     -0.2179
     52  N          8.3730   25.7800   -1.9540 N.am  477  TYR477     -0.1973
     53  CA         8.3150   24.5020   -1.2600 C.3   477  TYR477      0.1639
     54  C          7.2610   23.6410   -1.9380 C.2   477  TYR477      0.2290
     55  O          6.3210   24.1800   -2.5330 O.2   477  TYR477     -0.2864
     56  CB         7.9600   24.7040    0.1950 C.3   477  TYR477      0.0560
     57  CG         9.1250   25.2080    1.0060 C.ar  477  TYR477     -0.0198
     58  CD1       10.2040   24.3770    1.3040 C.ar  477  TYR477     -0.0009
     59  CD2        9.1810   26.5290    1.4360 C.ar  477  TYR477     -0.0009
     60  CE1       11.2670   24.8240    2.0820 C.ar  477  TYR477      0.0417
     61  CE2       10.2530   26.9930    2.2060 C.ar  477  TYR477      0.0417
     62  CZ        11.2990   26.1380    2.5120 C.ar  477  TYR477      0.1957
     63  OH        12.3400   26.5580    3.3030 O.3   477  TYR477     -0.2866
     64  N          4.1870   21.6870    2.0460 N.3   482  ILE482     -0.1245
     65  CA         3.2760   22.7570    2.4980 C.3   482  ILE482      0.1561
     66  C          2.1210   22.1120    3.3050 C.2   482  ILE482      0.2260
     67  O          1.8140   22.5520    4.4120 O.2   482  ILE482     -0.2867
     68  CB         2.7450   23.5500    1.2620 C.3   482  ILE482      0.0252
     69  CG1        3.8640   24.4410    0.6550 C.3   482  ILE482      0.0019
     70  CG2        1.4810   24.3620    1.6240 C.3   482  ILE482      0.0019
     71  CD1        3.5410   25.1300   -0.7400 C.3   482  ILE482      0.0001
     72  N          3.1660   20.6910    6.7850 N.3   485  VAL485     -0.1231
     73  CA         3.3570   21.7500    7.7770 C.3   485  VAL485      0.1692
     74  C          1.9860   22.3280    8.1770 C.2   485  VAL485      0.2591
     75  O          1.7290   22.4580    9.3780 O.2   485  VAL485     -0.2718
     76  CB         4.3610   22.8420    7.3010 C.3   485  VAL485      0.0266
     77  CG1        4.4980   23.9740    8.3240 C.3   485  VAL485      0.0020
     78  CG2        5.7410   22.2240    6.9620 C.3   485  VAL485      0.0020
     79  N          1.1170   22.6530    7.1850 N.am  486  ALA486     -0.1980
     80  CA        -0.2250   23.2340    7.4510 C.3   486  ALA486      0.1597
     81  C         -1.0730   22.3160    8.3340 C.2   486  ALA486      0.2287
     82  O         -1.7990   22.8170    9.2030 O.2   486  ALA486     -0.2864
     83  CB        -0.9520   23.5210    6.1560 C.3   486  ALA486      0.0319
     84  N          0.2300   22.7450   11.8920 N.3   489  LEU489     -0.1245
     85  CA        -0.2680   24.0350   12.4180 C.3   489  LEU489      0.1561
     86  C         -1.7110   23.8710   12.8970 C.2   489  LEU489      0.2260
     87  O         -2.0490   24.3440   13.9710 O.2   489  LEU489     -0.2867
     88  CB        -0.2410   25.1680   11.3450 C.3   489  LEU489      0.0270
     89  CG         1.0960   25.4760   10.6260 C.3   489  LEU489      0.0019
     90  CD1        0.9750   26.7260    9.7740 C.3   489  LEU489      0.0001
     91  CD2        2.2160   25.6590   11.5870 C.3   489  LEU489      0.0001
     92  N          1.2150   31.8030    9.0890 N.3   497  LEU497     -0.1245
     93  CA         2.3380   32.4610    8.3950 C.3   497  LEU497      0.1561
     94  C          2.4250   33.9630    8.6830 C.2   497  LEU497      0.2260
     95  O          3.5000   34.4370    9.0310 O.2   497  LEU497     -0.2867
     96  CB         2.2220   32.1990    6.8670 C.3   497  LEU497      0.0270
     97  CG         3.1920   32.9140    5.8950 C.3   497  LEU497      0.0019
     98  CD1        4.6740   32.6280    6.2430 C.3   497  LEU497      0.0001
     99  CD2        2.9170   32.4620    4.4640 C.3   497  LEU497      0.0001
    100  N          5.6570   35.8490   10.2820 N.3   501  ARG501     -0.1245
    101  CA         6.3440   36.8690    9.4770 C.3   501  ARG501      0.1563
    102  C          6.4840   38.1720   10.2920 C.2   501  ARG501      0.2260
    103  O          7.5770   38.7510   10.3360 O.2   501  ARG501     -0.2867
    104  CB         5.6170   37.0860    8.1440 C.3   501  ARG501      0.0307
    105  CG         6.2610   38.1640    7.2600 C.3   501  ARG501      0.0489
    106  CD         5.6130   38.2500    5.8830 C.3   501  ARG501      0.2205
    107  NE         4.2500   38.7860    5.9530 N.pl3 501  ARG501     -0.0865
    108  CZ         3.1520   38.1270    5.5850 C.cat 501  ARG501      0.5346
    109  NH1        1.9630   38.7070    5.6790 N.pl3 501  ARG501      0.1354
    110  NH2        3.2380   36.8880    5.1060 N.pl3 501  ARG501      0.1354
    111  N         13.9630   35.9530    4.6830 N.3   528  TRP528     -0.1241
    112  CA        12.6480   35.5800    4.1250 C.3   528  TRP528      0.1605
    113  C         11.5220   36.5340    4.5570 C.2   528  TRP528      0.2264
    114  O         10.5330   36.6680    3.8410 O.2   528  TRP528     -0.2867
    115  CB        12.2370   34.1360    4.5140 C.3   528  TRP528      0.0550
    116  CG        12.1420   33.8520    5.9980 C.ar  528  TRP528      0.0003
    117  CD1       13.1300   33.3610    6.7980 C.ar  528  TRP528      0.0946
    118  CD2       10.9800   34.0100    6.8470 C.ar  528  TRP528      0.0152
    119  NE1       12.6600   33.1900    8.0830 N.ar  528  TRP528     -0.2442
    120  CE2       11.3510   33.6010    8.1430 C.ar  528  TRP528      0.0810
    121  CE3        9.6560   34.4430    6.6260 C.ar  528  TRP528      0.0012
    122  CZ2       10.4480   33.6070    9.2210 C.ar  528  TRP528      0.0191
    123  CZ3        8.7790   34.4870    7.6950 C.ar  528  TRP528      0.0001
    124  CH2        9.1680   34.0610    8.9720 C.ar  528  TRP528      0.0015
    125  N         14.9410   42.4430    0.4530 N.3   533  LYS533     -0.1245
    126  CA        15.9270   41.4470    0.8770 C.3   533  LYS533      0.1561
    127  C         17.3540   41.9530    0.7480 C.2   533  LYS533      0.2260
    128  O         17.6830   42.6630   -0.2100 O.2   533  LYS533     -0.2867
    129  CB        15.7920   40.1590    0.0370 C.3   533  LYS533      0.0271
    130  CG        14.4090   39.5170    0.0460 C.3   533  LYS533      0.0035
    131  CD        14.4930   38.0770    0.5010 C.3   533  LYS533      0.0206
    132  CE        13.2070   37.3030    0.3540 C.3   533  LYS533      0.1093
    133  NZ        12.1090   37.8470    1.1920 N.3   533  LYS533     -0.1314
@<TRIPOS>BOND
     1    51    50    1
     2    44    45   ar
     3    44    42   ar
     4    45    43   ar
     5    50    47    1
     6    42    41   ar
     7    43    41   ar
     8    49    48    2
     9    47    48    1
    10    47    46    1
    11    41    40    1
    12    48    52   am
    13    39    38    2
    14    46    38   am
    15    38    37    1
    16    55    54    2
    17    40    37    1
    18    52    53    1
    19    54    53    1
    20    37    36    1
    21    36    30   am
    22    53    56    1
    23    35    33    1
    24    71    69    1
    25    30    29    1
    26    30    31    2
    27   128   127    2
    28    29    28    1
    29    29    32    1
    30   129   130    1
    31   129   126    1
    32   130   131    1
    33    56    57    1
    34   132   131    1
    35   132   133    1
    36    33    32    1
    37    33    34    1
    38   125   126    1
    39    69    68    1
    40   127   126    1
    41    57    58   ar
    42    57    59   ar
    43    68    70    1
    44    68    65    1
    45    58    60   ar
    46    59    61   ar
    47    64    65    1
    48    60    62   ar
    49    61    62   ar
    50    65    66    1
    51    62    63    1
    52    66    67    2
    53    18    17    1
    54   114   113    2
    55    19    17    1
    56   112   115    1
    57   112   113    1
    58   112   111    1
    59    17    16    2
    60     8     6    1
    61    99    97    1
    62   115   116    1
    63     7     6    1
    64   110   108    1
    65     5     6    1
    66     5     2    1
    67    16    15    1
    68   108   109    1
    69   108   107    2
    70     1     2    1
    71    15    14    1
    72   106   107    1
    73   106   105    1
    74    97    98    1
    75    97    96    1
    76     2     3    1
    77   116   117   ar
    78   116   118   ar
    79    83    80    1
    80   121   118   ar
    81   121   123   ar
    82    72    73    1
    83   117   119   ar
    84   118   120   ar
    85    96    93    1
    86    78    76    1
    87    79    80    1
    88    79    74   am
    89   105   104    1
    90    76    73    1
    91    76    77    1
    92    14    13    1
    93     3     4    2
    94    80    81    1
    95   123   124   ar
    96    73    74    1
    97    13    10    1
    98   119   120   ar
    99   120   122   ar
   100   104   101    1
   101    74    75    2
   102    81    82    2
   103    93    94    1
   104    93    92    1
   105    26    25    1
   106    26    27    1
   107    94    95    2
   108   124   122   ar
   109    24    25    1
   110    24    21    1
   111    10     9    1
   112    10    11    1
   113   101   100    1
   114   101   102    1
   115    20    21    1
   116    20    11   am
   117    90    89    1
   118    21    22    1
   119    11    12    2
   120   102   103    2
   121    89    88    1
   122    89    91    1
   123    88    85    1
   124    22    23    2
   125    84    85    1
   126    85    86    1
   127    86    87    2
