@<TRIPOS>MOLECULE
tmp/4tlzC02.pdb
 98 91 0 0 0
SMALL
GASTEIGER

@<TRIPOS>ATOM
      1  N        -27.7870   13.5290   25.6970 N.3    53  GLN53      -0.1231
      2  CA       -28.8800   13.4310   26.6530 C.3    53  GLN53       0.1698
      3  C        -30.2050   13.5080   25.9080 C.2    53  GLN53       0.2592
      4  O        -31.2600   13.7070   26.5090 O.2    53  GLN53      -0.2718
      5  CB       -28.7910   14.5510   27.6910 C.3    53  GLN53       0.0381
      6  CG       -27.4670   14.6020   28.4360 C.3    53  GLN53       0.0905
      7  CD       -27.4140   13.6300   29.5970 C.2    53  GLN53       0.2608
      8  OE1      -28.1660   13.7560   30.5630 O.2    53  GLN53      -0.2717
      9  NE2      -26.5210   12.6500   29.5080 N.am   53  GLN53      -0.0878
     10  N        -30.1350   13.3490   24.5910 N.am   54  VAL54      -0.1966
     11  CA       -31.3140   13.4250   23.7460 C.3    54  VAL54       0.1727
     12  C        -31.2350   12.3210   22.6980 C.2    54  VAL54       0.2616
     13  O        -30.1580   12.0080   22.1820 O.2    54  VAL54      -0.2715
     14  CB       -31.4090   14.8240   23.0820 C.3    54  VAL54       0.0290
     15  CG1      -31.0010   14.7620   21.6270 C.3    54  VAL54       0.0023
     16  CG2      -32.7940   15.3980   23.2240 C.3    54  VAL54       0.0023
     17  N        -32.3780   11.7140   22.4080 N.am   55  SER55      -0.1950
     18  CA       -32.4900   10.6580   21.3980 C.3    55  SER55       0.1924
     19  C        -31.9990   11.1160   20.0160 C.2    55  SER55       0.2314
     20  O        -32.1440   12.2930   19.6600 O.2    55  SER55      -0.2863
     21  CB       -33.9510   10.2160   21.3100 C.3    55  SER55       0.2116
     22  OG       -34.2050    9.5000   20.1120 O.3    55  SER55      -0.2180
     23  N        -34.1020   13.2110   17.7130 N.3    58  LYS58      -0.1245
     24  CA       -34.1840   14.6440   17.9670 C.3    58  LYS58       0.1561
     25  C        -32.9460   15.3270   17.4020 C.2    58  LYS58       0.2260
     26  O        -32.0400   15.7050   18.1450 O.2    58  LYS58      -0.2867
     27  CB       -34.3030   14.9200   19.4670 C.3    58  LYS58       0.0271
     28  CG       -35.7110   14.7630   20.0170 C.3    58  LYS58       0.0035
     29  CD       -35.7250   14.8580   21.5340 C.3    58  LYS58       0.0206
     30  CE       -36.8590   14.0400   22.1280 C.3    58  LYS58       0.1093
     31  NZ       -37.7030   14.8480   23.0520 N.3    58  LYS58      -0.1314
     32  N        -29.0090    6.9320   22.2160 N.3    92  PHE92      -0.1241
     33  CA       -28.1470    8.0520   22.5820 C.3    92  PHE92       0.1605
     34  C        -26.7350    7.9170   22.0210 C.2    92  PHE92       0.2264
     35  O        -25.9340    7.0970   22.4920 O.2    92  PHE92      -0.2867
     36  CB       -28.1220    8.2050   24.1080 C.3    92  PHE92       0.0534
     37  CG       -29.4900    8.3930   24.6980 C.ar   92  PHE92      -0.0203
     38  CD1      -30.2310    7.3060   25.1460 C.ar   92  PHE92      -0.0042
     39  CD2      -30.0580    9.6560   24.7540 C.ar   92  PHE92      -0.0042
     40  CE1      -31.5120    7.4830   25.6640 C.ar   92  PHE92      -0.0003
     41  CE2      -31.3320    9.8480   25.2750 C.ar   92  PHE92      -0.0003
     42  CZ       -32.0640    8.7610   25.7290 C.ar   92  PHE92      -0.0000
     43  N        -36.1130   10.9630   32.5560 N.3   231  ASN231     -0.1240
     44  CA       -36.5740   10.9680   31.1720 C.3   231  ASN231      0.1653
     45  C        -37.5420    9.8130   30.8830 C.2   231  ASN231      0.2266
     46  O        -37.6350    9.3460   29.7520 O.2   231  ASN231     -0.2867
     47  CB       -35.4050   10.9690   30.1820 C.3   231  ASN231      0.1155
     48  CG       -34.6560    9.6510   30.1680 C.2   231  ASN231      0.2627
     49  OD1      -34.8450    8.7980   31.0510 O.2   231  ASN231     -0.2716
     50  ND2      -33.8080    9.4670   29.1550 N.am  231  ASN231     -0.0877
     51  N        -41.1800   13.0020   30.1910 N.3   236  ASN236     -0.1240
     52  CA       -40.4100   13.4250   29.0250 C.3   236  ASN236      0.1653
     53  C        -41.2510   14.1620   27.9850 C.2   236  ASN236      0.2266
     54  O        -40.7090   14.8120   27.0850 O.2   236  ASN236     -0.2867
     55  CB       -39.6900   12.2380   28.3830 C.3   236  ASN236      0.1155
     56  CG       -38.3510   12.6390   27.7820 C.2   236  ASN236      0.2627
     57  OD1      -37.4790   13.1480   28.4910 O.2   236  ASN236     -0.2716
     58  ND2      -38.1810   12.4160   26.4760 N.am  236  ASN236     -0.0877
     59  N        -40.9060   17.8830   26.8120 N.3   239  PHE239     -0.1241
     60  CA       -40.0100   18.2610   25.7260 C.3   239  PHE239      0.1605
     61  C        -40.6650   18.1540   24.3510 C.2   239  PHE239      0.2264
     62  O        -40.0670   18.5410   23.3460 O.2   239  PHE239     -0.2867
     63  CB       -38.7190   17.4460   25.7910 C.3   239  PHE239      0.0534
     64  CG       -38.0130   17.5790   27.0960 C.ar  239  PHE239     -0.0203
     65  CD1      -37.3560   18.7560   27.4190 C.ar  239  PHE239     -0.0042
     66  CD2      -38.0350   16.5460   28.0240 C.ar  239  PHE239     -0.0042
     67  CE1      -36.7100   18.9040   28.6440 C.ar  239  PHE239     -0.0003
     68  CE2      -37.3900   16.6750   29.2530 C.ar  239  PHE239     -0.0003
     69  CZ       -36.7280   17.8580   29.5620 C.ar  239  PHE239     -0.0000
     70  N        -35.9270   16.9470   35.2490 N.3   265  THR265     -0.1203
     71  CA       -35.7100   16.3750   33.9210 C.3   265  THR265      0.1994
     72  C        -34.4460   16.9500   33.2920 C.2   265  THR265      0.2617
     73  O        -33.8850   16.3830   32.3470 O.2   265  THR265     -0.2717
     74  CB       -36.8750   16.6980   32.9690 C.3   265  THR265      0.1784
     75  OG1      -37.0790   18.1230   32.9260 O.3   265  THR265     -0.2211
     76  CG2      -38.1550   16.0010   33.4170 C.3   265  THR265      0.0376
     77  N        -33.9960   18.0880   33.8130 N.am  266  ASN266     -0.1974
     78  CA       -33.0000   18.8850   33.0980 C.3   266  ASN266      0.1688
     79  C        -31.9270   19.5340   33.9850 C.2   266  ASN266      0.2292
     80  O        -30.7500   19.5530   33.6300 O.2   266  ASN266     -0.2864
     81  CB       -33.7220   19.9600   32.2750 C.3   266  ASN266      0.1181
     82  CG       -32.8840   20.4740   31.1320 C.2   266  ASN266      0.2629
     83  OD1      -32.2950   19.6900   30.3880 O.2   266  ASN266     -0.2716
     84  ND2      -32.8230   21.8010   30.9840 N.am  266  ASN266     -0.0877
     85  N        -32.4020   23.5610   24.7460 N.3   395  LEU395     -0.1245
     86  CA       -32.0080   22.1780   24.5080 C.3   395  LEU395      0.1561
     87  C        -32.0490   21.8380   23.0270 C.2   395  LEU395      0.2260
     88  O        -32.5190   22.6410   22.2150 O.2   395  LEU395     -0.2867
     89  CB       -32.9540   21.2420   25.2570 C.3   395  LEU395      0.0270
     90  CG       -32.9980   21.4300   26.7700 C.3   395  LEU395      0.0019
     91  CD1      -33.9800   20.4560   27.4110 C.3   395  LEU395      0.0001
     92  CD2      -31.5970   21.2540   27.3540 C.3   395  LEU395      0.0001
     93  N        -33.8330   19.3550   22.0750 N.3   397  SER397     -0.1217
     94  CA       -35.1090   18.6300   21.9840 C.3   397  SER397      0.1889
     95  C        -36.0190   19.0820   20.8420 C.2   397  SER397      0.2288
     96  O        -36.7210   18.2690   20.2460 O.2   397  SER397     -0.2866
     97  CB       -35.8930   18.7480   23.2960 C.3   397  SER397      0.2089
     98  OG       -35.0710   18.4770   24.4160 O.3   397  SER397     -0.2183
@<TRIPOS>BOND
     1    25    24    1
     2    25    26    2
     3    23    24    1
     4    24    27    1
     5    27    28    1
     6    20    19    2
     7    19    18    1
     8    28    29    1
     9    22    21    1
    10    96    95    2
    11    95    94    1
    12    21    18    1
    13    18    17    1
    14    29    30    1
    15    15    14    1
    16    94    93    1
    17    94    97    1
    18    34    35    2
    19    34    33    1
    20    30    31    1
    21    13    12    2
    22    88    87    2
    23    32    33    1
    24    17    12   am
    25    33    36    1
    26    12    11    1
    27    87    86    1
    28    14    16    1
    29    14    11    1
    30    97    98    1
    31    62    61    2
    32    11    10    1
    33    36    37    1
    34    61    60    1
    35    86    85    1
    36    86    89    1
    37    10     3   am
    38    37    39   ar
    39    37    38   ar
    40    39    41   ar
    41    38    40   ar
    42    89    90    1
    43    41    42   ar
    44    40    42   ar
    45     1     2    1
    46    60    63    1
    47    60    59    1
    48    63    64    1
    49     3     4    2
    50     3     2    1
    51    58    56   am
    52     2     5    1
    53    90    92    1
    54    90    91    1
    55    54    53    2
    56    64    65   ar
    57    64    66   ar
    58    65    67   ar
    59     5     6    1
    60    56    55    1
    61    56    57    2
    62    53    52    1
    63    66    68   ar
    64    55    52    1
    65     6     7    1
    66    67    69   ar
    67    52    51    1
    68    50    48   am
    69    68    69   ar
    70     9     7   am
    71     7     8    2
    72    46    45    2
    73    48    47    1
    74    48    49    2
    75    47    44    1
    76    83    82    2
    77    45    44    1
    78    84    82   am
    79    82    81    1
    80    44    43    1
    81    81    78    1
    82    73    72    2
    83    75    74    1
    84    74    76    1
    85    74    71    1
    86    78    77    1
    87    78    79    1
    88    72    77   am
    89    72    71    1
    90    80    79    2
    91    71    70    1
