@<TRIPOS>MOLECULE
tmp/4tmcA01.pdb
 129 124 0 0 0
SMALL
GASTEIGER

@<TRIPOS>ATOM
      1  N         24.5690   17.9980   35.0180 N.3    35  ALA35      -0.1245
      2  CA        23.9710   17.1140   35.9930 C.3    35  ALA35       0.1562
      3  C         23.3110   15.9280   35.3180 C.2    35  ALA35       0.2260
      4  O         22.4340   16.1130   34.4480 O.2    35  ALA35      -0.2867
      5  CB        22.9360   17.8670   36.8120 C.3    35  ALA35       0.0290
      6  N         21.4540   12.2810   36.5620 N.3    37  THR37      -0.1218
      7  CA        21.0180   11.3030   37.5640 C.3    37  THR37       0.1862
      8  C         21.2790    9.8860   37.0510 C.2    37  THR37       0.2287
      9  O         20.9370    9.5370   35.8830 O.2    37  THR37      -0.2866
     10  CB        19.5210   11.4980   37.8720 C.3    37  THR37       0.1770
     11  OG1       19.3170   12.7630   38.5250 O.3    37  THR37      -0.2211
     12  CG2       18.9330   10.3940   38.7490 C.3    37  THR37       0.0375
     13  N         21.4130    7.0980   39.7720 N.3    39  MET39      -0.1245
     14  CA        20.7660    6.1150   40.7160 C.3    39  MET39       0.1570
     15  C         21.7270    5.0160   41.2070 C.2    39  MET39       0.2261
     16  O         21.3100    3.8920   41.4590 O.2    39  MET39      -0.2867
     17  CB        19.4610    5.4790   40.1010 C.3    39  MET39       0.0387
     18  CG        18.3730    6.3880   39.5330 C.3    39  MET39       0.0595
     19  SD        18.0290    7.4500   40.9350 S.3    39  MET39      -0.1393
     20  CE        16.3910    8.0140   40.4020 C.3    39  MET39       0.0692
     21  N         22.1260   15.4150   40.2140 N.3    72  GLY72      -0.1225
     22  CA        21.2430   16.0960   41.1780 C.3    72  GLY72       0.1811
     23  C         21.4190   15.4400   42.5540 C.2    72  GLY72       0.2280
     24  O         21.4580   14.2200   42.6680 O.2    72  GLY72      -0.2866
     25  N         25.0490   19.9570   42.0650 N.3   114  GLN114     -0.1245
     26  CA        23.7070   20.4120   41.7360 C.3   114  GLN114      0.1566
     27  C         22.8030   20.0770   42.9240 C.2   114  GLN114      0.2260
     28  O         22.6350   18.8900   43.2880 O.2   114  GLN114     -0.2867
     29  CB        23.1720   19.7750   40.4470 C.3   114  GLN114      0.0367
     30  CG        21.8230   20.4000   40.1120 C.3   114  GLN114      0.0905
     31  CD        21.0630   19.6700   39.0130 C.2   114  GLN114      0.2608
     32  OE1       20.6060   18.5300   39.1500 O.2   114  GLN114     -0.2717
     33  NE2       20.9390   20.3370   37.9040 N.am  114  GLN114     -0.0878
     34  N         19.2600   19.6640   44.2470 N.3   116  TRP116     -0.1241
     35  CA        17.9990   19.2040   43.6080 C.3   116  TRP116      0.1605
     36  C         16.8870   18.9580   44.6360 C.2   116  TRP116      0.2264
     37  O         17.0420   18.1700   45.6250 O.2   116  TRP116     -0.2867
     38  CB        18.3060   17.8720   42.9070 C.3   116  TRP116      0.0550
     39  CG        17.3080   17.3100   42.0120 C.ar  116  TRP116      0.0003
     40  CD1       16.3980   17.9320   41.3510 C.ar  116  TRP116      0.0946
     41  CD2       17.2340   15.9320   41.6230 C.ar  116  TRP116      0.0152
     42  NE1       15.7100   17.0650   40.5020 N.ar  116  TRP116     -0.2442
     43  CE2       16.2260   15.8200   40.6690 C.ar  116  TRP116      0.0810
     44  CE3       17.9580   14.8190   41.9580 C.ar  116  TRP116      0.0012
     45  CZ2       15.8980   14.6290   40.0780 C.ar  116  TRP116      0.0191
     46  CZ3       17.6260   13.6020   41.3430 C.ar  116  TRP116      0.0001
     47  CH2       16.6250   13.5240   40.4490 C.ar  116  TRP116      0.0015
     48  N         19.1630   23.8620   41.1310 N.3   191  HIS191     -0.1241
     49  CA        18.2870   23.2840   40.1440 C.3   191  HIS191      0.1621
     50  C         16.9060   23.9300   40.1790 C.2   191  HIS191      0.2264
     51  O         16.0690   23.6950   41.1070 O.2   191  HIS191     -0.2867
     52  CB        18.1910   21.7520   40.3780 C.3   191  HIS191      0.0745
     53  CG        17.6410   20.9790   39.2350 C.ar  191  HIS191      0.0817
     54  ND1       16.9380   21.5580   38.2100 N.ar  191  HIS191     -0.2268
     55  CD2       17.6620   19.6460   38.9670 C.ar  191  HIS191      0.1154
     56  CE1       16.5460   20.6290   37.3620 C.ar  191  HIS191      0.1986
     57  NE2       17.0220   19.4700   37.7610 N.ar  191  HIS191     -0.2212
     58  N         13.5050   21.5780   34.7440 N.3   194  ASN194     -0.1240
     59  CA        12.9660   20.2180   34.5200 C.3   194  ASN194      0.1653
     60  C         11.7670   19.7760   35.3900 C.2   194  ASN194      0.2266
     61  O         11.6260   18.6050   35.7080 O.2   194  ASN194     -0.2867
     62  CB        14.1350   19.2260   34.6030 C.3   194  ASN194      0.1155
     63  CG        15.3030   19.5290   33.6160 C.2   194  ASN194      0.2627
     64  OD1       15.0950   20.0710   32.4890 O.2   194  ASN194     -0.2716
     65  ND2       16.5160   19.1490   34.0110 N.am  194  ASN194     -0.0877
     66  N         10.9380   20.3220   38.4650 N.3   196  TYR196     -0.1241
     67  CA        11.1510   20.1060   39.9110 C.3   196  TYR196      0.1605
     68  C         10.6450   21.2790   40.7230 C.2   196  TYR196      0.2264
     69  O          9.9000   22.1460   40.2110 O.2   196  TYR196     -0.2867
     70  CB        12.6040   19.6080   40.1480 C.3   196  TYR196      0.0534
     71  CG        12.8410   18.2860   39.4240 C.ar  196  TYR196     -0.0201
     72  CD1       13.6270   18.2260   38.2570 C.ar  196  TYR196     -0.0009
     73  CD2       12.2910   17.0800   39.8890 C.ar  196  TYR196     -0.0009
     74  CE1       13.7980   17.0280   37.5570 C.ar  196  TYR196      0.0417
     75  CE2       12.4750   15.8910   39.1980 C.ar  196  TYR196      0.0417
     76  CZ        13.2040   15.8950   37.9900 C.ar  196  TYR196      0.1957
     77  OH        13.3730   14.6950   37.3520 O.3   196  TYR196     -0.2866
     78  N         20.1360   26.6180   37.0550 N.3   243  ARG243     -0.1245
     79  CA        19.7200   25.9600   35.8300 C.3   243  ARG243      0.1563
     80  C         18.2300   26.2260   35.6250 C.2   243  ARG243      0.2260
     81  O         17.4400   26.0510   36.5650 O.2   243  ARG243     -0.2867
     82  CB        19.9470   24.4650   35.9500 C.3   243  ARG243      0.0307
     83  CG        19.6680   23.7370   34.6510 C.3   243  ARG243      0.0489
     84  CD        20.0700   22.2580   34.6290 C.3   243  ARG243      0.2205
     85  NE        20.6720   21.9700   33.3090 N.pl3 243  ARG243     -0.0865
     86  CZ        20.7250   20.7940   32.6970 C.cat 243  ARG243      0.5346
     87  NH1       20.0910   19.7400   33.2080 N.pl3 243  ARG243      0.1354
     88  NH2       21.3330   20.7140   31.5050 N.pl3 243  ARG243      0.1354
     89  N          8.8570   18.3080   30.3430 N.3   250  PHE250     -0.1241
     90  CA         9.0910   17.1920   31.2600 C.3   250  PHE250      0.1605
     91  C          8.6130   17.6590   32.6320 C.2   250  PHE250      0.2264
     92  O          8.8290   18.8260   32.9990 O.2   250  PHE250     -0.2867
     93  CB        10.5910   16.8290   31.2280 C.3   250  PHE250      0.0534
     94  CG        10.9900   15.8350   32.2610 C.ar  250  PHE250     -0.0203
     95  CD1       10.6560   14.5070   32.1030 C.ar  250  PHE250     -0.0042
     96  CD2       11.6440   16.2320   33.4270 C.ar  250  PHE250     -0.0042
     97  CE1       10.9840   13.5480   33.0800 C.ar  250  PHE250     -0.0003
     98  CE2       11.9740   15.2990   34.3920 C.ar  250  PHE250     -0.0003
     99  CZ        11.6680   13.9550   34.2150 C.ar  250  PHE250     -0.0000
    100  N         14.0940   14.8190   28.2830 N.3   295  PRO295     -0.2102
    101  CA        15.3570   14.0380   28.1500 C.3   295  PRO295      0.1504
    102  C         15.1470   12.5370   28.1280 C.2   295  PRO295      0.2575
    103  O         16.1120   11.8100   27.9410 O.2   295  PRO295     -0.2718
    104  CB        16.1580   14.4460   29.4030 C.3   295  PRO295      0.0282
    105  CG        15.1040   14.7440   30.4350 C.3   295  PRO295      0.0208
    106  CD        13.8450   15.1990   29.6910 C.3   295  PRO295      0.0893
    107  N         13.8920   12.0850   28.3430 N.am  296  PHE296     -0.1977
    108  CA        13.5150   10.6690   28.1790 C.3   296  PHE296      0.1639
    109  C         13.2570   10.2330   26.7360 C.2   296  PHE296      0.2290
    110  O         13.1400    9.0450   26.4700 O.2   296  PHE296     -0.2864
    111  CB        12.2780   10.3480   29.0700 C.3   296  PHE296      0.0560
    112  CG        12.6620   10.1040   30.4820 C.ar  296  PHE296     -0.0200
    113  CD1       13.0280   11.1650   31.2970 C.ar  296  PHE296     -0.0042
    114  CD2       12.7450    8.7980   30.9800 C.ar  296  PHE296     -0.0042
    115  CE1       13.4610   10.9300   32.5970 C.ar  296  PHE296     -0.0003
    116  CE2       13.1770    8.5780   32.2660 C.ar  296  PHE296     -0.0003
    117  CZ        13.5070    9.6440   33.0780 C.ar  296  PHE296     -0.0000
    118  N         19.9150    4.1860   34.6670 N.3   375  TYR375     -0.1241
    119  CA        19.4320    4.3060   36.0150 C.3   375  TYR375      0.1605
    120  C         19.4650    3.0480   36.8290 C.2   375  TYR375      0.2264
    121  O         18.7920    2.9800   37.8560 O.2   375  TYR375     -0.2867
    122  CB        17.9400    4.7770   35.9800 C.3   375  TYR375      0.0534
    123  CG        17.6840    6.0120   35.1470 C.ar  375  TYR375     -0.0201
    124  CD1       18.2070    7.2470   35.5090 C.ar  375  TYR375     -0.0009
    125  CD2       16.9110    5.9630   34.0020 C.ar  375  TYR375     -0.0009
    126  CE1       17.9550    8.3760   34.7700 C.ar  375  TYR375      0.0417
    127  CE2       16.7180    7.0770   33.2230 C.ar  375  TYR375      0.0417
    128  CZ        17.1940    8.2720   33.6150 C.ar  375  TYR375      0.1957
    129  OH        16.9990    9.3730   32.8430 O.3   375  TYR375     -0.2866
@<TRIPOS>BOND
     1   110   109    2
     2   109   108    1
     3   103   102    2
     4   102   101    1
     5   102   107   am
     6   101   100    1
     7   101   104    1
     8   108   107    1
     9   108   111    1
    10   100   106    1
    11   111   112    1
    12   104   105    1
    13   106   105    1
    14    89    90    1
    15   112   114   ar
    16   112   113   ar
    17   114   116   ar
    18    93    90    1
    19    93    94    1
    20    90    91    1
    21   113   115   ar
    22    88    86    1
    23    95    94   ar
    24    95    97   ar
    25    94    96   ar
    26   116   117   ar
    27    64    63    2
    28   115   117   ar
    29    91    92    2
    30    86    87    1
    31    86    85    2
    32   129   128    1
    33    97    99   ar
    34   127   128   ar
    35   127   125   ar
    36    85    84    1
    37    96    98   ar
    38   128   126   ar
    39    63    65   am
    40    63    62    1
    41   125   123   ar
    42    99    98   ar
    43     4     3    2
    44    59    62    1
    45    59    58    1
    46    59    60    1
    47    84    83    1
    48    83    82    1
    49   118   119    1
    50   126   124   ar
    51     1     2    1
    52   123   124   ar
    53   123   122    1
    54     3     2    1
    55    60    61    2
    56    80    79    1
    57    80    81    2
    58    79    82    1
    59    79    78    1
    60     9     8    2
    61   122   119    1
    62     2     5    1
    63   119   120    1
    64     6     7    1
    65   120   121    2
    66     8     7    1
    67    77    76    1
    68    56    57   ar
    69    56    54   ar
    70    74    76   ar
    71    74    72   ar
    72     7    10    1
    73    57    55   ar
    74    10    11    1
    75    10    12    1
    76    33    31   am
    77    76    75   ar
    78    54    53   ar
    79    72    71   ar
    80    66    67    1
    81    55    53   ar
    82    31    32    2
    83    31    30    1
    84    75    73   ar
    85    53    52    1
    86    71    73   ar
    87    71    70    1
    88    18    17    1
    89    18    19    1
    90    13    14    1
    91    67    70    1
    92    67    68    1
    93    45    47   ar
    94    45    43   ar
    95    17    14    1
    96    30    29    1
    97    49    50    1
    98    49    52    1
    99    49    48    1
   100    50    51    2
   101    69    68    2
   102    21    22    1
   103    20    19    1
   104    29    26    1
   105    47    46   ar
   106    42    43   ar
   107    42    40   ar
   108    43    41   ar
   109    14    15    1
   110    22    23    1
   111    15    16    2
   112    46    44   ar
   113    40    39   ar
   114    41    44   ar
   115    41    39   ar
   116    26    25    1
   117    26    27    1
   118    39    38    1
   119    23    24    2
   120    38    35    1
   121    27    28    2
   122    35    34    1
   123    35    36    1
   124    36    37    2
