@<TRIPOS>MOLECULE
tmp/4tmcA00.pdb
 240 235 0 0 0
SMALL
GASTEIGER

@<TRIPOS>ATOM
      1  N         26.9860   18.1260   32.3220 N.3    34  PRO34      -0.2102
      2  CA        25.8680   18.6210   33.0870 C.3    34  PRO34       0.1504
      3  C         25.4310   17.5730   34.0890 C.2    34  PRO34       0.2576
      4  O         25.9270   16.4330   34.0530 O.2    34  PRO34      -0.2718
      5  CB        24.7970   18.8120   32.0100 C.3    34  PRO34       0.0282
      6  CG        25.0410   17.6320   31.1320 C.3    34  PRO34       0.0208
      7  CD        26.5520   17.4590   31.0870 C.3    34  PRO34       0.0893
      8  N         24.5690   17.9980   35.0180 N.am   35  ALA35      -0.1966
      9  CA        23.9710   17.1140   35.9930 C.3    35  ALA35       0.1728
     10  C         23.3110   15.9280   35.3180 C.2    35  ALA35       0.2616
     11  O         22.4340   16.1130   34.4480 O.2    35  ALA35      -0.2715
     12  CB        22.9360   17.8670   36.8120 C.3    35  ALA35       0.0334
     13  N         23.6670   14.7220   35.7480 N.am   36  LEU36      -0.1963
     14  CA        23.0890   13.4990   35.2060 C.3    36  LEU36       0.1728
     15  C         22.7490   12.4980   36.3330 C.2    36  LEU36       0.2616
     16  O         23.6230   11.8790   36.9140 O.2    36  LEU36      -0.2715
     17  CB        24.0310   12.8490   34.1540 C.3    36  LEU36       0.0311
     18  CG        24.3040   13.6810   32.9270 C.3    36  LEU36       0.0022
     19  CD1       25.7010   13.3240   32.4120 C.3    36  LEU36       0.0001
     20  CD2       23.1860   13.6010   31.9020 C.3    36  LEU36       0.0001
     21  N         21.4540   12.2810   36.5620 N.am   37  THR37      -0.1951
     22  CA        21.0180   11.3030   37.5640 C.3    37  THR37       0.1897
     23  C         21.2790    9.8860   37.0510 C.2    37  THR37       0.2313
     24  O         20.9370    9.5370   35.8830 O.2    37  THR37      -0.2863
     25  CB        19.5210   11.4980   37.8720 C.3    37  THR37       0.1794
     26  OG1       19.3170   12.7630   38.5250 O.3    37  THR37      -0.2208
     27  CG2       18.9330   10.3940   38.7490 C.3    37  THR37       0.0378
     28  N         22.1260   15.4150   40.2140 N.3    72  GLY72      -0.1225
     29  CA        21.2430   16.0960   41.1780 C.3    72  GLY72       0.1811
     30  C         21.4190   15.4400   42.5540 C.2    72  GLY72       0.2280
     31  O         21.4580   14.2200   42.6680 O.2    72  GLY72      -0.2866
     32  N         25.0490   19.9570   42.0650 N.3   114  GLN114     -0.1245
     33  CA        23.7070   20.4120   41.7360 C.3   114  GLN114      0.1566
     34  C         22.8030   20.0770   42.9240 C.2   114  GLN114      0.2260
     35  O         22.6350   18.8900   43.2880 O.2   114  GLN114     -0.2867
     36  CB        23.1720   19.7750   40.4470 C.3   114  GLN114      0.0367
     37  CG        21.8230   20.4000   40.1120 C.3   114  GLN114      0.0905
     38  CD        21.0630   19.6700   39.0130 C.2   114  GLN114      0.2608
     39  OE1       20.6060   18.5300   39.1500 O.2   114  GLN114     -0.2717
     40  NE2       20.9390   20.3370   37.9040 N.am  114  GLN114     -0.0878
     41  N         19.2600   19.6640   44.2470 N.3   116  TRP116     -0.1241
     42  CA        17.9990   19.2040   43.6080 C.3   116  TRP116      0.1605
     43  C         16.8870   18.9580   44.6360 C.2   116  TRP116      0.2264
     44  O         17.0420   18.1700   45.6250 O.2   116  TRP116     -0.2867
     45  CB        18.3060   17.8720   42.9070 C.3   116  TRP116      0.0550
     46  CG        17.3080   17.3100   42.0120 C.ar  116  TRP116      0.0003
     47  CD1       16.3980   17.9320   41.3510 C.ar  116  TRP116      0.0946
     48  CD2       17.2340   15.9320   41.6230 C.ar  116  TRP116      0.0152
     49  NE1       15.7100   17.0650   40.5020 N.ar  116  TRP116     -0.2442
     50  CE2       16.2260   15.8200   40.6690 C.ar  116  TRP116      0.0810
     51  CE3       17.9580   14.8190   41.9580 C.ar  116  TRP116      0.0012
     52  CZ2       15.8980   14.6290   40.0780 C.ar  116  TRP116      0.0191
     53  CZ3       17.6260   13.6020   41.3430 C.ar  116  TRP116      0.0001
     54  CH2       16.6250   13.5240   40.4490 C.ar  116  TRP116      0.0015
     55  N         19.1630   23.8620   41.1310 N.3   191  HIS191     -0.1241
     56  CA        18.2870   23.2840   40.1440 C.3   191  HIS191      0.1621
     57  C         16.9060   23.9300   40.1790 C.2   191  HIS191      0.2264
     58  O         16.0690   23.6950   41.1070 O.2   191  HIS191     -0.2867
     59  CB        18.1910   21.7520   40.3780 C.3   191  HIS191      0.0745
     60  CG        17.6410   20.9790   39.2350 C.ar  191  HIS191      0.0817
     61  ND1       16.9380   21.5580   38.2100 N.ar  191  HIS191     -0.2268
     62  CD2       17.6620   19.6460   38.9670 C.ar  191  HIS191      0.1154
     63  CE1       16.5460   20.6290   37.3620 C.ar  191  HIS191      0.1986
     64  NE2       17.0220   19.4700   37.7610 N.ar  191  HIS191     -0.2212
     65  N         13.5050   21.5780   34.7440 N.3   194  ASN194     -0.1240
     66  CA        12.9660   20.2180   34.5200 C.3   194  ASN194      0.1653
     67  C         11.7670   19.7760   35.3900 C.2   194  ASN194      0.2266
     68  O         11.6260   18.6050   35.7080 O.2   194  ASN194     -0.2867
     69  CB        14.1350   19.2260   34.6030 C.3   194  ASN194      0.1155
     70  CG        15.3030   19.5290   33.6160 C.2   194  ASN194      0.2627
     71  OD1       15.0950   20.0710   32.4890 O.2   194  ASN194     -0.2716
     72  ND2       16.5160   19.1490   34.0110 N.am  194  ASN194     -0.0877
     73  N         10.9380   20.3220   38.4650 N.3   196  TYR196     -0.1241
     74  CA        11.1510   20.1060   39.9110 C.3   196  TYR196      0.1605
     75  C         10.6450   21.2790   40.7230 C.2   196  TYR196      0.2264
     76  O          9.9000   22.1460   40.2110 O.2   196  TYR196     -0.2867
     77  CB        12.6040   19.6080   40.1480 C.3   196  TYR196      0.0534
     78  CG        12.8410   18.2860   39.4240 C.ar  196  TYR196     -0.0201
     79  CD1       13.6270   18.2260   38.2570 C.ar  196  TYR196     -0.0009
     80  CD2       12.2910   17.0800   39.8890 C.ar  196  TYR196     -0.0009
     81  CE1       13.7980   17.0280   37.5570 C.ar  196  TYR196      0.0417
     82  CE2       12.4750   15.8910   39.1980 C.ar  196  TYR196      0.0417
     83  CZ        13.2040   15.8950   37.9900 C.ar  196  TYR196      0.1957
     84  OH        13.3730   14.6950   37.3520 O.3   196  TYR196     -0.2866
     85  N         20.1360   26.6180   37.0550 N.3   243  ARG243     -0.1245
     86  CA        19.7200   25.9600   35.8300 C.3   243  ARG243      0.1563
     87  C         18.2300   26.2260   35.6250 C.2   243  ARG243      0.2260
     88  O         17.4400   26.0510   36.5650 O.2   243  ARG243     -0.2867
     89  CB        19.9470   24.4650   35.9500 C.3   243  ARG243      0.0307
     90  CG        19.6680   23.7370   34.6510 C.3   243  ARG243      0.0489
     91  CD        20.0700   22.2580   34.6290 C.3   243  ARG243      0.2205
     92  NE        20.6720   21.9700   33.3090 N.pl3 243  ARG243     -0.0865
     93  CZ        20.7250   20.7940   32.6970 C.cat 243  ARG243      0.5346
     94  NH1       20.0910   19.7400   33.2080 N.pl3 243  ARG243      0.1354
     95  NH2       21.3330   20.7140   31.5050 N.pl3 243  ARG243      0.1354
     96  N         18.7520   24.5150   29.6080 N.3   288  VAL288     -0.1245
     97  CA        18.4130   23.3900   28.7470 C.3   288  VAL288      0.1561
     98  C         17.8590   24.0040   27.4530 C.2   288  VAL288      0.2260
     99  O         16.9390   24.8700   27.4910 O.2   288  VAL288     -0.2867
    100  CB        17.3440   22.5150   29.3800 C.3   288  VAL288      0.0252
    101  CG1       17.0780   21.2760   28.4370 C.3   288  VAL288      0.0019
    102  CG2       17.8130   22.0090   30.7340 C.3   288  VAL288      0.0019
    103  N         15.8420   19.7370   23.3370 N.3   292  VAL292     -0.1245
    104  CA        15.4600   18.5980   24.1820 C.3   292  VAL292      0.1561
    105  C         14.3980   19.1120   25.1830 C.2   292  VAL292      0.2260
    106  O         14.7360   19.7030   26.2070 O.2   292  VAL292     -0.2867
    107  CB        16.6740   17.9560   24.9180 C.3   292  VAL292      0.0252
    108  CG1       16.1980   16.7500   25.7390 C.3   292  VAL292      0.0019
    109  CG2       17.7370   17.5320   23.8990 C.3   292  VAL292      0.0019
    110  N         14.0940   14.8190   28.2830 N.3   295  PRO295     -0.2102
    111  CA        15.3570   14.0380   28.1500 C.3   295  PRO295      0.1504
    112  C         15.1470   12.5370   28.1280 C.2   295  PRO295      0.2575
    113  O         16.1120   11.8100   27.9410 O.2   295  PRO295     -0.2718
    114  CB        16.1580   14.4460   29.4030 C.3   295  PRO295      0.0282
    115  CG        15.1040   14.7440   30.4350 C.3   295  PRO295      0.0208
    116  CD        13.8450   15.1990   29.6910 C.3   295  PRO295      0.0893
    117  N         13.8920   12.0850   28.3430 N.am  296  PHE296     -0.1977
    118  CA        13.5150   10.6690   28.1790 C.3   296  PHE296      0.1639
    119  C         13.2570   10.2330   26.7360 C.2   296  PHE296      0.2290
    120  O         13.1400    9.0450   26.4700 O.2   296  PHE296     -0.2864
    121  CB        12.2780   10.3480   29.0700 C.3   296  PHE296      0.0560
    122  CG        12.6620   10.1040   30.4820 C.ar  296  PHE296     -0.0200
    123  CD1       13.0280   11.1650   31.2970 C.ar  296  PHE296     -0.0042
    124  CD2       12.7450    8.7980   30.9800 C.ar  296  PHE296     -0.0042
    125  CE1       13.4610   10.9300   32.5970 C.ar  296  PHE296     -0.0003
    126  CE2       13.1770    8.5780   32.2660 C.ar  296  PHE296     -0.0003
    127  CZ        13.5070    9.6440   33.0780 C.ar  296  PHE296     -0.0000
    128  N         17.1550   11.7380   20.9010 N.3   299  GLU299     -0.1245
    129  CA        17.5980   12.9240   20.2060 C.3   299  GLU299      0.1567
    130  C         16.7550   13.1950   18.9460 C.2   299  GLU299      0.2260
    131  O         16.4410   12.2580   18.1570 O.2   299  GLU299     -0.2867
    132  CB        19.0750   12.7960   19.8490 C.3   299  GLU299      0.0388
    133  CG        19.9910   12.9060   21.0910 C.3   299  GLU299      0.1160
    134  CD        20.2310   11.5950   21.8480 C.2   299  GLU299      0.3649
    135  OE1       19.6180   10.5390   21.5720 O.co2 299  GLU299     -0.2457
    136  OE2       21.1100   11.6060   22.7640 O.co2 299  GLU299     -0.2457
    137  N         22.7120   23.2480   26.9810 N.3   323  VAL323     -0.1231
    138  CA        22.7470   21.7450   27.0220 C.3   323  VAL323      0.1692
    139  C         21.5200   21.1950   26.2460 C.2   323  VAL323      0.2593
    140  O         20.3780   21.6460   26.4770 O.2   323  VAL323     -0.2718
    141  CB        22.6590   21.2110   28.4480 C.3   323  VAL323      0.0266
    142  CG1       22.8810   19.6550   28.4330 C.3   323  VAL323      0.0020
    143  CG2       23.6300   21.9190   29.4270 C.3   323  VAL323      0.0020
    144  N         21.7530   20.2790   25.3090 N.am  324  GLY324     -0.1942
    145  CA        20.6280   19.6220   24.6290 C.3   324  GLY324      0.2014
    146  C         20.9360   19.2080   23.2310 C.2   324  GLY324      0.2639
    147  O         20.9720   20.0480   22.3460 O.2   324  GLY324     -0.2714
    148  N         21.1300   17.9040   23.0070 N.am  325  ASN325     -0.1958
    149  CA        21.3840   17.3660   21.6480 C.3   325  ASN325      0.1819
    150  C         22.5470   18.0500   20.8720 C.2   325  ASN325      0.2621
    151  O         22.4980   18.2020   19.6310 O.2   325  ASN325     -0.2715
    152  CB        20.1010   17.3200   20.8560 C.3   325  ASN325      0.1195
    153  CG        20.1930   16.3930   19.6190 C.2   325  ASN325      0.2630
    154  OD1       20.9780   15.4190   19.5550 O.2   325  ASN325     -0.2716
    155  ND2       19.3750   16.6830   18.6590 N.am  325  ASN325     -0.0877
    156  N         23.6270   18.3410   21.5510 N.am  326  TYR326     -0.1960
    157  CA        24.8050   18.8750   20.8460 C.3   326  TYR326      0.1771
    158  C         25.7490   17.8300   20.2740 C.2   326  TYR326      0.2619
    159  O         26.4640   18.1700   19.3310 O.2   326  TYR326     -0.2715
    160  CB        25.5490   19.8230   21.6910 C.3   326  TYR326      0.0574
    161  CG        24.9010   21.1600   21.8470 C.ar  326  TYR326     -0.0198
    162  CD1       24.3870   21.5730   23.0810 C.ar  326  TYR326     -0.0009
    163  CD2       24.7490   22.0360   20.7560 C.ar  326  TYR326     -0.0009
    164  CE1       23.8120   22.8270   23.2120 C.ar  326  TYR326      0.0417
    165  CE2       24.2110   23.2980   20.9150 C.ar  326  TYR326      0.0417
    166  CZ        23.7140   23.6750   22.1580 C.ar  326  TYR326      0.1957
    167  OH        23.2030   24.9570   22.3070 O.3   326  TYR326     -0.2866
    168  N         25.7690   16.6100   20.8130 N.am  327  ALA327     -0.1977
    169  CA        26.7370   15.5950   20.4010 C.3   327  ALA327      0.1597
    170  C         26.5550   15.3010   18.9070 C.2   327  ALA327      0.2287
    171  O         27.5400   15.1770   18.1650 O.2   327  ALA327     -0.2864
    172  CB        26.5880   14.3250   21.2020 C.3   327  ALA327      0.0319
    173  N         27.1820   21.9460   26.9780 N.3   345  GLY345     -0.1210
    174  CA        27.0550   20.7770   27.7650 C.3   345  GLY345      0.1956
    175  C         26.6490   19.5540   26.9310 C.2   345  GLY345      0.2612
    176  O         25.8480   19.6250   26.0070 O.2   345  GLY345     -0.2717
    177  N         27.1470   18.4230   27.3740 N.am  346  TYR346     -0.1962
    178  CA        26.8920   17.1370   26.7500 C.3   346  TYR346      0.1771
    179  C         26.4340   16.1750   27.8350 C.2   346  TYR346      0.2620
    180  O         27.2180   15.8200   28.6560 O.2   346  TYR346     -0.2715
    181  CB        28.1620   16.6430   26.1100 C.3   346  TYR346      0.0574
    182  CG        28.6190   17.5290   24.9690 C.ar  346  TYR346     -0.0198
    183  CD1       28.3500   17.1780   23.6280 C.ar  346  TYR346     -0.0009
    184  CD2       29.3480   18.7000   25.1900 C.ar  346  TYR346     -0.0009
    185  CE1       28.7660   17.9620   22.5580 C.ar  346  TYR346      0.0417
    186  CE2       29.7410   19.5040   24.1330 C.ar  346  TYR346      0.0417
    187  CZ        29.4620   19.1400   22.8210 C.ar  346  TYR346      0.1957
    188  OH        29.8430   19.8710   21.7600 O.3   346  TYR346     -0.2866
    189  N         25.1930   15.7200   27.7820 N.am  347  GLY347     -0.1940
    190  CA        24.6360   14.7940   28.7900 C.3   347  GLY347      0.2014
    191  C         24.8070   13.3160   28.4150 C.2   347  GLY347      0.2639
    192  O         25.7310   12.6490   28.8580 O.2   347  GLY347     -0.2714
    193  N         23.9160   12.8110   27.5790 N.am  348  ARG348     -0.1963
    194  CA        23.9230   11.3820   27.2540 C.3   348  ARG348      0.1729
    195  C         25.2500   10.9470   26.6440 C.2   348  ARG348      0.2616
    196  O         25.7140    9.8640   26.9010 O.2   348  ARG348     -0.2715
    197  CB        22.7850   11.0560   26.3280 C.3   348  ARG348      0.0348
    198  CG        21.4960   11.0370   27.0620 C.3   348  ARG348      0.0492
    199  CD        20.2530   10.9790   26.1850 C.3   348  ARG348      0.2205
    200  NE        19.9410   12.3630   25.6990 N.pl3 348  ARG348     -0.0865
    201  CZ        18.8420   12.7270   25.0270 C.cat 348  ARG348      0.5346
    202  NH1       17.8640   11.8630   24.7840 N.pl3 348  ARG348      0.1354
    203  NH2       18.7060   13.9960   24.6300 N.pl3 348  ARG348      0.1354
    204  N         25.8460   11.7910   25.8210 N.am  349  SER349     -0.1950
    205  CA        27.1380   11.4750   25.2240 C.3   349  SER349      0.1924
    206  C         28.3060   11.4490   26.2830 C.2   349  SER349      0.2314
    207  O         29.2260   10.6520   26.0940 O.2   349  SER349     -0.2863
    208  CB        27.4250   12.4100   24.0480 C.3   349  SER349      0.2116
    209  OG        27.3470   13.7610   24.4420 O.3   349  SER349     -0.2180
    210  N         27.7380   10.3390   29.3860 N.3   351  ILE351     -0.1245
    211  CA        27.4790    9.0640   30.0580 C.3   351  ILE351      0.1561
    212  C         28.2710    8.0060   29.2540 C.2   351  ILE351      0.2260
    213  O         28.9250    7.1810   29.8440 O.2   351  ILE351     -0.2867
    214  CB        26.0030    8.6740   30.0290 C.3   351  ILE351      0.0252
    215  CG1       25.2600    9.6100   30.9710 C.3   351  ILE351      0.0019
    216  CG2       25.8480    7.1740   30.2630 C.3   351  ILE351      0.0019
    217  CD1       23.8080    9.3800   31.1370 C.3   351  ILE351      0.0001
    218  N         21.0290    3.6190   32.1220 N.3   374  PHE374     -0.1227
    219  CA        21.0770    4.9710   32.6230 C.3   374  PHE374      0.1736
    220  C         20.8460    5.0150   34.1630 C.2   374  PHE374      0.2595
    221  O         21.4810    5.8250   34.8600 O.2   374  PHE374     -0.2718
    222  CB        20.0320    5.8760   31.9480 C.3   374  PHE374      0.0547
    223  CG        20.4080    6.3560   30.5800 C.ar  374  PHE374     -0.0202
    224  CD1       21.6280    6.1000   30.0440 C.ar  374  PHE374     -0.0042
    225  CD2       19.5600    7.1730   29.9080 C.ar  374  PHE374     -0.0042
    226  CE1       21.9360    6.6220   28.7590 C.ar  374  PHE374     -0.0003
    227  CE2       19.8350    7.6990   28.6490 C.ar  374  PHE374     -0.0003
    228  CZ        21.0420    7.4500   28.1050 C.ar  374  PHE374     -0.0000
    229  N         19.9150    4.1860   34.6670 N.am  375  TYR375     -0.1976
    230  CA        19.4320    4.3060   36.0150 C.3   375  TYR375      0.1639
    231  C         19.4650    3.0480   36.8290 C.2   375  TYR375      0.2290
    232  O         18.7920    2.9800   37.8560 O.2   375  TYR375     -0.2864
    233  CB        17.9400    4.7770   35.9800 C.3   375  TYR375      0.0560
    234  CG        17.6840    6.0120   35.1470 C.ar  375  TYR375     -0.0198
    235  CD1       18.2070    7.2470   35.5090 C.ar  375  TYR375     -0.0009
    236  CD2       16.9110    5.9630   34.0020 C.ar  375  TYR375     -0.0009
    237  CE1       17.9550    8.3760   34.7700 C.ar  375  TYR375      0.0417
    238  CE2       16.7180    7.0770   33.2230 C.ar  375  TYR375      0.0417
    239  CZ        17.1940    8.2720   33.6150 C.ar  375  TYR375      0.1957
    240  OH        16.9990    9.3730   32.8430 O.3   375  TYR375     -0.2866
@<TRIPOS>BOND
     1   131   130    2
     2   171   170    2
     3   155   153   am
     4   170   169    1
     5   130   129    1
     6   159   158    2
     7   154   153    2
     8   153   152    1
     9   151   150    2
    10   132   129    1
    11   132   133    1
    12   129   128    1
    13   158   168   am
    14   158   157    1
    15   169   168    1
    16   169   172    1
    17   163   165   ar
    18   163   161   ar
    19   157   156    1
    20   157   160    1
    21   152   149    1
    22   150   156   am
    23   150   149    1
    24   165   166   ar
    25   133   134    1
    26   135   134   ar
    27   149   148    1
    28   160   161    1
    29   188   187    1
    30   161   162   ar
    31   134   136   ar
    32   166   167    1
    33   166   164   ar
    34   147   146    2
    35   185   187   ar
    36   185   183   ar
    37   187   186   ar
    38   148   146   am
    39   162   164   ar
    40   146   145    1
    41   103   104    1
    42   183   182   ar
    43   109   107    1
    44   208   209    1
    45   208   205    1
    46   186   184   ar
    47   104   107    1
    48   104   105    1
    49   145   144    1
    50   203   201    1
    51   202   201    1
    52   107   108    1
    53   182   184   ar
    54   182   181    1
    55   201   200    2
    56   105   106    2
    57   205   204    1
    58   205   206    1
    59   144   139   am
    60   200   199    1
    61   204   195   am
    62   176   175    2
    63   207   206    2
    64   181   178    1
    65   199   198    1
    66   139   140    2
    67   139   138    1
    68   197   198    1
    69   197   194    1
    70   120   119    2
    71   195   196    2
    72   195   194    1
    73   119   118    1
    74   178   177    1
    75   178   179    1
    76   175   177   am
    77   175   174    1
    78   173   174    1
    79   137   138    1
    80   138   141    1
    81   194   193    1
    82    98    99    2
    83    98    97    1
    84   193   191   am
    85   189   179   am
    86   189   190    1
    87   179   180    2
    88   113   112    2
    89   228   227   ar
    90   228   226   ar
    91   112   111    1
    92   112   117   am
    93   111   110    1
    94   111   114    1
    95   118   117    1
    96   118   121    1
    97   110   116    1
    98   191   190    1
    99   191   192    2
   100   142   141    1
   101   101   100    1
   102   141   143    1
   103   227   225   ar
   104    97   100    1
   105    97    96    1
   106   226   224   ar
   107   121   122    1
   108   212   213    2
   109   212   211    1
   110   100   102    1
   111   210   211    1
   112   114   115    1
   113   116   115    1
   114   225   223   ar
   115   214   211    1
   116   214   216    1
   117   214   215    1
   118   224   223   ar
   119   122   124   ar
   120   122   123   ar
   121   223   222    1
   122   215   217    1
   123   124   126   ar
   124     7     6    1
   125     7     1    1
   126     6     5    1
   127   123   125   ar
   128    95    93    1
   129    20    18    1
   130   222   219    1
   131     5     2    1
   132   218   219    1
   133   126   127   ar
   134     1     2    1
   135    19    18    1
   136    71    70    2
   137   125   127   ar
   138   219   220    1
   139    93    94    1
   140    93    92    2
   141   240   239    1
   142    18    17    1
   143     2     3    1
   144   238   239   ar
   145   238   236   ar
   146    92    91    1
   147   239   237   ar
   148    70    72   am
   149    70    69    1
   150   236   234   ar
   151     4     3    2
   152     3     8   am
   153    17    14    1
   154   220   229   am
   155   220   221    2
   156    11    10    2
   157    66    69    1
   158    66    65    1
   159    66    67    1
   160    91    90    1
   161    90    89    1
   162   229   230    1
   163   237   235   ar
   164     8     9    1
   165   234   235   ar
   166   234   233    1
   167    14    13    1
   168    14    15    1
   169    10    13   am
   170    10     9    1
   171    67    68    2
   172    87    86    1
   173    87    88    2
   174    86    89    1
   175    86    85    1
   176    24    23    2
   177   233   230    1
   178     9    12    1
   179   230   231    1
   180    15    21   am
   181    15    16    2
   182    21    22    1
   183   231   232    2
   184    23    22    1
   185    84    83    1
   186    63    64   ar
   187    63    61   ar
   188    81    83   ar
   189    81    79   ar
   190    22    25    1
   191    64    62   ar
   192    25    26    1
   193    25    27    1
   194    40    38   am
   195    83    82   ar
   196    61    60   ar
   197    79    78   ar
   198    73    74    1
   199    62    60   ar
   200    38    39    2
   201    38    37    1
   202    82    80   ar
   203    60    59    1
   204    78    80   ar
   205    78    77    1
   206    74    77    1
   207    74    75    1
   208    52    54   ar
   209    52    50   ar
   210    37    36    1
   211    56    57    1
   212    56    59    1
   213    56    55    1
   214    57    58    2
   215    76    75    2
   216    28    29    1
   217    36    33    1
   218    54    53   ar
   219    49    50   ar
   220    49    47   ar
   221    50    48   ar
   222    29    30    1
   223    53    51   ar
   224    47    46   ar
   225    48    51   ar
   226    48    46   ar
   227    33    32    1
   228    33    34    1
   229    46    45    1
   230    30    31    2
   231    45    42    1
   232    34    35    2
   233    42    41    1
   234    42    43    1
   235    43    44    2
