@<TRIPOS>MOLECULE
tmp/4tmfB00.pdb
 181 177 0 0 0
SMALL
GASTEIGER

@<TRIPOS>ATOM
      1  N         20.2440    5.0410  -39.9960 N.3    80  LEU80      -0.1231
      2  CA        20.7280    3.8410  -39.3520 C.3    80  LEU80       0.1693
      3  C         20.3510    3.8590  -37.8720 C.2    80  LEU80       0.2592
      4  O         20.8140    4.7180  -37.1190 O.2    80  LEU80      -0.2718
      5  CB        22.2440    3.7130  -39.5200 C.3    80  LEU80       0.0284
      6  CG        22.8770    2.5000  -38.8310 C.3    80  LEU80       0.0019
      7  CD1       22.3630    1.2070  -39.4410 C.3    80  LEU80       0.0001
      8  CD2       24.4030    2.5530  -38.8670 C.3    80  LEU80       0.0001
      9  N         19.4820    2.9290  -37.4810 N.am   81  LEU81      -0.1966
     10  CA        19.1850    2.6780  -36.0700 C.3    81  LEU81       0.1728
     11  C         20.1540    1.5920  -35.5990 C.2    81  LEU81       0.2616
     12  O         20.8220    0.9580  -36.4040 O.2    81  LEU81      -0.2715
     13  CB        17.7310    2.2310  -35.8910 C.3    81  LEU81       0.0311
     14  CG        16.7060    3.1300  -36.5910 C.3    81  LEU81       0.0022
     15  CD1       15.3090    2.5390  -36.5000 C.3    81  LEU81       0.0001
     16  CD2       16.7180    4.5220  -35.9960 C.3    81  LEU81       0.0001
     17  N         20.2480    1.3930  -34.2920 N.am   82  TRP82      -0.1960
     18  CA        21.1340    0.3800  -33.7270 C.3    82  TRP82       0.1771
     19  C         20.6390    0.0280  -32.3410 C.2    82  TRP82       0.2620
     20  O         19.9400    0.8140  -31.7050 O.2    82  TRP82      -0.2715
     21  CB        22.5980    0.8670  -33.6720 C.3    82  TRP82       0.0590
     22  CG        22.7780    2.1520  -32.9160 C.ar   82  TRP82       0.0006
     23  CD1       22.8000    3.4090  -33.4450 C.ar   82  TRP82       0.0946
     24  CD2       22.9450    2.3130  -31.4890 C.ar   82  TRP82       0.0152
     25  NE1       22.9630    4.3370  -32.4400 N.ar   82  TRP82      -0.2442
     26  CE2       23.0640    3.6950  -31.2370 C.ar   82  TRP82       0.0810
     27  CE3       23.0060    1.4240  -30.4070 C.ar   82  TRP82       0.0012
     28  CZ2       23.2250    4.2110  -29.9520 C.ar   82  TRP82       0.0191
     29  CZ3       23.1720    1.9310  -29.1310 C.ar   82  TRP82       0.0001
     30  CH2       23.2810    3.3170  -28.9100 C.ar   82  TRP82       0.0015
     31  N         21.0180   -1.1470  -31.8660 N.am   83  SER83      -0.1936
     32  CA        20.7040   -1.5410  -30.4890 C.3    83  SER83       0.2055
     33  C         21.8990   -2.2710  -29.9110 C.2    83  SER83       0.2642
     34  O         22.3470   -3.2520  -30.4870 O.2    83  SER83      -0.2714
     35  CB        19.4580   -2.4240  -30.4630 C.3    83  SER83       0.2130
     36  OG        18.9310   -2.5200  -29.1500 O.3    83  SER83      -0.2179
     37  N         22.4630   -1.7590  -28.8250 N.am   84  ARG84      -0.1977
     38  CA        23.5040   -2.4860  -28.0970 C.3    84  ARG84       0.1597
     39  C         24.8250   -2.6270  -28.8650 C.2    84  ARG84       0.2287
     40  O         25.6630   -3.4370  -28.4830 O.2    84  ARG84      -0.2864
     41  CB        22.9730   -3.9050  -27.7430 C.3    84  ARG84       0.0334
     42  CG        23.3910   -4.4610  -26.3850 C.3    84  ARG84       0.0492
     43  CD        22.4960   -3.9870  -25.2360 C.3    84  ARG84       0.2205
     44  NE        22.8830   -2.6770  -24.7370 N.pl3  84  ARG84      -0.0865
     45  CZ        22.4370   -2.1370  -23.6010 C.cat  84  ARG84       0.5346
     46  NH1       21.5800   -2.7920  -22.8190 N.pl3  84  ARG84       0.1354
     47  NH2       22.8560   -0.9330  -23.2380 N.pl3  84  ARG84       0.1354
     48  N         26.6330    0.3860  -30.3080 N.3    86  LYS86      -0.1245
     49  CA        26.8690    1.7990  -30.5500 C.3    86  LYS86       0.1561
     50  C         28.1440    2.0900  -31.3260 C.2    86  LYS86       0.2260
     51  O         28.1470    2.9270  -32.2320 O.2    86  LYS86      -0.2867
     52  CB        26.9760    2.4960  -29.1930 C.3    86  LYS86       0.0271
     53  CG        27.0130    4.0130  -29.2220 C.3    86  LYS86       0.0035
     54  CD        26.9930    4.5280  -27.7840 C.3    86  LYS86       0.0206
     55  CE        27.0730    6.0380  -27.6470 C.3    86  LYS86       0.1093
     56  NZ        28.4840    6.5020  -27.8230 N.3    86  LYS86      -0.1314
     57  N         21.2230    8.5300  -34.9080 N.3   102  LEU102     -0.1231
     58  CA        20.6700    9.6120  -34.0880 C.3   102  LEU102      0.1693
     59  C         21.7760   10.5080  -33.5440 C.2   102  LEU102      0.2591
     60  O         21.6210   11.7390  -33.4540 O.2   102  LEU102     -0.2718
     61  CB        19.8360    9.0180  -32.9430 C.3   102  LEU102      0.0284
     62  CG        19.2060    9.9710  -31.9260 C.3   102  LEU102      0.0019
     63  CD1       18.3560   11.0340  -32.6150 C.3   102  LEU102      0.0001
     64  CD2       18.3940    9.1750  -30.8920 C.3   102  LEU102      0.0001
     65  N         22.9170    9.8990  -33.2300 N.am  103  GLU103     -0.1979
     66  CA        24.0310   10.6190  -32.6360 C.3   103  GLU103      0.1602
     67  C         24.7870   11.4490  -33.6620 C.2   103  GLU103      0.2287
     68  O         25.6330   12.2630  -33.2980 O.2   103  GLU103     -0.2864
     69  CB        24.9610    9.6520  -31.8840 C.3   103  GLU103      0.0415
     70  CG        24.2610    8.9460  -30.7240 C.3   103  GLU103      0.1163
     71  CD        23.3370    7.7990  -31.1400 C.2   103  GLU103      0.3649
     72  OE1       23.6200    7.1090  -32.1510 O.co2 103  GLU103     -0.2457
     73  OE2       22.3190    7.5860  -30.4350 O.co2 103  GLU103     -0.2457
     74  N         24.1570   15.3130  -26.8830 N.3   111  ALA111     -0.1231
     75  CA        23.8460   14.5810  -25.6480 C.3   111  ALA111      0.1694
     76  C         24.6090   13.2530  -25.4720 C.2   111  ALA111      0.2592
     77  O         24.6860   12.7180  -24.3640 O.2   111  ALA111     -0.2718
     78  CB        22.3640   14.3310  -25.5860 C.3   111  ALA111      0.0304
     79  N         25.1420   12.7180  -26.5600 N.am  112  ASP112     -0.1960
     80  CA        25.7270   11.3670  -26.5450 C.3   112  ASP112      0.1840
     81  C         26.7660   11.1920  -25.4340 C.2   112  ASP112      0.2622
     82  O         27.7170   11.9720  -25.3420 O.2   112  ASP112     -0.2715
     83  CB        26.4120   11.0730  -27.8840 C.3   112  ASP112      0.1450
     84  CG        26.7450    9.6120  -28.0530 C.2   112  ASP112      0.3671
     85  OD1       25.9640    8.7550  -27.6090 O.co2 112  ASP112     -0.2456
     86  OD2       27.7770    9.3430  -28.6770 O.co2 112  ASP112     -0.2456
     87  N         26.5730   10.1570  -24.6200 N.am  113  ASP113     -0.1957
     88  CA        27.4780    9.7850  -23.5190 C.3   113  ASP113      0.1840
     89  C         27.5130   10.7560  -22.3530 C.2   113  ASP113      0.2621
     90  O         28.4430   10.7260  -21.5700 O.2   113  ASP113     -0.2715
     91  CB        28.9210    9.5760  -24.0090 C.3   113  ASP113      0.1450
     92  CG        29.0720    8.3240  -24.8030 C.2   113  ASP113      0.3671
     93  OD1       28.3670    7.3470  -24.5100 O.co2 113  ASP113     -0.2456
     94  OD2       29.8780    8.3130  -25.7350 O.co2 113  ASP113     -0.2456
     95  N         26.5160   11.6190  -22.2430 N.am  114  LEU114     -0.1977
     96  CA        26.5260   12.6040  -21.2050 C.3   114  LEU114      0.1596
     97  C         25.4000   12.2660  -20.2420 C.2   114  LEU114      0.2287
     98  O         24.4500   11.5740  -20.5790 O.2   114  LEU114     -0.2864
     99  CB        26.3530   14.0340  -21.7740 C.3   114  LEU114      0.0297
    100  CG        27.5000   14.5720  -22.6350 C.3   114  LEU114      0.0022
    101  CD1       27.1740   16.0000  -23.0430 C.3   114  LEU114      0.0001
    102  CD2       28.8440   14.5000  -21.9060 C.3   114  LEU114      0.0001
    103  N         17.6550   12.5670  -18.5560 N.3   142  VAL142     -0.1245
    104  CA        18.3420   11.8110  -19.5910 C.3   142  VAL142      0.1561
    105  C         17.4150   10.8730  -20.3150 C.2   142  VAL142      0.2260
    106  O         17.3640   10.9010  -21.5350 O.2   142  VAL142     -0.2867
    107  CB        19.5440   11.0140  -19.0190 C.3   142  VAL142      0.0252
    108  CG1       20.1790   10.0460  -20.0410 C.3   142  VAL142      0.0019
    109  CG2       20.5620   11.9840  -18.5530 C.3   142  VAL142      0.0019
    110  N         16.1120   11.0390  -24.4000 N.3   146  TRP146     -0.1241
    111  CA        16.3780   10.0290  -25.4220 C.3   146  TRP146      0.1605
    112  C         15.0830    9.4300  -25.9500 C.2   146  TRP146      0.2264
    113  O         14.9500    9.1850  -27.1430 O.2   146  TRP146     -0.2867
    114  CB        17.3510    8.9430  -24.9030 C.3   146  TRP146      0.0550
    115  CG        18.7440    9.4540  -24.8140 C.ar  146  TRP146      0.0003
    116  CD1       19.4730    9.6550  -23.6780 C.ar  146  TRP146      0.0946
    117  CD2       19.5860    9.8680  -25.9080 C.ar  146  TRP146      0.0152
    118  NE1       20.7120   10.1730  -23.9860 N.ar  146  TRP146     -0.2442
    119  CE2       20.8120   10.3100  -25.3480 C.ar  146  TRP146      0.0810
    120  CE3       19.4260    9.9110  -27.3020 C.ar  146  TRP146      0.0012
    121  CZ2       21.8760   10.7710  -26.1360 C.ar  146  TRP146      0.0191
    122  CZ3       20.4910   10.3890  -28.0980 C.ar  146  TRP146      0.0001
    123  CH2       21.7020   10.8050  -27.5080 C.ar  146  TRP146      0.0015
    124  N         14.4760    9.9750  -29.8470 N.3   150  SER150     -0.1217
    125  CA        14.4860    8.7410  -30.6060 C.3   150  SER150      0.1889
    126  C         13.1060    8.4820  -31.2450 C.2   150  SER150      0.2288
    127  O         13.0230    7.9700  -32.3630 O.2   150  SER150     -0.2866
    128  CB        15.0000    7.5820  -29.7510 C.3   150  SER150      0.2089
    129  OG        13.9690    7.0490  -28.9630 O.3   150  SER150     -0.2183
    130  N         13.0470   10.7690  -34.2670 N.3   153  PHE153     -0.1241
    131  CA        13.9880   10.2660  -35.2630 C.3   153  PHE153      0.1605
    132  C         13.3540    9.1210  -36.0300 C.2   153  PHE153      0.2264
    133  O         13.4370    9.0780  -37.2540 O.2   153  PHE153     -0.2867
    134  CB        15.2990    9.8170  -34.6010 C.3   153  PHE153      0.0534
    135  CG        16.4360    9.5870  -35.5610 C.ar  153  PHE153     -0.0203
    136  CD1       16.8740   10.5980  -36.4020 C.ar  153  PHE153     -0.0042
    137  CD2       17.1130    8.3660  -35.5890 C.ar  153  PHE153     -0.0042
    138  CE1       17.9490   10.3950  -37.2610 C.ar  153  PHE153     -0.0003
    139  CE2       18.1860    8.1580  -36.4500 C.ar  153  PHE153     -0.0003
    140  CZ        18.6110    9.1780  -37.2800 C.ar  153  PHE153     -0.0000
    141  N         12.6010   -4.6370  -24.9760 N.3   176  ASP176     -0.1225
    142  CA        12.6580   -3.6330  -23.9130 C.3   176  ASP176      0.1805
    143  C         13.7150   -2.5600  -24.1420 C.2   176  ASP176      0.2598
    144  O         13.8400   -1.6360  -23.3500 O.2   176  ASP176     -0.2718
    145  CB        12.9020   -4.3080  -22.5550 C.3   176  ASP176      0.1424
    146  CG        11.7400   -5.1740  -22.1220 C.2   176  ASP176      0.3668
    147  OD1       10.5890   -4.8280  -22.4640 O.co2 176  ASP176     -0.2456
    148  OD2       11.9690   -6.1950  -21.4290 O.co2 176  ASP176     -0.2456
    149  N         14.4820   -2.6760  -25.2150 N.am  177  SER177     -0.1938
    150  CA        15.4540   -1.6500  -25.5530 C.3   177  SER177      0.2055
    151  C         14.7230   -0.4200  -26.0740 C.2   177  SER177      0.2644
    152  O         13.5380   -0.4900  -26.4280 O.2   177  SER177     -0.2714
    153  CB        16.4130   -2.1710  -26.6200 C.3   177  SER177      0.2130
    154  OG        15.7130   -2.4960  -27.8140 O.3   177  SER177     -0.2179
    155  N         15.4380    0.6990  -26.1320 N.am  178  THR178     -0.1936
    156  CA        14.9350    1.8920  -26.7810 C.3   178  THR178      0.2028
    157  C         14.5630    1.6000  -28.2280 C.2   178  THR178      0.2642
    158  O         13.5280    2.0730  -28.7110 O.2   178  THR178     -0.2714
    159  CB        15.9740    3.0210  -26.7310 C.3   178  THR178      0.1808
    160  OG1       16.1540    3.4040  -25.3720 O.3   178  THR178     -0.2208
    161  CG2       15.5330    4.2400  -27.5230 C.3   178  THR178      0.0379
    162  N         15.3900    0.8210  -28.9220 N.am  179  PHE179     -0.1973
    163  CA        15.0590    0.4500  -30.3030 C.3   179  PHE179      0.1639
    164  C         13.7470   -0.3240  -30.3450 C.2   179  PHE179      0.2290
    165  O         12.8470    0.0040  -31.1130 O.2   179  PHE179     -0.2864
    166  CB        16.1430   -0.3880  -30.9640 C.3   179  PHE179      0.0560
    167  CG        15.7060   -0.9580  -32.2720 C.ar  179  PHE179     -0.0200
    168  CD1       15.4030   -0.1170  -33.3300 C.ar  179  PHE179     -0.0042
    169  CD2       15.5120   -2.3270  -32.4280 C.ar  179  PHE179     -0.0042
    170  CE1       14.9580   -0.6300  -34.5360 C.ar  179  PHE179     -0.0003
    171  CE2       15.0720   -2.8430  -33.6320 C.ar  179  PHE179     -0.0003
    172  CZ        14.7930   -1.9950  -34.6900 C.ar  179  PHE179     -0.0000
    173  N         11.5270    2.9170  -30.9670 N.3   183  GLU183     -0.1245
    174  CA        11.7770    3.1380  -32.3820 C.3   183  GLU183      0.1567
    175  C         10.9440    2.2280  -33.3030 C.2   183  GLU183      0.2260
    176  O         10.3020    2.7090  -34.2240 O.2   183  GLU183     -0.2867
    177  CB        13.2820    3.0820  -32.6820 C.3   183  GLU183      0.0388
    178  CG        14.0210    4.2270  -32.0050 C.3   183  GLU183      0.1160
    179  CD        15.5070    4.2800  -32.3090 C.2   183  GLU183      0.3649
    180  OE1       16.1620    3.2260  -32.3980 O.co2 183  GLU183     -0.2457
    181  OE2       16.0320    5.4080  -32.4490 O.co2 183  GLU183     -0.2457
@<TRIPOS>BOND
     1     1     2    1
     2     5     2    1
     3     5     6    1
     4     7     6    1
     5     2     3    1
     6     8     6    1
     7     3     9   am
     8     3     4    2
     9     9    10    1
    10   140   138   ar
    11   140   139   ar
    12   138   136   ar
    13   133   132    2
    14    14    15    1
    15    14    16    1
    16    14    13    1
    17   139   137   ar
    18    12    11    2
    19   136   135   ar
    20    10    13    1
    21    10    11    1
    22   132   131    1
    23    11    17   am
    24   137   135   ar
    25   135   134    1
    26   131   134    1
    27   131   130    1
    28    57    58    1
    29   172   170   ar
    30   172   171   ar
    31   170   168   ar
    32    17    18    1
    33   176   175    2
    34    58    59    1
    35    58    61    1
    36    18    21    1
    37    18    19    1
    38    21    22    1
    39    67    68    2
    40    67    66    1
    41   171   169   ar
    42    59    60    2
    43    59    65   am
    44    23    22   ar
    45    23    25   ar
    46   168   167   ar
    47   175   174    1
    48    65    66    1
    49    61    62    1
    50    22    24   ar
    51   177   174    1
    52   177   178    1
    53    66    69    1
    54    63    62    1
    55   181   179   ar
    56    25    26   ar
    57   169   167   ar
    58   180   179   ar
    59   174   173    1
    60   127   126    2
    61    19    31   am
    62    19    20    2
    63   179   178    1
    64   167   166    1
    65    51    50    2
    66    72    71   ar
    67    62    64    1
    68    69    70    1
    69    31    32    1
    70    24    26   ar
    71    24    27   ar
    72    50    49    1
    73   126   125    1
    74    26    28   ar
    75    71    70    1
    76    71    73   ar
    77   165   164    2
    78   166   163    1
    79   125   124    1
    80   125   128    1
    81    49    48    1
    82    49    52    1
    83    32    35    1
    84    32    33    1
    85    34    33    2
    86    35    36    1
    87    27    29   ar
    88   164   163    1
    89   163   162    1
    90    28    30   ar
    91    33    37   am
    92   128   129    1
    93    53    52    1
    94    53    54    1
    95    29    30   ar
    96   162   157   am
    97    39    40    2
    98    39    38    1
    99    37    38    1
   100   158   157    2
   101    86    84   ar
   102   157   156    1
   103   122   123   ar
   104   122   120   ar
   105    38    41    1
   106    84    83    1
   107    84    85   ar
   108    83    80    1
   109    56    55    1
   110   154   153    1
   111    54    55    1
   112    41    42    1
   113   161   159    1
   114   123   121   ar
   115   120   117   ar
   116   113   112    2
   117    74    75    1
   118   156   159    1
   119   156   155    1
   120   159   160    1
   121   153   150    1
   122    79    80    1
   123    79    76   am
   124    80    81    1
   125   152   151    2
   126    42    43    1
   127   121   119   ar
   128   155   151   am
   129   151   150    1
   130   112   111    1
   131   117   119   ar
   132   117   115   ar
   133    94    92   ar
   134    75    78    1
   135    75    76    1
   136   150   149    1
   137    76    77    2
   138    81    82    2
   139    81    87   am
   140   111   114    1
   141   111   110    1
   142   119   118   ar
   143    43    44    1
   144   149   143   am
   145   141   142    1
   146   114   115    1
   147   115   116   ar
   148    92    93   ar
   149    92    91    1
   150    44    45    2
   151    87    88    1
   152   143   142    1
   153   143   144    2
   154    91    88    1
   155   118   116   ar
   156   142   145    1
   157    45    47    1
   158    45    46    1
   159    88    89    1
   160   101   100    1
   161   100   102    1
   162   100    99    1
   163   145   146    1
   164   147   146   ar
   165    89    95   am
   166    89    90    2
   167    95    96    1
   168   146   148   ar
   169    99    96    1
   170   106   105    2
   171    96    97    1
   172    98    97    2
   173   105   104    1
   174   108   107    1
   175   104   107    1
   176   104   103    1
   177   107   109    1
