@<TRIPOS>MOLECULE
tmp/4tmkA00.pdb
 93 88 0 0 0
SMALL
GASTEIGER

@<TRIPOS>ATOM
      1  N         23.3320  108.1050   20.5030 N.3    11  GLU11      -0.1231
      2  CA        21.9420  108.4010   20.1400 C.3    11  GLU11       0.1699
      3  C         21.7180  109.7490   20.8520 C.2    11  GLU11       0.2593
      4  O         22.1860  109.9570   21.9840 O.2    11  GLU11      -0.2718
      5  CB        20.9880  107.3490   20.7150 C.3    11  GLU11       0.0402
      6  CG        21.0620  105.9990   20.0240 C.3    11  GLU11       0.1161
      7  CD        19.8990  105.0840   20.4060 C.2    11  GLU11       0.3649
      8  OE1       18.8250  105.6110   20.7910 O.co2  11  GLU11      -0.2457
      9  OE2       20.0590  103.8380   20.3190 O.co2  11  GLU11      -0.2457
     10  N         21.0290  110.6680   20.1970 N.am   12  GLY12      -0.1942
     11  CA        20.8230  111.9590   20.8190 C.3    12  GLY12       0.2014
     12  C         21.8670  112.9840   20.3900 C.2    12  GLY12       0.2639
     13  O         21.7760  114.1360   20.7960 O.2    12  GLY12      -0.2714
     14  N         22.8520  112.5820   19.5840 N.am   13  ALA13      -0.1963
     15  CA        23.8940  113.4940   19.1020 C.3    13  ALA13       0.1728
     16  C         23.3910  114.3680   17.9650 C.2    13  ALA13       0.2617
     17  O         24.0420  115.3330   17.5840 O.2    13  ALA13      -0.2715
     18  CB        25.1120  112.7240   18.6320 C.3    13  ALA13       0.0334
     19  N         22.2490  114.0180   17.3920 N.am   14  GLY14      -0.1940
     20  CA        21.6940  114.8350   16.3220 C.3    14  GLY14       0.2014
     21  C         22.2890  114.5880   14.9600 C.2    14  GLY14       0.2639
     22  O         22.5260  115.5250   14.1950 O.2    14  GLY14      -0.2714
     23  N         22.5060  113.3230   14.6150 N.am   15  LYS15      -0.1963
     24  CA        23.1130  113.0320   13.3290 C.3    15  LYS15       0.1728
     25  C         22.2640  113.3290   12.1150 C.2    15  LYS15       0.2617
     26  O         22.8050  113.4640   11.0330 O.2    15  LYS15      -0.2715
     27  CB        23.5810  111.5800   13.2690 C.3    15  LYS15       0.0311
     28  CG        24.5720  111.2050   14.3680 C.3    15  LYS15       0.0038
     29  CD        25.0870  109.7770   14.1640 C.3    15  LYS15       0.0206
     30  CE        24.3760  108.8020   15.1180 C.3    15  LYS15       0.1093
     31  NZ        23.0400  108.3860   14.6040 N.3    15  LYS15      -0.1314
     32  N         20.9430  113.4330   12.2520 N.am   16  THR16      -0.1937
     33  CA        20.1470  113.7290   11.0590 C.3    16  THR16       0.2028
     34  C         20.2440  115.2080   10.7270 C.2    16  THR16       0.2642
     35  O         20.3400  115.5980    9.5650 O.2    16  THR16      -0.2714
     36  CB        18.6750  113.3100   11.2400 C.3    16  THR16       0.1808
     37  OG1       18.6260  111.8760   11.3390 O.3    16  THR16      -0.2208
     38  CG2       17.8250  113.7420   10.0340 C.3    16  THR16       0.0379
     39  N         20.2450  116.0280   11.7580 N.am   17  THR17      -0.1950
     40  CA        20.3640  117.4600   11.5630 C.3    17  THR17       0.1897
     41  C         21.7500  117.6930   10.9580 C.2    17  THR17       0.2313
     42  O         21.9170  118.5450   10.0840 O.2    17  THR17      -0.2863
     43  CB        20.2250  118.2190   12.9180 C.3    17  THR17       0.1794
     44  OG1       18.8490  118.1770   13.3550 O.3    17  THR17      -0.2208
     45  CG2       20.7060  119.6890   12.7730 C.3    17  THR17       0.0378
     46  N         24.5110  106.9210    8.0840 N.3    98  ASP98      -0.1239
     47  CA        24.2420  107.2850    9.4620 C.3    98  ASP98       0.1674
     48  C         24.7180  106.0330   10.2070 C.2    98  ASP98       0.2266
     49  O         23.9890  105.0480   10.3130 O.2    98  ASP98      -0.2867
     50  CB        22.7420  107.5090    9.6730 C.3    98  ASP98       0.1410
     51  CG        22.4120  107.9560   11.0740 C.2    98  ASP98       0.3668
     52  OD1       23.1880  107.6830   12.0050 O.co2  98  ASP98      -0.2456
     53  OD2       21.3620  108.5910   11.2580 O.co2  98  ASP98      -0.2456
     54  N         17.7710  113.2320   25.3330 N.3   148  ARG148     -0.1231
     55  CA        17.1300  113.3860   24.0420 C.3   148  ARG148      0.1694
     56  C         16.4620  112.0950   23.5520 C.2   148  ARG148      0.2591
     57  O         15.3590  112.1350   22.9720 O.2   148  ARG148     -0.2718
     58  CB        18.1500  113.8900   23.0210 C.3   148  ARG148      0.0321
     59  CG        18.6590  115.2960   23.3540 C.3   148  ARG148      0.0489
     60  CD        19.7350  115.7390   22.3930 C.3   148  ARG148      0.2205
     61  NE        20.2220  117.0640   22.7560 N.pl3 148  ARG148     -0.0865
     62  CZ        21.2890  117.6450   22.2150 C.cat 148  ARG148      0.5346
     63  NH1       21.9950  117.0260   21.2790 N.pl3 148  ARG148      0.1354
     64  NH2       21.6490  118.8470   22.6170 N.pl3 148  ARG148      0.1354
     65  N         17.1240  110.9540   23.7620 N.am  149  ALA149     -0.1980
     66  CA        16.5600  109.6690   23.3480 C.3   149  ALA149      0.1597
     67  C         15.2370  109.4290   24.0990 C.2   149  ALA149      0.2287
     68  O         14.2470  109.0040   23.5080 O.2   149  ALA149     -0.2864
     69  CB        17.5470  108.5300   23.6460 C.3   149  ALA149      0.0319
     70  N         13.2730  111.6910   25.4720 N.3   151  ALA151     -0.1231
     71  CA        12.2660  112.6680   25.0950 C.3   151  ALA151      0.1694
     72  C         11.6310  112.2110   23.7900 C.2   151  ALA151      0.2591
     73  O         10.4730  112.5130   23.5110 O.2   151  ALA151     -0.2718
     74  CB        12.9080  114.0460   24.9240 C.3   151  ALA151      0.0304
     75  N         12.3920  111.4730   22.9900 N.am  152  ARG152     -0.1980
     76  CA        11.9030  110.9900   21.7030 C.3   152  ARG152      0.1597
     77  C         10.8900  109.8540   21.7840 C.2   152  ARG152      0.2287
     78  O          9.9740  109.7800   20.9690 O.2   152  ARG152     -0.2864
     79  CB        13.0610  110.5210   20.8340 C.3   152  ARG152      0.0334
     80  CG        12.5860  109.9820   19.5110 C.3   152  ARG152      0.0492
     81  CD        13.7260  109.4410   18.6830 C.3   152  ARG152      0.2205
     82  NE        14.5470  108.5200   19.4600 N.pl3 152  ARG152     -0.0865
     83  CZ        15.7360  108.0870   19.0600 C.cat 152  ARG152      0.5346
     84  NH1       16.2080  108.5030   17.8970 N.pl3 152  ARG152      0.1354
     85  NH2       16.4520  107.2540   19.8120 N.pl3 152  ARG152      0.1354
     86  N         23.4830  124.6680   18.5330 N.3   192  LEU192     -0.1245
     87  CA        23.2710  124.1780   17.1780 C.3   192  LEU192      0.1561
     88  C         23.9600  124.8980   16.0610 C.2   192  LEU192      0.2260
     89  O         24.5190  124.2730   15.1520 O.2   192  LEU192     -0.2867
     90  CB        21.7860  124.1460   16.8610 C.3   192  LEU192      0.0270
     91  CG        21.1320  122.8140   17.1920 C.3   192  LEU192      0.0019
     92  CD1       19.6190  122.9530   17.0430 C.3   192  LEU192      0.0001
     93  CD2       21.7310  121.7020   16.2920 C.3   192  LEU192      0.0001
@<TRIPOS>BOND
     1    46    47    1
     2    47    50    1
     3    47    48    1
     4    35    34    2
     5    50    51    1
     6    38    36    1
     7    42    41    2
     8    48    49    2
     9    34    33    1
    10    34    39   am
    11    41    40    1
    12    26    25    2
    13    33    36    1
    14    33    32    1
    15    51    53   ar
    16    51    52   ar
    17    36    37    1
    18    40    39    1
    19    40    43    1
    20    25    32   am
    21    25    24    1
    22    45    43    1
    23    43    44    1
    24    27    24    1
    25    27    28    1
    26    24    23    1
    27    29    28    1
    28    29    30    1
    29    22    21    2
    30    31    30    1
    31    23    21   am
    32    21    20    1
    33    89    88    2
    34    88    87    1
    35    93    91    1
    36    20    19    1
    37    90    87    1
    38    90    91    1
    39    92    91    1
    40    87    86    1
    41    19    16   am
    42    17    16    2
    43    84    83    1
    44    16    15    1
    45    18    15    1
    46    81    82    1
    47    81    80    1
    48    83    82    2
    49    83    85    1
    50    15    14    1
    51    80    79    1
    52    14    12   am
    53     6     7    1
    54     6     5    1
    55     2     1    1
    56     2     5    1
    57     2     3    1
    58    10    11    1
    59    10     3   am
    60     9     7   ar
    61    12    13    2
    62    12    11    1
    63     7     8   ar
    64    79    76    1
    65     3     4    2
    66    78    77    2
    67    63    62    1
    68    76    77    1
    69    76    75    1
    70    62    64    1
    71    62    61    2
    72    60    61    1
    73    60    59    1
    74    57    56    2
    75    75    72   am
    76    58    59    1
    77    58    55    1
    78    66    69    1
    79    66    65    1
    80    66    67    1
    81    68    67    2
    82    73    72    2
    83    56    65   am
    84    56    55    1
    85    72    71    1
    86    55    54    1
    87    74    71    1
    88    71    70    1
