@<TRIPOS>MOLECULE
tmp/4tmnA00.pdb
 219 215 0 0 0
SMALL
GASTEIGER

@<TRIPOS>ATOM
      1  N         42.2760   13.6100    2.3550 N.3   110  TYR110     -0.1227
      2  CA        43.0280   13.8240    1.1450 C.3   110  TYR110      0.1736
      3  C         44.4690   14.1800    1.5010 C.2   110  TYR110      0.2595
      4  O         44.7750   15.1650    2.2320 O.2   110  TYR110     -0.2718
      5  CB        42.3550   14.9460    0.3950 C.3   110  TYR110      0.0548
      6  CG        42.9430   15.0650   -0.9060 C.ar  110  TYR110     -0.0200
      7  CD1       42.7890   14.0520   -1.8440 C.ar  110  TYR110     -0.0009
      8  CD2       43.6570   16.2170   -1.2430 C.ar  110  TYR110     -0.0009
      9  CE1       43.3930   14.1720   -3.1050 C.ar  110  TYR110      0.0417
     10  CE2       44.2660   16.3410   -2.4880 C.ar  110  TYR110      0.0417
     11  CZ        44.1340   15.3020   -3.4060 C.ar  110  TYR110      0.1957
     12  OH        44.7190   15.4360   -4.6380 O.3   110  TYR110     -0.2866
     13  N         45.3620   13.3030    1.0240 N.am  111  ASN111     -0.1960
     14  CA        46.7640   13.4250    1.3110 C.3   111  ASN111      0.1819
     15  C         47.5460   14.1960    0.3040 C.2   111  ASN111      0.2621
     16  O         48.5370   13.6910   -0.1600 O.2   111  ASN111     -0.2715
     17  CB        47.4320   12.0290    1.5890 C.3   111  ASN111      0.1195
     18  CG        47.0240   11.3780    2.9170 C.2   111  ASN111      0.2630
     19  OD1       46.9680   12.0110    3.9900 O.2   111  ASN111     -0.2716
     20  ND2       46.7070   10.0820    2.8300 N.am  111  ASN111     -0.0877
     21  N         47.1120   15.4070   -0.0520 N.am  112  ASN112     -0.1958
     22  CA        47.8790   16.1940   -1.0160 C.3   112  ASN112      0.1819
     23  C         47.4100   17.6450   -0.9950 C.2   112  ASN112      0.2621
     24  O         46.4760   17.9580   -0.2380 O.2   112  ASN112     -0.2715
     25  CB        47.7110   15.6030   -2.4170 C.3   112  ASN112      0.1195
     26  CG        48.9720   15.4840   -3.2970 C.2   112  ASN112      0.2630
     27  OD1       49.8640   16.3260   -3.2530 O.2   112  ASN112     -0.2716
     28  ND2       49.0690   14.4470   -4.1420 N.am  112  ASN112     -0.0877
     29  N         48.0820   18.4670   -1.7920 N.am  113  ALA113     -0.1963
     30  CA        47.7770   19.8590   -1.9660 C.3   113  ALA113      0.1728
     31  C         48.1710   20.0650   -3.4080 C.2   113  ALA113      0.2616
     32  O         48.9880   19.3060   -3.8960 O.2   113  ALA113     -0.2715
     33  CB        48.5630   20.7540   -1.0290 C.3   113  ALA113      0.0334
     34  N         47.5770   21.0590   -4.1060 N.am  114  PHE114     -0.1960
     35  CA        47.8620   21.3760   -5.5060 C.3   114  PHE114      0.1771
     36  C         47.4410   22.8040   -5.8890 C.2   114  PHE114      0.2620
     37  O         46.7070   23.4550   -5.2010 O.2   114  PHE114     -0.2715
     38  CB        47.2030   20.3730   -6.4690 C.3   114  PHE114      0.0574
     39  CG        45.7190   20.1160   -6.2780 C.ar  114  PHE114     -0.0200
     40  CD1       44.7890   20.7300   -7.1110 C.ar  114  PHE114     -0.0042
     41  CD2       45.2290   19.2600   -5.2810 C.ar  114  PHE114     -0.0042
     42  CE1       43.4160   20.4800   -6.9820 C.ar  114  PHE114     -0.0003
     43  CE2       43.8580   18.9890   -5.1330 C.ar  114  PHE114     -0.0003
     44  CZ        42.9530   19.6070   -5.9880 C.ar  114  PHE114     -0.0000
     45  N         47.9420   23.2350   -7.0280 N.am  115  TRP115     -0.1960
     46  CA        47.6150   24.4590   -7.7010 C.3   115  TRP115      0.1771
     47  C         46.8450   23.9020   -8.8970 C.2   115  TRP115      0.2620
     48  O         47.3560   23.0400   -9.5540 O.2   115  TRP115     -0.2715
     49  CB        48.8620   25.1940   -8.1490 C.3   115  TRP115      0.0590
     50  CG        48.5560   26.1750   -9.2360 C.ar  115  TRP115      0.0006
     51  CD1       48.8000   26.0520  -10.5840 C.ar  115  TRP115      0.0946
     52  CD2       47.9980   27.4760   -9.0450 C.ar  115  TRP115      0.0152
     53  NE1       48.3970   27.1890  -11.2590 N.ar  115  TRP115     -0.2442
     54  CE2       47.8800   28.0770  -10.3230 C.ar  115  TRP115      0.0810
     55  CE3       47.5370   28.1760   -7.8960 C.ar  115  TRP115      0.0012
     56  CZ2       47.3510   29.3820  -10.4340 C.ar  115  TRP115      0.0191
     57  CZ3       47.0270   29.4440   -8.0290 C.ar  115  TRP115      0.0001
     58  CH2       46.8900   30.0000   -9.2870 C.ar  115  TRP115      0.0015
     59  N         45.5720   24.3090   -9.1040 N.am  116  ASN116     -0.1958
     60  CA        44.7220   23.8070  -10.1530 C.3   116  ASN116      0.1819
     61  C         44.6520   24.6620  -11.4100 C.2   116  ASN116      0.2621
     62  O         43.7780   24.4350  -12.2170 O.2   116  ASN116     -0.2715
     63  CB        43.3260   23.4300   -9.6110 C.3   116  ASN116      0.1195
     64  CG        42.3640   24.6130   -9.4680 C.2   116  ASN116      0.2630
     65  OD1       42.8000   25.7380   -9.5300 O.2   116  ASN116     -0.2716
     66  ND2       41.0770   24.4040   -9.3840 N.am  116  ASN116     -0.0877
     67  N         45.5890   25.6460  -11.5430 N.am  117  GLY117     -0.1954
     68  CA        45.6480   26.5320  -12.6940 C.3   117  GLY117      0.1869
     69  C         44.8760   27.8210  -12.3640 C.2   117  GLY117      0.2309
     70  O         44.9580   28.8390  -13.0730 O.2   117  GLY117     -0.2863
     71  N         49.7030   12.3510    6.7650 N.3   130  PHE130     -0.1241
     72  CA        49.8100   13.8070    6.7700 C.3   130  PHE130      0.1605
     73  C         48.7700   14.3370    7.7060 C.2   130  PHE130      0.2264
     74  O         47.7450   13.6700    7.9240 O.2   130  PHE130     -0.2867
     75  CB        49.3760   14.4330    5.4050 C.3   130  PHE130      0.0534
     76  CG        50.4520   14.5120    4.3740 C.ar  130  PHE130     -0.0203
     77  CD1       50.3710   13.6830    3.2570 C.ar  130  PHE130     -0.0042
     78  CD2       51.5170   15.4080    4.5000 C.ar  130  PHE130     -0.0042
     79  CE1       51.3450   13.6830    2.2430 C.ar  130  PHE130     -0.0003
     80  CE2       52.4880   15.4290    3.4980 C.ar  130  PHE130     -0.0003
     81  CZ        52.3960   14.5880    2.3860 C.ar  130  PHE130     -0.0000
     82  N         47.6460   19.8910    5.2230 N.3   133  LEU133     -0.1245
     83  CA        48.7640   20.3610    4.4360 C.3   133  LEU133      0.1561
     84  C         49.2350   21.8160    4.4770 C.2   133  LEU133      0.2260
     85  O         50.4270   22.1400    4.3060 O.2   133  LEU133     -0.2867
     86  CB        48.7780   19.7200    3.0820 C.3   133  LEU133      0.0270
     87  CG        49.0580   18.2200    3.1950 C.3   133  LEU133      0.0019
     88  CD1       47.8100   17.3860    3.4570 C.3   133  LEU133      0.0001
     89  CD2       49.6780   17.8810    1.8950 C.3   133  LEU133      0.0001
     90  N         55.3010   23.8370    1.9380 N.3   139  VAL139     -0.1245
     91  CA        54.1540   23.2670    1.1630 C.3   139  VAL139      0.1561
     92  C         53.3460   24.4140    0.4020 C.2   139  VAL139      0.2260
     93  O         53.1080   24.3550   -0.8460 O.2   139  VAL139     -0.2867
     94  CB        53.2240   22.3720    2.0600 C.3   139  VAL139      0.0252
     95  CG1       51.9780   21.9360    1.2490 C.3   139  VAL139      0.0019
     96  CG2       54.1080   21.1590    2.4620 C.3   139  VAL139      0.0019
     97  N         55.4480   26.0580   -2.1420 N.3   142  HIS142     -0.1226
     98  CA        55.6520   25.1200   -3.2810 C.3   142  HIS142      0.1752
     99  C         54.4660   25.2780   -4.2830 C.2   142  HIS142      0.2595
    100  O         54.6040   25.3670   -5.5480 O.2   142  HIS142     -0.2718
    101  CB        55.7840   23.6650   -2.7060 C.3   142  HIS142      0.0759
    102  CG        55.8410   22.5770   -3.7380 C.ar  142  HIS142      0.0818
    103  ND1       56.9810   21.7690   -3.9550 N.ar  142  HIS142     -0.2268
    104  CD2       54.8770   22.1710   -4.5940 C.ar  142  HIS142      0.1154
    105  CE1       56.7150   20.9530   -4.9730 C.ar  142  HIS142      0.1986
    106  NE2       55.4540   21.1490   -5.3670 N.ar  142  HIS142     -0.2212
    107  N         53.2250   25.3050   -3.6680 N.am  143  GLU143     -0.1979
    108  CA        51.9630   25.4520   -4.4190 C.3   143  GLU143      0.1602
    109  C         51.8410   26.7800   -5.2330 C.2   143  GLU143      0.2287
    110  O         51.5810   26.8070   -6.4590 O.2   143  GLU143     -0.2864
    111  CB        50.7210   25.1560   -3.5140 C.3   143  GLU143      0.0415
    112  CG        50.6260   23.7030   -2.8630 C.3   143  GLU143      0.1163
    113  CD        50.9840   22.5340   -3.8050 C.2   143  GLU143      0.3649
    114  OE1       50.9820   22.5280   -5.0630 O.co2 143  GLU143     -0.2457
    115  OE2       51.4130   21.5440   -3.1240 O.co2 143  GLU143     -0.2457
    116  N         53.9680   27.0740   -8.0710 N.3   146  HIS146     -0.1241
    117  CA        53.4920   26.4680   -9.3470 C.3   146  HIS146      0.1621
    118  C         52.7320   27.5290  -10.1890 C.2   146  HIS146      0.2264
    119  O         52.6710   27.4890  -11.4630 O.2   146  HIS146     -0.2867
    120  CB        52.4790   25.3480   -9.0450 C.3   146  HIS146      0.0745
    121  CG        53.1480   24.0270   -8.7950 C.ar  146  HIS146      0.0817
    122  ND1       54.1220   23.5110   -9.7140 N.ar  146  HIS146     -0.2268
    123  CD2       53.0360   23.1620   -7.7540 C.ar  146  HIS146      0.1154
    124  CE1       54.5350   22.3600   -9.2680 C.ar  146  HIS146      0.1986
    125  NE2       53.9340   22.1400   -8.0820 N.ar  146  HIS146     -0.2212
    126  N         53.5470   28.8020  -13.8840 N.3   150  ASP150     -0.1239
    127  CA        52.4220   28.8200  -14.8200 C.3   150  ASP150      0.1674
    128  C         52.4280   30.1200  -15.7010 C.2   150  ASP150      0.2266
    129  O         52.2360   30.0590  -16.9230 O.2   150  ASP150     -0.2867
    130  CB        51.0550   28.7240  -14.0570 C.3   150  ASP150      0.1410
    131  CG        50.4700   27.3550  -14.0640 C.2   150  ASP150      0.3668
    132  OD1       51.1870   26.4480  -14.5140 O.co2 150  ASP150     -0.2456
    133  OD2       49.2190   27.2640  -13.4910 O.co2 150  ASP150     -0.2456
    134  N         53.8630   19.7410  -17.3590 N.3   157  TYR157     -0.1241
    135  CA        53.9990   18.8230  -16.2100 C.3   157  TYR157      0.1605
    136  C         54.2360   17.3520  -16.5250 C.2   157  TYR157      0.2264
    137  O         53.4610   16.4920  -16.1070 O.2   157  TYR157     -0.2867
    138  CB        52.7970   18.9670  -15.2550 C.3   157  TYR157      0.0534
    139  CG        53.0480   18.7100  -13.7880 C.ar  157  TYR157     -0.0201
    140  CD1       52.3340   17.6960  -13.1600 C.ar  157  TYR157     -0.0009
    141  CD2       53.9130   19.5010  -13.0500 C.ar  157  TYR157     -0.0009
    142  CE1       52.4720   17.4440  -11.7840 C.ar  157  TYR157      0.0417
    143  CE2       54.0660   19.2770  -11.6680 C.ar  157  TYR157      0.0417
    144  CZ        53.3480   18.2380  -11.0660 C.ar  157  TYR157      0.1957
    145  OH        53.4710   18.0230   -9.7520 O.3   157  TYR157     -0.2866
    146  N         59.8020   21.7620  -13.1780 N.3   165  ASN165     -0.1225
    147  CA        58.6320   22.4360  -12.5930 C.3   165  ASN165      0.1785
    148  C         58.5740   22.1540  -11.0980 C.2   165  ASN165      0.2597
    149  O         58.5180   23.0620  -10.3000 O.2   165  ASN165     -0.2718
    150  CB        57.3200   22.0210  -13.3600 C.3   165  ASN165      0.1169
    151  CG        56.1210   22.9170  -13.0030 C.2   165  ASN165      0.2627
    152  OD1       56.0170   23.3230  -11.8140 O.2   165  ASN165     -0.2716
    153  ND2       55.3020   23.2520  -14.0170 N.am  165  ASN165     -0.0877
    154  N         58.6420   20.8400  -10.7020 N.am  166  GLU166     -0.1979
    155  CA        58.6340   20.3950   -9.2870 C.3   166  GLU166      0.1602
    156  C         59.8370   20.9610   -8.4760 C.2   166  GLU166      0.2287
    157  O         59.6550   21.4580   -7.4170 O.2   166  GLU166     -0.2864
    158  CB        58.6230   18.8210   -9.3300 C.3   166  GLU166      0.0415
    159  CG        57.2340   18.1860   -9.3200 C.3   166  GLU166      0.1163
    160  CD        56.4130   18.8300   -8.2430 C.2   166  GLU166      0.3649
    161  OE1       55.4320   19.4390   -8.5340 O.co2 166  GLU166     -0.2457
    162  OE2       56.8120   18.6880   -6.9970 O.co2 166  GLU166     -0.2457
    163  N         61.6660   18.8460    2.5190 N.3   188  ILE188     -0.1231
    164  CA        60.3260   19.2180    2.0730 C.3   188  ILE188      0.1692
    165  C         59.1690   18.5260    2.8330 C.2   188  ILE188      0.2592
    166  O         59.0410   17.2750    2.8280 O.2   188  ILE188     -0.2718
    167  CB        60.0480   18.9880    0.5680 C.3   188  ILE188      0.0266
    168  CG1       61.1120   19.6880   -0.2460 C.3   188  ILE188      0.0019
    169  CG2       58.5920   19.3940    0.1320 C.3   188  ILE188      0.0020
    170  CD1       61.0200   21.1960    0.0490 C.3   188  ILE188      0.0001
    171  N         58.2700   19.3610    3.4840 N.am  189  GLY189     -0.1957
    172  CA        57.0920   18.7880    4.1070 C.3   189  GLY189      0.1869
    173  C         57.2620   18.2330    5.4920 C.2   189  GLY189      0.2309
    174  O         56.3300   17.6620    5.9930 O.2   189  GLY189     -0.2863
    175  N         59.0640   14.4320    3.3340 N.3   202  LEU202     -0.1231
    176  CA        58.5870   13.8620    2.1130 C.3   202  LEU202      0.1693
    177  C         59.7050   13.6410    1.0760 C.2   202  LEU202      0.2591
    178  O         59.7480   12.6080    0.3340 O.2   202  LEU202     -0.2718
    179  CB        57.4060   14.7720    1.6390 C.3   202  LEU202      0.0284
    180  CG        56.8250   14.4230    0.3220 C.3   202  LEU202      0.0019
    181  CD1       56.0380   13.2060    0.6580 C.3   202  LEU202      0.0001
    182  CD2       55.7430   15.4390   -0.0670 C.3   202  LEU202      0.0001
    183  N         60.5800   14.6420    0.9870 N.am  203  ARG203     -0.1980
    184  CA        61.6930   14.6510    0.0910 C.3   203  ARG203      0.1597
    185  C         62.7770   15.4080    0.7750 C.2   203  ARG203      0.2287
    186  O         62.4810   16.2470    1.6860 O.2   203  ARG203     -0.2864
    187  CB        61.4470   15.4500   -1.1560 C.3   203  ARG203      0.0334
    188  CG        60.5740   14.7620   -2.1410 C.3   203  ARG203      0.0492
    189  CD        60.4740   15.5830   -3.4370 C.3   203  ARG203      0.2205
    190  NE        59.5810   16.8080   -3.4180 N.pl3 203  ARG203     -0.0865
    191  CZ        58.1720   16.8480   -3.3600 C.cat 203  ARG203      0.5346
    192  NH1       57.4160   15.7450   -3.2930 N.pl3 203  ARG203      0.1354
    193  NH2       57.4940   18.0080   -3.4130 N.pl3 203  ARG203      0.1354
    194  N         53.9560    8.7270  -12.2530 N.3   226  ASP226     -0.1225
    195  CA        54.1590   10.0630  -11.7320 C.3   226  ASP226      0.1805
    196  C         54.4800   11.0330  -12.8460 C.2   226  ASP226      0.2597
    197  O         55.3900   11.8440  -12.7700 O.2   226  ASP226     -0.2718
    198  CB        55.2800   10.0320  -10.7090 C.3   226  ASP226      0.1424
    199  CG        55.4670   11.3700  -10.0530 C.2   226  ASP226      0.3668
    200  OD1       54.5700   12.1290   -9.7870 O.co2 226  ASP226     -0.2456
    201  OD2       56.6860   11.6160   -9.7500 O.co2 226  ASP226     -0.2456
    202  N         53.7020   10.9490  -13.8830 N.am  227  ASN227     -0.1974
    203  CA        53.9250   11.7690  -15.0450 C.3   227  ASN227      0.1688
    204  C         55.3250   11.6720  -15.5550 C.2   227  ASN227      0.2292
    205  O         55.8640   12.6840  -16.0380 O.2   227  ASN227     -0.2864
    206  CB        53.6020   13.2540  -14.8570 C.3   227  ASN227      0.1181
    207  CG        52.1070   13.4600  -14.7730 C.2   227  ASN227      0.2629
    208  OD1       51.5330   13.7940  -13.6710 O.2   227  ASN227     -0.2716
    209  ND2       51.4900   13.1880  -15.9370 N.am  227  ASN227     -0.0877
    210  N         57.9940   14.0400   -9.6470 N.3   231  HIS231     -0.1241
    211  CA        58.3290   14.1540   -8.2410 C.3   231  HIS231      0.1621
    212  C         59.5660   13.3080   -7.9030 C.2   231  HIS231      0.2264
    213  O         60.0620   13.3410   -6.7540 O.2   231  HIS231     -0.2867
    214  CB        57.2220   13.7780   -7.2150 C.3   231  HIS231      0.0745
    215  CG        56.0340   14.6480   -7.3280 C.ar  231  HIS231      0.0817
    216  ND1       55.0330   14.3130   -8.2010 N.ar  231  HIS231     -0.2268
    217  CD2       55.7360   15.8230   -6.7460 C.ar  231  HIS231      0.1154
    218  CE1       54.0970   15.2530   -8.1080 C.ar  231  HIS231      0.1986
    219  NE2       54.4990   16.1710   -7.2630 N.ar  231  HIS231     -0.2212
@<TRIPOS>BOND
     1   134   135    1
     2   129   128    2
     3   136   135    1
     4   136   137    2
     5   135   138    1
     6   205   204    2
     7   209   207   am
     8   128   127    1
     9   204   203    1
    10   138   139    1
    11   203   206    1
    12   203   202    1
    13   206   207    1
    14   127   130    1
    15   127   126    1
    16   207   208    2
    17   132   131   ar
    18   131   130    1
    19   131   133   ar
    20   153   151   am
    21   202   196   am
    22   139   140   ar
    23   139   141   ar
    24   150   151    1
    25   150   147    1
    26   146   147    1
    27   140   142   ar
    28    70    69    2
    29   141   143   ar
    30   151   152    2
    31   196   197    2
    32   196   195    1
    33    68    69    1
    34    68    67    1
    35   147   148    1
    36   194   195    1
    37    62    61    2
    38   142   144   ar
    39   195   198    1
    40   143   144   ar
    41    67    61   am
    42   119   118    2
    43    61    60    1
    44    53    51   ar
    45    53    54   ar
    46   148   154   am
    47   148   149    2
    48   144   145    1
    49   198   199    1
    50   154   155    1
    51    51    50   ar
    52    56    54   ar
    53    56    58   ar
    54    54    52   ar
    55   118   117    1
    56    60    63    1
    57    60    59    1
    58   199   200   ar
    59   199   201   ar
    60   122   124   ar
    61   122   121   ar
    62   210   211    1
    63    63    64    1
    64    48    47    2
    65    65    64    2
    66    64    66   am
    67   117   120    1
    68   117   116    1
    69   158   159    1
    70   158   155    1
    71   159   160    1
    72   155   156    1
    73    58    57   ar
    74   124   125   ar
    75    50    52   ar
    76    50    49    1
    77    59    47   am
    78   120   121    1
    79    52    55   ar
    80    47    46    1
    81   121   123   ar
    82   161   160   ar
    83   156   157    2
    84   160   162   ar
    85   211   212    1
    86   211   214    1
    87   216   218   ar
    88   216   215   ar
    89    49    46    1
    90   218   219   ar
    91   125   123   ar
    92    57    55   ar
    93   212   213    2
    94    46    45    1
    95   215   214    1
    96   215   217   ar
    97   219   217   ar
    98    40    42   ar
    99    40    39   ar
   100    45    36   am
   101    42    44   ar
   102    38    39    1
   103    38    35    1
   104   110   109    2
   105    39    41   ar
   106    44    43   ar
   107    36    35    1
   108    36    37    2
   109   100    99    2
   110    35    34    1
   111   106   105   ar
   112   106   104   ar
   113    41    43   ar
   114   109   108    1
   115   114   113   ar
   116   105   103   ar
   117    12    11    1
   118   104   102   ar
   119   108   107    1
   120   108   111    1
   121    99   107   am
   122    99    98    1
   123    28    26   am
   124    34    31   am
   125   103   102   ar
   126    32    31    2
   127   113   115   ar
   128   113   112    1
   129   102   101    1
   130   111   112    1
   131   189   190    1
   132   189   188    1
   133   190   191    2
   134   193   191    1
   135    31    30    1
   136    11     9   ar
   137    11    10   ar
   138   191   192    1
   139    26    27    2
   140    26    25    1
   141    98   101    1
   142    98    97    1
   143     9     7   ar
   144    10     8   ar
   145    25    22    1
   146   188   187    1
   147    30    29    1
   148    30    33    1
   149     7     6   ar
   150    29    23   am
   151     8     6   ar
   152   187   184    1
   153    22    23    1
   154    22    21    1
   155    23    24    2
   156     6     5    1
   157    93    92    2
   158   168   170    1
   159   168   167    1
   160    16    15    2
   161   182   180    1
   162    21    15   am
   163   184   185    1
   164   184   183    1
   165   169   167    1
   166    15    14    1
   167   180   181    1
   168   180   179    1
   169   178   177    2
   170     5     2    1
   171    92    91    1
   172   167   164    1
   173   185   186    2
   174   183   177   am
   175    13    14    1
   176    13     3   am
   177   177   176    1
   178     2     3    1
   179     2     1    1
   180    91    90    1
   181    91    94    1
   182    95    94    1
   183    14    17    1
   184     3     4    2
   185    17    18    1
   186   179   176    1
   187    89    87    1
   188    94    96    1
   189   164   163    1
   190   164   165    1
   191   176   175    1
   192    79    81   ar
   193    79    77   ar
   194    81    80   ar
   195   166   165    2
   196    20    18   am
   197   165   171   am
   198    18    19    2
   199    86    87    1
   200    86    83    1
   201    87    88    1
   202    77    76   ar
   203   171   172    1
   204    80    78   ar
   205   172   173    1
   206    85    84    2
   207    76    78   ar
   208    76    75    1
   209    83    84    1
   210    83    82    1
   211    75    72    1
   212   173   174    2
   213    71    72    1
   214    72    73    1
   215    73    74    2
