@<TRIPOS>MOLECULE
tmp/4tmtA01.pdb
 83 81 0 0 0
SMALL
GASTEIGER

@<TRIPOS>ATOM
      1  N         14.3180   24.4710   24.3330 N.3    71  LYS71      -0.1245
      2  CA        15.2850   23.5130   24.8320 C.3    71  LYS71       0.1561
      3  C         15.1310   22.1700   24.1550 C.2    71  LYS71       0.2260
      4  O         16.1080   21.4280   24.0540 O.2    71  LYS71      -0.2867
      5  CB        15.1660   23.3390   26.3430 C.3    71  LYS71       0.0271
      6  CG        15.3110   24.6550   27.0910 C.3    71  LYS71       0.0035
      7  CD        15.1770   24.4340   28.5740 C.3    71  LYS71       0.0206
      8  CE        15.1390   25.7480   29.3270 C.3    71  LYS71       0.1093
      9  NZ        14.8790   25.4830   30.7740 N.3    71  LYS71      -0.1314
     10  N          6.3300   20.4600   27.5020 N.3   219  CYS219     -0.1221
     11  CA         7.5420   19.6330   27.5160 C.3   219  CYS219      0.1808
     12  C          8.5430   20.1030   28.5260 C.2   219  CYS219      0.2601
     13  O          9.1950   19.3110   29.1690 O.2   219  CYS219     -0.2717
     14  CB         8.2400   19.6220   26.1500 C.3   219  CYS219      0.0970
     15  SG         7.3190   18.7650   24.8720 S.3   219  CYS219     -0.0800
     16  N          8.7360   21.4210   28.5990 N.am  220  GLN220     -0.1965
     17  CA         9.8570   21.9730   29.3410 C.3   220  GLN220      0.1733
     18  C          9.5260   22.2640   30.7960 C.2   220  GLN220      0.2616
     19  O         10.4330   22.3740   31.6240 O.2   220  GLN220     -0.2715
     20  CB        10.3490   23.2440   28.6370 C.3   220  GLN220      0.0408
     21  CG        10.9330   22.8680   27.2770 C.3   220  GLN220      0.0908
     22  CD        11.4270   24.0180   26.4090 C.2   220  GLN220      0.2608
     23  OE1       11.9350   23.7720   25.3170 O.2   220  GLN220     -0.2717
     24  NE2       11.2840   25.2650   26.8780 N.am  220  GLN220     -0.0878
     25  N          8.2400   22.3880   31.0990 N.am  221  GLU221     -0.1963
     26  CA         7.8240   22.8390   32.4200 C.3   221  GLU221      0.1733
     27  C          6.8830   21.8870   33.1520 C.2   221  GLU221      0.2616
     28  O          6.6480   22.0940   34.3510 O.2   221  GLU221     -0.2715
     29  CB         7.2000   24.2550   32.3230 C.3   221  GLU221      0.0429
     30  CG         8.1300   25.2340   31.6040 C.3   221  GLU221      0.1163
     31  CD         7.5210   26.5990   31.3570 C.2   221  GLU221      0.3649
     32  OE1        8.0680   27.3490   30.5040 O.co2 221  GLU221     -0.2457
     33  OE2        6.5170   26.9270   32.0230 O.co2 221  GLU221     -0.2457
     34  N          6.3380   20.8790   32.4630 N.am  222  ARG222     -0.1963
     35  CA         5.4380   19.9090   33.1070 C.3   222  ARG222      0.1729
     36  C          5.9030   18.4480   32.9880 C.2   222  ARG222      0.2616
     37  O          5.8540   17.6870   33.9640 O.2   222  ARG222     -0.2715
     38  CB         4.0220   20.0450   32.5230 C.3   222  ARG222      0.0348
     39  CG         3.3430   21.4090   32.7990 C.3   222  ARG222      0.0492
     40  CD         2.7150   21.4860   34.1880 C.3   222  ARG222      0.2205
     41  NE         1.9830   20.2590   34.4960 N.pl3 222  ARG222     -0.0865
     42  CZ         0.7550   19.9660   34.0750 C.cat 222  ARG222      0.5346
     43  NH1        0.0620   20.7990   33.3230 N.pl3 222  ARG222      0.1354
     44  NH2        0.2170   18.8080   34.4140 N.pl3 222  ARG222      0.1354
     45  N          6.3720   18.0680   31.8090 N.am  223  MET223     -0.1963
     46  CA         6.8760   16.7330   31.5930 C.3   223  MET223      0.1736
     47  C          8.0700   16.4890   32.5080 C.2   223  MET223      0.2616
     48  O          8.8160   17.4210   32.8010 O.2   223  MET223     -0.2715
     49  CB         7.2500   16.5720   30.1230 C.3   223  MET223      0.0427
     50  CG         7.8510   15.1930   29.7540 C.3   223  MET223      0.0599
     51  SD         8.4730   15.1610   28.0560 S.3   223  MET223     -0.1393
     52  CE        10.0430   16.0170   28.2740 C.3   223  MET223      0.0692
     53  N          8.2300   15.2470   32.9680 N.am  224  ALA224     -0.1963
     54  CA         9.3950   14.8810   33.7710 C.3   224  ALA224      0.1728
     55  C         10.7050   15.2910   33.0830 C.2   224  ALA224      0.2616
     56  O         10.9230   14.9840   31.9140 O.2   224  ALA224     -0.2715
     57  CB         9.3890   13.3690   34.0330 C.3   224  ALA224      0.0334
     58  N         11.5850   15.9460   33.8300 N.am  225  SER225     -0.1950
     59  CA        12.8260   16.4650   33.2650 C.3   225  SER225      0.1924
     60  C         13.6970   15.3780   32.6340 C.2   225  SER225      0.2314
     61  O         14.4260   15.6310   31.6710 O.2   225  SER225     -0.2863
     62  CB        13.6190   17.1820   34.3540 C.3   225  SER225      0.2116
     63  OG        13.9180   16.2810   35.4100 O.3   225  SER225     -0.2180
     64  N         13.5320   14.7800   28.8740 N.3   228  MET228     -0.1230
     65  CA        14.1900   15.6900   27.9330 C.3   228  MET228      0.1702
     66  C         15.4880   15.0910   27.3640 C.2   228  MET228      0.2592
     67  O         16.0760   15.6500   26.4380 O.2   228  MET228     -0.2718
     68  CB        14.5230   17.0040   28.6340 C.3   228  MET228      0.0401
     69  CG        13.3240   17.8010   29.0040 C.3   228  MET228      0.0596
     70  SD        12.5310   18.6310   27.6370 S.3   228  MET228     -0.1393
     71  CE        13.7890   19.8660   27.1800 C.3   228  MET228      0.0692
     72  N         15.9220   13.9620   27.9320 N.am  229  TYR229     -0.1976
     73  CA        17.2010   13.3370   27.5580 C.3   229  TYR229      0.1639
     74  C         17.0050   11.8750   27.2020 C.2   229  TYR229      0.2290
     75  O         16.0650   11.2390   27.6600 O.2   229  TYR229     -0.2864
     76  CB        18.2250   13.4630   28.6920 C.3   229  TYR229      0.0560
     77  CG        18.4740   14.8920   29.0940 C.ar  229  TYR229     -0.0198
     78  CD1       17.8040   15.4520   30.1740 C.ar  229  TYR229     -0.0009
     79  CD2       19.3350   15.6960   28.3650 C.ar  229  TYR229     -0.0009
     80  CE1       18.0100   16.7730   30.5310 C.ar  229  TYR229      0.0417
     81  CE2       19.5480   17.0290   28.7210 C.ar  229  TYR229      0.0417
     82  CZ        18.8850   17.5500   29.8080 C.ar  229  TYR229      0.1957
     83  OH        19.0890   18.8680   30.1740 O.3   229  TYR229     -0.2866
@<TRIPOS>BOND
     1     4     3    2
     2     3     2    1
     3     1     2    1
     4     2     5    1
     5    15    14    1
     6    23    22    2
     7    14    11    1
     8     5     6    1
     9    22    24   am
    10    22    21    1
    11    67    66    2
    12     6     7    1
    13    71    70    1
    14    74    73    1
    15    74    75    2
    16    21    20    1
    17    66    72   am
    18    66    65    1
    19    10    11    1
    20    11    12    1
    21    73    72    1
    22    73    76    1
    23    70    69    1
    24    65    68    1
    25    65    64    1
    26    51    52    1
    27    51    50    1
    28    79    81   ar
    29    79    77   ar
    30    12    16   am
    31    12    13    2
    32     7     8    1
    33    16    17    1
    34    68    69    1
    35    20    17    1
    36    76    77    1
    37    81    82   ar
    38    77    78   ar
    39     8     9    1
    40    17    18    1
    41    50    49    1
    42    82    83    1
    43    82    80   ar
    44    49    46    1
    45    78    80   ar
    46    32    31   ar
    47    18    25   am
    48    18    19    2
    49    25    26    1
    50    31    30    1
    51    31    33   ar
    52    46    45    1
    53    46    47    1
    54    30    29    1
    55    61    60    2
    56    45    36   am
    57    56    55    2
    58    29    26    1
    59    26    27    1
    60    34    35    1
    61    34    27   am
    62    47    48    2
    63    47    53   am
    64    38    39    1
    65    38    35    1
    66    60    59    1
    67    39    40    1
    68    53    54    1
    69    36    35    1
    70    36    37    2
    71    55    54    1
    72    55    58   am
    73    27    28    2
    74    59    58    1
    75    59    62    1
    76    43    42    1
    77    54    57    1
    78    42    44    1
    79    42    41    2
    80    40    41    1
    81    62    63    1
