@<TRIPOS>MOLECULE
tmp/4tmxA00.pdb
 166 159 0 0 0
SMALL
GASTEIGER

@<TRIPOS>ATOM
      1  N         41.1610   13.0390   16.9960 N.3    18  VAL18      -0.1231
      2  CA        41.2860   12.9470   15.5340 C.3    18  VAL18       0.1692
      3  C         41.0500   14.3080   14.8550 C.2    18  VAL18       0.2592
      4  O         40.2010   15.0930   15.2750 O.2    18  VAL18      -0.2718
      5  CB        40.3250   11.8670   14.9680 C.3    18  VAL18       0.0266
      6  CG1       38.8330   12.3280   15.0640 C.3    18  VAL18       0.0020
      7  CG2       40.7370   11.5070   13.5430 C.3    18  VAL18       0.0020
      8  N         41.8850   14.6020   13.8490 N.am   19  ASN19      -0.1960
      9  CA        41.7190   15.7820   12.9900 C.3    19  ASN19       0.1819
     10  C         41.8470   17.1240   13.7100 C.2    19  ASN19       0.2622
     11  O         41.3430   18.1380   13.2390 O.2    19  ASN19      -0.2715
     12  CB        40.3780   15.6940   12.2410 C.3    19  ASN19       0.1195
     13  CG        40.4320   14.6370   11.1340 C.2    19  ASN19       0.2630
     14  OD1       41.4870   14.3790   10.5840 O.2    19  ASN19      -0.2716
     15  ND2       39.3070   13.9900   10.8470 N.am   19  ASN19      -0.0877
     16  N         42.6170   17.1460   14.7910 N.am   20  THR20      -0.1937
     17  CA        42.8640   18.3920   15.4920 C.3    20  THR20       0.2028
     18  C         44.0180   19.2090   14.9000 C.2    20  THR20       0.2643
     19  O         44.1430   20.3760   15.2370 O.2    20  THR20      -0.2714
     20  CB        43.1350   18.1200   16.9960 C.3    20  THR20       0.1808
     21  OG1       44.1110   17.0690   17.1440 O.3    20  THR20      -0.2208
     22  CG2       41.8520   17.7150   17.7020 C.3    20  THR20       0.0379
     23  N         44.8040   18.6020   14.0060 N.am   21  GLY21      -0.1939
     24  CA        45.8710   19.2860   13.2780 C.3    21  GLY21       0.2014
     25  C         47.2900   18.8700   13.6280 C.2    21  GLY21       0.2639
     26  O         48.2260   19.6070   13.3220 O.2    21  GLY21      -0.2714
     27  N         47.4690   17.7100   14.2860 N.am   22  LYS22      -0.1963
     28  CA        48.8020   17.1950   14.6070 C.3    22  LYS22       0.1728
     29  C         49.7350   17.1480   13.3950 C.2    22  LYS22       0.2617
     30  O         50.8250   17.7330   13.3930 O.2    22  LYS22      -0.2715
     31  CB        48.6890   15.7940   15.2150 C.3    22  LYS22       0.0311
     32  CG        47.8000   15.7340   16.4840 C.3    22  LYS22       0.0038
     33  CD        47.7320   14.2820   16.9720 C.3    22  LYS22       0.0206
     34  CE        46.8860   13.3440   16.0870 C.3    22  LYS22       0.1093
     35  NZ        45.3750   13.7140   16.1660 N.3    22  LYS22      -0.1314
     36  N         49.3080   16.4450   12.3520 N.am   23  THR23      -0.1937
     37  CA        50.1430   16.2780   11.1560 C.3    23  THR23       0.2028
     38  C         50.2570   17.6090   10.4220 C.2    23  THR23       0.2642
     39  O         51.3390   17.9460    9.9250 O.2    23  THR23      -0.2714
     40  CB        49.5640   15.1750   10.2790 C.3    23  THR23       0.1808
     41  OG1       49.4900   13.9590   11.0830 O.3    23  THR23      -0.2208
     42  CG2       50.4530   14.9400    9.0450 C.3    23  THR23       0.0379
     43  N         49.1460   18.3500   10.3320 N.am   24  LYS24      -0.1977
     44  CA        49.2000   19.6550    9.6550 C.3    24  LYS24       0.1596
     45  C         50.2180   20.6120   10.3150 C.2    24  LYS24       0.2287
     46  O         50.9410   21.3370    9.6000 O.2    24  LYS24      -0.2864
     47  CB        47.7980   20.3020    9.6220 C.3    24  LYS24       0.0298
     48  CG        47.6400   21.2950    8.4610 C.3    24  LYS24       0.0038
     49  CD        47.4840   20.5390    7.1400 C.3    24  LYS24       0.0206
     50  CE        47.2750   21.5360    6.0030 C.3    24  LYS24       0.1093
     51  NZ        47.2390   20.7920    4.7160 N.3    24  LYS24      -0.1314
     52  N         49.9350   15.2490    5.1170 N.3    35  GLN35      -0.1245
     53  CA        48.5030   15.0980    5.4590 C.3    35  GLN35       0.1566
     54  C         47.6940   14.9380    4.1800 C.2    35  GLN35       0.2260
     55  O         46.7350   14.1370    4.1390 O.2    35  GLN35      -0.2867
     56  CB        48.0120   16.3190    6.2750 C.3    35  GLN35       0.0367
     57  CG        46.6850   16.0560    6.9500 C.3    35  GLN35       0.0905
     58  CD        45.4740   16.2920    6.0870 C.2    35  GLN35       0.2608
     59  OE1       45.5270   17.0180    5.0940 O.2    35  GLN35      -0.2717
     60  NE2       44.3510   15.6750    6.4590 N.am   35  GLN35      -0.0878
     61  N         47.5950   11.3410    2.9550 N.3    38  GLU38      -0.1245
     62  CA        47.0610   10.2940    3.8140 C.3    38  GLU38       0.1567
     63  C         45.7270    9.7800    3.3530 C.2    38  GLU38       0.2260
     64  O         44.8260   10.5740    3.0420 O.2    38  GLU38      -0.2867
     65  CB        46.9100   10.8020    5.2300 C.3    38  GLU38       0.0388
     66  CG        48.2330   10.9000    5.9810 C.3    38  GLU38       0.1160
     67  CD        48.0690   11.4940    7.3530 C.2    38  GLU38       0.3649
     68  OE1       47.0830   12.2360    7.5690 O.co2  38  GLU38      -0.2457
     69  OE2       48.9090   11.2250    8.2460 O.co2  38  GLU38      -0.2457
     70  N         42.6750   11.2650    4.9410 N.3    41  GLY41      -0.1210
     71  CA        43.2100   12.3920    5.6990 C.3    41  GLY41       0.1956
     72  C         43.4790   12.0340    7.1490 C.2    41  GLY41       0.2612
     73  O         43.5030   12.9320    8.0140 O.2    41  GLY41      -0.2717
     74  N         43.6900   10.7640    7.4620 N.am   42  ILE42      -0.1965
     75  CA        43.9760   10.3920    8.8510 C.3    42  ILE42       0.1727
     76  C         45.2930    9.6560    8.9520 C.2    42  ILE42       0.2616
     77  O         45.6890    8.8910    8.0660 O.2    42  ILE42      -0.2715
     78  CB        42.8610    9.5410    9.5020 C.3    42  ILE42       0.0290
     79  CG1       42.5830    8.3180    8.6760 C.3    42  ILE42       0.0022
     80  CG2       41.5400   10.3570    9.7130 C.3    42  ILE42       0.0023
     81  CD1       41.7770    7.2230    9.5010 C.3    42  ILE42       0.0001
     82  N         45.9930    9.9360   10.0400 N.am   43  THR43      -0.1951
     83  CA        47.2400    9.2340   10.3370 C.3    43  THR43       0.1897
     84  C         46.9390    7.8290   10.8760 C.2    43  THR43       0.2313
     85  O         46.0450    7.6550   11.7230 O.2    43  THR43      -0.2863
     86  CB        48.0360   10.0250   11.3580 C.3    43  THR43       0.1794
     87  OG1       48.3350   11.3230   10.8120 O.3    43  THR43      -0.2208
     88  CG2       49.3400    9.2850   11.7290 C.3    43  THR43       0.0378
     89  N         51.4210   10.8050   15.9260 N.3    81  THR81      -0.1218
     90  CA        50.5880    9.6300   16.2540 C.3    81  THR81       0.1862
     91  C         49.2010    9.8060   15.6990 C.2    81  THR81       0.2287
     92  O         48.7400   10.9310   15.5370 O.2    81  THR81      -0.2866
     93  CB        50.4370    9.3980   17.7970 C.3    81  THR81       0.1770
     94  OG1       49.8500   10.5620   18.4060 O.3    81  THR81      -0.2211
     95  CG2       51.7980    9.1350   18.4350 C.3    81  THR81       0.0375
     96  N         45.1750   10.1230   15.7920 N.3    83  GLY83      -0.1210
     97  CA        44.0960   10.4790   16.7000 C.3    83  GLY83       0.1956
     98  C         42.8720    9.5890   16.5950 C.2    83  GLY83       0.2611
     99  O         42.0650    9.5730   17.5160 O.2    83  GLY83      -0.2717
    100  N         42.7210    8.8740   15.4980 N.am   84  HIS84      -0.1975
    101  CA        41.5110    8.0640   15.3190 C.3    84  HIS84       0.1656
    102  C         41.3890    7.0460   16.4360 C.2    84  HIS84       0.2291
    103  O         42.3870    6.4770   16.9000 O.2    84  HIS84      -0.2864
    104  CB        41.5380    7.3580   13.9580 C.3    84  HIS84       0.0771
    105  CG        40.2640    6.6480   13.6360 C.ar   84  HIS84       0.0820
    106  ND1       39.9740    5.3960   14.1280 N.ar   84  HIS84      -0.2267
    107  CD2       39.2110    7.0070   12.8560 C.ar   84  HIS84       0.1154
    108  CE1       38.7890    5.0160   13.6780 C.ar   84  HIS84       0.1986
    109  NE2       38.3010    5.9770   12.9090 N.ar   84  HIS84      -0.2212
    110  N         44.9810   24.7380   18.7410 N.3   134  ASN134     -0.1225
    111  CA        45.0800   24.8430   17.2970 C.3   134  ASN134      0.1785
    112  C         43.8320   25.3860   16.6040 C.2   134  ASN134      0.2597
    113  O         42.7520   25.3820   17.1710 O.2   134  ASN134     -0.2718
    114  CB        45.5010   23.5070   16.6930 C.3   134  ASN134      0.1169
    115  CG        46.0280   23.6490   15.2860 C.2   134  ASN134      0.2627
    116  OD1       46.7300   24.5960   14.9660 O.2   134  ASN134     -0.2716
    117  ND2       45.6920   22.6980   14.4440 N.am  134  ASN134     -0.0877
    118  N         44.0040   25.7990   15.3530 N.am  135  LYS135     -0.1980
    119  CA        42.9250   26.3250   14.5080 C.3   135  LYS135      0.1596
    120  C         42.4110   27.7310   14.8380 C.2   135  LYS135      0.2287
    121  O         41.2600   28.0430   14.6020 O.2   135  LYS135     -0.2864
    122  CB        41.7660   25.3200   14.4120 C.3   135  LYS135      0.0298
    123  CG        42.2140   23.9030   14.0840 C.3   135  LYS135      0.0038
    124  CD        41.1460   23.1050   13.3570 C.3   135  LYS135      0.0206
    125  CE        41.5750   21.6550   13.2030 C.3   135  LYS135      0.1093
    126  NZ        40.5100   20.8130   12.6010 N.3   135  LYS135     -0.1314
    127  N         42.8460   30.3630   13.2570 N.3   137  ASP137     -0.1225
    128  CA        42.3780   31.0590   12.0650 C.3   137  ASP137      0.1805
    129  C         40.8580   30.8680   11.8450 C.2   137  ASP137      0.2597
    130  O         40.2370   31.5820   11.0120 O.2   137  ASP137     -0.2718
    131  CB        43.1570   30.5560   10.8580 C.3   137  ASP137      0.1424
    132  CG        42.9710   29.0540   10.6530 C.2   137  ASP137      0.3668
    133  OD1       42.1350   28.6760    9.7990 O.co2 137  ASP137     -0.2456
    134  OD2       43.5870   28.2760   11.4020 O.co2 137  ASP137     -0.2456
    135  N         40.2580   29.8990   12.5440 N.am  138  ARG138     -0.1979
    136  CA        38.8180   29.7180   12.5010 C.3   138  ARG138      0.1597
    137  C         38.0230   30.6750   13.4000 C.2   138  ARG138      0.2287
    138  O         36.8260   30.7150   13.3100 O.2   138  ARG138     -0.2864
    139  CB        38.4930   28.2420   12.8540 C.3   138  ARG138      0.0334
    140  CG        39.0300   27.2680   11.7920 C.3   138  ARG138      0.0492
    141  CD        38.3050   25.9360   11.7250 C.3   138  ARG138      0.2205
    142  NE        36.9260   26.1360   11.2710 N.pl3 138  ARG138     -0.0865
    143  CZ        35.8360   25.7640   11.9340 C.cat 138  ARG138      0.5346
    144  NH1       34.6450   26.0210   11.4160 N.pl3 138  ARG138      0.1354
    145  NH2       35.9290   25.1430   13.1040 N.pl3 138  ARG138      0.1354
    146  N         47.9440   28.1770   14.5680 N.3   202  SER202     -0.1202
    147  CA        47.2590   27.7470   13.3700 C.3   202  SER202      0.2020
    148  C         48.2610   26.9850   12.5290 C.2   202  SER202      0.2619
    149  O         49.2790   27.5510   12.1500 O.2   202  SER202     -0.2717
    150  CB        46.7440   28.9280   12.5580 C.3   202  SER202      0.2103
    151  OG        46.2900   28.4800   11.2790 O.3   202  SER202     -0.2182
    152  N         47.9660   25.7340   12.2180 N.am  203  ALA203     -0.1965
    153  CA        48.7570   24.9970   11.2440 C.3   203  ALA203      0.1728
    154  C         48.5730   25.5020    9.8390 C.2   203  ALA203      0.2616
    155  O         49.4190   25.2540    8.9910 O.2   203  ALA203     -0.2715
    156  CB        48.4000   23.4920   11.2970 C.3   203  ALA203      0.0334
    157  N         47.4620   26.1860    9.5580 N.am  204  HIS204     -0.1973
    158  CA        47.2550   26.7030    8.2270 C.3   204  HIS204      0.1656
    159  C         48.0900   27.9640    7.9840 C.2   204  HIS204      0.2291
    160  O         48.7520   28.0660    6.9390 O.2   204  HIS204     -0.2864
    161  CB        45.7650   26.9210    7.9760 C.3   204  HIS204      0.0771
    162  CG        45.0450   25.6490    7.6120 C.ar  204  HIS204      0.0820
    163  ND1       43.7850   25.6440    7.0530 N.ar  204  HIS204     -0.2267
    164  CD2       45.4340   24.3490    7.6900 C.ar  204  HIS204      0.1154
    165  CE1       43.4280   24.3900    6.8090 C.ar  204  HIS204      0.1986
    166  NE2       44.4140   23.5900    7.1850 N.ar  204  HIS204     -0.2212
@<TRIPOS>BOND
     1    61    62    1
     2    64    63    2
     3    63    62    1
     4    62    65    1
     5    55    54    2
     6    54    53    1
     7    51    50    1
     8    70    71    1
     9    59    58    2
    10    52    53    1
    11    65    66    1
    12    53    56    1
    13    71    72    1
    14    66    67    1
    15    50    49    1
    16    58    60   am
    17    58    57    1
    18    56    57    1
    19   165   163   ar
    20   165   166   ar
    21   160   159    2
    22   163   162   ar
    23    49    48    1
    24    72    74   am
    25    72    73    2
    26   166   164   ar
    27    67    68   ar
    28    67    69   ar
    29    74    75    1
    30   162   164   ar
    31   162   161    1
    32   161   158    1
    33   159   158    1
    34    77    76    2
    35   158   157    1
    36    48    47    1
    37    79    81    1
    38    79    78    1
    39    75    76    1
    40    75    78    1
    41    76    82   am
    42   155   154    2
    43    42    40    1
    44    78    80    1
    45   157   154   am
    46    46    45    2
    47    47    44    1
    48    44    45    1
    49    44    43    1
    50   133   132   ar
    51   154   153    1
    52    39    38    2
    53    82    83    1
    54    40    41    1
    55    40    37    1
    56    43    38   am
    57    83    84    1
    58    83    86    1
    59    38    37    1
    60    14    13    2
    61   132   131    1
    62   132   134   ar
    63    87    86    1
    64    15    13   am
    65   131   128    1
    66    84    85    2
    67   130   129    2
    68    13    12    1
    69    37    36    1
    70   153   156    1
    71   153   152    1
    72   142   141    1
    73   142   143    2
    74   151   150    1
    75    86    88    1
    76   144   143    1
    77   141   140    1
    78   140   139    1
    79   129   128    1
    80   129   135   am
    81   143   145    1
    82   128   127    1
    83   149   148    2
    84   152   148   am
    85    12     9    1
    86    36    29   am
    87   136   135    1
    88   136   139    1
    89   136   137    1
    90   148   147    1
    91   150   147    1
    92   126   125    1
    93   107   109   ar
    94   107   105   ar
    95   109   108   ar
    96     9    10    1
    97     9     8    1
    98   125   124    1
    99    11    10    2
   100    24    25    1
   101    24    23    1
   102   138   137    2
   103    26    25    2
   104   124   123    1
   105   147   146    1
   106    30    29    2
   107    29    28    1
   108     7     5    1
   109    25    27   am
   110   105   104    1
   111   105   106   ar
   112   108   106   ar
   113    10    16   am
   114     8     3   am
   115   104   101    1
   116    23    18   am
   117   123   122    1
   118    27    28    1
   119   122   119    1
   120   117   115   am
   121   119   120    1
   122   119   118    1
   123   121   120    2
   124    28    31    1
   125    16    17    1
   126     3     4    2
   127     3     2    1
   128    18    19    2
   129    18    17    1
   130   116   115    2
   131     5     6    1
   132     5     2    1
   133    31    32    1
   134   115   114    1
   135   101   100    1
   136   101   102    1
   137   118   112   am
   138    17    20    1
   139   100    98   am
   140     2     1    1
   141    92    91    2
   142    91    90    1
   143    96    97    1
   144    89    90    1
   145    34    35    1
   146    34    33    1
   147    90    93    1
   148   102   103    2
   149    32    33    1
   150    98    97    1
   151    98    99    2
   152   112   113    2
   153   112   111    1
   154   114   111    1
   155    20    21    1
   156    20    22    1
   157   111   110    1
   158    93    94    1
   159    93    95    1
