@<TRIPOS>MOLECULE
tmp/4tn2A00.pdb
 140 135 0 0 0
SMALL
GASTEIGER

@<TRIPOS>ATOM
      1  N         38.5850  -64.9000  -13.3490 N.3   413  LEU413     -0.1245
      2  CA        37.1850  -65.1800  -13.1810 C.3   413  LEU413      0.1561
      3  C         36.3590  -63.9160  -13.1390 C.2   413  LEU413      0.2260
      4  O         35.3250  -63.8270  -13.8010 O.2   413  LEU413     -0.2867
      5  CB        37.0920  -65.9530  -11.8480 C.3   413  LEU413      0.0270
      6  CG        35.7450  -66.3370  -11.2530 C.3   413  LEU413      0.0019
      7  CD1       34.9070  -67.1410  -12.2340 C.3   413  LEU413      0.0001
      8  CD2       35.9580  -67.1010   -9.9570 C.3   413  LEU413      0.0001
      9  N         36.5360  -61.4280  -16.5960 N.3   416  ARG416     -0.1231
     10  CA        35.7950  -62.1020  -17.6590 C.3   416  ARG416      0.1694
     11  C         34.3050  -62.1160  -17.4230 C.2   416  ARG416      0.2591
     12  O         33.5520  -61.8650  -18.3590 O.2   416  ARG416     -0.2718
     13  CB        36.2720  -63.5450  -17.7800 C.3   416  ARG416      0.0321
     14  CG        37.6330  -63.6920  -18.3610 C.3   416  ARG416      0.0489
     15  CD        38.0930  -65.1180  -18.2750 C.3   416  ARG416      0.2205
     16  NE        37.4080  -65.9650  -19.2420 N.pl3 416  ARG416     -0.0865
     17  CZ        37.4740  -67.2850  -19.2400 C.cat 416  ARG416      0.5346
     18  NH1       38.2020  -67.9120  -18.3350 N.pl3 416  ARG416      0.1354
     19  NH2       36.8150  -67.9900  -20.1490 N.pl3 416  ARG416      0.1354
     20  N         33.8710  -62.4850  -16.2140 N.am  417  MET417     -0.1979
     21  CA        32.4590  -62.5860  -15.8790 C.3   417  MET417      0.1605
     22  C         31.8190  -61.2200  -15.7040 C.2   417  MET417      0.2287
     23  O         30.7530  -60.9780  -16.2650 O.2   417  MET417     -0.2864
     24  CB        32.2780  -63.4310  -14.6100 C.3   417  MET417      0.0413
     25  CG        30.8420  -63.6550  -14.1930 C.3   417  MET417      0.0598
     26  SD        30.7760  -64.5680  -12.6320 S.3   417  MET417     -0.1393
     27  CE        30.5100  -63.2890  -11.5180 C.3   417  MET417      0.0692
     28  N         39.7450  -70.8140  -19.7520 N.3   468  LEU468     -0.1231
     29  CA        40.0560  -71.1200  -18.3650 C.3   468  LEU468      0.1693
     30  C         38.8140  -71.4370  -17.5520 C.2   468  LEU468      0.2592
     31  O         37.8120  -70.7320  -17.6390 O.2   468  LEU468     -0.2718
     32  CB        40.9220  -70.0300  -17.6910 C.3   468  LEU468      0.0284
     33  CG        42.3780  -69.8450  -18.1620 C.3   468  LEU468      0.0019
     34  CD1       43.1310  -68.9810  -17.2030 C.3   468  LEU468      0.0001
     35  CD2       43.1120  -71.1530  -18.3280 C.3   468  LEU468      0.0001
     36  N         38.8660  -72.5530  -16.8290 N.am  469  HIS469     -0.1962
     37  CA        37.7890  -73.0470  -15.9710 C.3   469  HIS469      0.1787
     38  C         38.4510  -73.8430  -14.8480 C.2   469  HIS469      0.2621
     39  O         39.6660  -74.0760  -14.9140 O.2   469  HIS469     -0.2715
     40  CB        36.8290  -73.9410  -16.7850 C.3   469  HIS469      0.0785
     41  CG        37.4670  -75.2100  -17.2370 C.ar  469  HIS469      0.0821
     42  ND1       37.4270  -76.3470  -16.4600 N.ar  469  HIS469     -0.2267
     43  CD2       38.2240  -75.4520  -18.3300 C.ar  469  HIS469      0.1154
     44  CE1       38.1360  -77.2520  -17.1150 C.ar  469  HIS469      0.1986
     45  NE2       38.6460  -76.7550  -18.2370 N.ar  469  HIS469     -0.2212
     46  N         37.6570  -74.3060  -13.8500 N.am  470  SER470     -0.1936
     47  CA        38.1690  -75.1020  -12.7290 C.3   470  SER470      0.2055
     48  C         39.2090  -74.3020  -12.0080 C.2   470  SER470      0.2643
     49  O         40.3910  -74.6580  -11.9880 O.2   470  SER470     -0.2714
     50  CB        38.7340  -76.4560  -13.1880 C.3   470  SER470      0.2130
     51  OG        37.7170  -77.4190  -13.4150 O.3   470  SER470     -0.2179
     52  N         38.7690  -73.1640  -11.4790 N.am  471  TYR471     -0.1973
     53  CA        39.6340  -72.2340  -10.7610 C.3   471  TYR471      0.1639
     54  C         39.8390  -72.7660   -9.3540 C.2   471  TYR471      0.2290
     55  O         38.9870  -73.5250   -8.8770 O.2   471  TYR471     -0.2864
     56  CB        38.9760  -70.8540  -10.7120 C.3   471  TYR471      0.0560
     57  CG        38.9860  -70.0670  -12.0100 C.ar  471  TYR471     -0.0198
     58  CD1       37.7940  -69.7630  -12.6750 C.ar  471  TYR471     -0.0009
     59  CD2       40.1650  -69.5170  -12.5050 C.ar  471  TYR471     -0.0009
     60  CE1       37.7850  -68.9630  -13.8200 C.ar  471  TYR471      0.0417
     61  CE2       40.1670  -68.7020  -13.6390 C.ar  471  TYR471      0.0417
     62  CZ        38.9750  -68.4250  -14.2900 C.ar  471  TYR471      0.1957
     63  OH        38.9960  -67.6380  -15.4130 O.3   471  TYR471     -0.2866
     64  N         37.9860  -68.6730   -5.9380 N.3   476  ILE476     -0.1245
     65  CA        36.5230  -68.6600   -5.9670 C.3   476  ILE476      0.1561
     66  C         35.9790  -67.9950   -4.7090 C.2   476  ILE476      0.2260
     67  O         35.1900  -67.0610   -4.8210 O.2   476  ILE476     -0.2867
     68  CB        35.9320  -70.0770   -6.2010 C.3   476  ILE476      0.0252
     69  CG1       36.3630  -70.6360   -7.5800 C.3   476  ILE476      0.0019
     70  CG2       34.3900  -70.0700   -6.0350 C.3   476  ILE476      0.0019
     71  CD1       36.1420  -72.1210   -7.7410 C.3   476  ILE476      0.0001
     72  N         36.5530  -64.2170   -4.6630 N.3   479  VAL479     -0.1231
     73  CA        35.6710  -63.5500   -5.6360 C.3   479  VAL479      0.1692
     74  C         34.2260  -63.5830   -5.1210 C.2   479  VAL479      0.2591
     75  O         33.5870  -62.5270   -5.0560 O.2   479  VAL479     -0.2718
     76  CB        35.8260  -64.0910   -7.0930 C.3   479  VAL479      0.0266
     77  CG1       34.8560  -63.4090   -8.0510 C.3   479  VAL479      0.0020
     78  CG2       37.2610  -63.9420   -7.5990 C.3   479  VAL479      0.0020
     79  N         33.7320  -64.7800   -4.7130 N.am  480  ALA480     -0.1980
     80  CA        32.3910  -64.9930   -4.1330 C.3   480  ALA480      0.1597
     81  C         32.1320  -64.0350   -2.9510 C.2   480  ALA480      0.2287
     82  O         31.1120  -63.3460   -2.9410 O.2   480  ALA480     -0.2864
     83  CB        32.2410  -66.4350   -3.6840 C.3   480  ALA480      0.0319
     84  N         31.6090  -60.4280   -4.1360 N.3   483  LEU483     -0.1245
     85  CA        30.2960  -60.2140   -4.7710 C.3   483  LEU483      0.1561
     86  C         29.2400  -60.0000   -3.6900 C.2   483  LEU483      0.2260
     87  O         28.4500  -59.0540   -3.7680 O.2   483  LEU483     -0.2867
     88  CB        29.8980  -61.3910   -5.6800 C.3   483  LEU483      0.0270
     89  CG        30.9330  -61.9220   -6.6810 C.3   483  LEU483      0.0019
     90  CD1       30.4050  -63.1460   -7.4010 C.3   483  LEU483      0.0001
     91  CD2       31.3590  -60.8570   -7.6730 C.3   483  LEU483      0.0001
     92  N         24.9570  -62.6670   -9.1390 N.3   490  PRO490     -0.2102
     93  CA        25.7040  -63.9320   -9.2230 C.3   490  PRO490      0.1504
     94  C         26.0200  -64.3240  -10.6590 C.2   490  PRO490      0.2575
     95  O         25.5560  -63.6620  -11.5910 O.2   490  PRO490     -0.2718
     96  CB        24.7710  -64.9360   -8.5330 C.3   490  PRO490      0.0282
     97  CG        23.4010  -64.3570   -8.6790 C.3   490  PRO490      0.0208
     98  CD        23.5040  -62.9020   -8.9370 C.3   490  PRO490      0.0893
     99  N         26.7620  -65.4340  -10.8290 N.am  491  LEU491     -0.1980
    100  CA        27.1590  -65.9860  -12.1180 C.3   491  LEU491      0.1596
    101  C         26.0320  -66.0720  -13.1280 C.2   491  LEU491      0.2287
    102  O         26.2630  -65.7260  -14.2890 O.2   491  LEU491     -0.2864
    103  CB        27.8430  -67.3600  -11.9330 C.3   491  LEU491      0.0297
    104  CG        28.1290  -68.2440  -13.1720 C.3   491  LEU491      0.0022
    105  CD1       29.0950  -67.5710  -14.1640 C.3   491  LEU491      0.0001
    106  CD2       28.7010  -69.5900  -12.7500 C.3   491  LEU491      0.0001
    107  N         25.8930  -64.6220  -16.9510 N.3   495  ARG495     -0.1245
    108  CA        25.8540  -65.5330  -18.0930 C.3   495  ARG495      0.1563
    109  C         24.7090  -65.1490  -19.0410 C.2   495  ARG495      0.2260
    110  O         24.8760  -65.2650  -20.2560 O.2   495  ARG495     -0.2867
    111  CB        25.7220  -66.9680  -17.5940 C.3   495  ARG495      0.0307
    112  CG        25.8880  -68.0630  -18.6420 C.3   495  ARG495      0.0489
    113  CD        25.9190  -69.4560  -18.0100 C.3   495  ARG495      0.2205
    114  NE        25.0200  -69.5840  -16.8530 N.pl3 495  ARG495     -0.0865
    115  CZ        25.3400  -70.1910  -15.7120 C.cat 495  ARG495      0.5346
    116  NH1       24.4660  -70.2420  -14.7160 N.pl3 495  ARG495      0.1354
    117  NH2       26.5370  -70.7580  -15.5620 N.pl3 495  ARG495      0.1354
    118  N         32.7830  -68.6370  -22.6610 N.3   522  TRP522     -0.1241
    119  CA        32.4840  -69.2120  -21.3330 C.3   522  TRP522      0.1605
    120  C         30.9770  -69.2130  -20.9960 C.2   522  TRP522      0.2264
    121  O         30.5730  -69.8880  -20.0440 O.2   522  TRP522     -0.2867
    122  CB        33.2450  -68.4270  -20.2310 C.3   522  TRP522      0.0550
    123  CG        32.8310  -66.9840  -20.0900 C.ar  522  TRP522      0.0003
    124  CD1       33.4300  -65.8990  -20.6650 C.ar  522  TRP522      0.0946
    125  CD2       31.7080  -66.4790  -19.3520 C.ar  522  TRP522      0.0152
    126  NE1       32.7690  -64.7450  -20.3060 N.ar  522  TRP522     -0.2442
    127  CE2       31.6920  -65.0770  -19.5170 C.ar  522  TRP522      0.0810
    128  CE3       30.7040  -67.0800  -18.5680 C.ar  522  TRP522      0.0012
    129  CZ2       30.7090  -64.2690  -18.9310 C.ar  522  TRP522      0.0191
    130  CZ3       29.7300  -66.2830  -17.9980 C.ar  522  TRP522      0.0001
    131  CH2       29.7460  -64.8950  -18.1680 C.ar  522  TRP522      0.0015
    132  N         31.1160  -74.8470  -25.4560 N.3   527  LYS527     -0.1245
    133  CA        32.1390  -73.9620  -25.9690 C.3   527  LYS527      0.1561
    134  C         32.5840  -74.3100  -27.3820 C.2   527  LYS527      0.2260
    135  O         32.7230  -75.4870  -27.7360 O.2   527  LYS527     -0.2867
    136  CB        33.3130  -73.9490  -24.9740 C.3   527  LYS527      0.0271
    137  CG        33.0100  -73.1910  -23.6420 C.3   527  LYS527      0.0035
    138  CD        31.8760  -73.7910  -22.7630 C.3   527  LYS527      0.0206
    139  CE        31.6550  -73.0800  -21.4560 C.3   527  LYS527      0.1093
    140  NZ        30.5880  -73.7300  -20.6480 N.3   527  LYS527     -0.1314
@<TRIPOS>BOND
     1   135   134    2
     2   134   133    1
     3   133   132    1
     4   133   136    1
     5   136   137    1
     6   137   138    1
     7   138   139    1
     8   118   119    1
     9   139   140    1
    10   119   120    1
    11   119   122    1
    12   120   121    2
    13   124   126   ar
    14   124   123   ar
    15   126   127   ar
    16   110   109    2
    17   122   123    1
    18    19    17    1
    19   123   125   ar
    20    28    29    1
    21   127   125   ar
    22   127   129   ar
    23   125   128   ar
    24    16    17    2
    25    16    15    1
    26    17    18    1
    27   109   108    1
    28   129   131   ar
    29   112   113    1
    30   112   111    1
    31   128   130   ar
    32    29    32    1
    33    29    30    1
    34    14    15    1
    35    14    13    1
    36    12    11    2
    37    43    45   ar
    38    43    41   ar
    39    35    33    1
    40    45    44   ar
    41   131   130   ar
    42    33    32    1
    43    33    34    1
    44   108   111    1
    45   108   107    1
    46   113   114    1
    47    13    10    1
    48    10    11    1
    49    10     9    1
    50    31    30    2
    51    30    36   am
    52    11    20   am
    53    41    40    1
    54    41    42   ar
    55    44    42   ar
    56   114   115    2
    57    36    37    1
    58    40    37    1
    59    23    22    2
    60    20    21    1
    61    37    38    1
    62    21    22    1
    63    21    24    1
    64   115   117    1
    65   115   116    1
    66    63    62    1
    67    39    38    2
    68    38    46   am
    69    24    25    1
    70    62    60   ar
    71    62    61   ar
    72   102   101    2
    73    25    26    1
    74   105   104    1
    75    46    47    1
    76    60    58   ar
    77     4     3    2
    78    61    59   ar
    79    51    50    1
    80     1     2    1
    81    50    47    1
    82     2     3    1
    83     2     5    1
    84   104   106    1
    85   104   103    1
    86   101   100    1
    87    47    48    1
    88    58    57   ar
    89    26    27    1
    90    59    57   ar
    91     7     6    1
    92   100   103    1
    93   100    99    1
    94    57    56    1
    95    48    49    2
    96    48    52   am
    97     5     6    1
    98    95    94    2
    99    52    53    1
   100     6     8    1
   101    99    94   am
   102    53    56    1
   103    53    54    1
   104    94    93    1
   105    54    55    2
   106    93    92    1
   107    93    96    1
   108    92    98    1
   109    98    97    1
   110    97    96    1
   111    77    76    1
   112    71    69    1
   113    91    89    1
   114    78    76    1
   115    69    68    1
   116    90    89    1
   117    76    73    1
   118    89    88    1
   119    68    70    1
   120    68    65    1
   121    65    64    1
   122    65    66    1
   123    88    85    1
   124    73    74    1
   125    73    72    1
   126    74    75    2
   127    74    79   am
   128    67    66    2
   129    85    84    1
   130    85    86    1
   131    79    80    1
   132    80    83    1
   133    80    81    1
   134    87    86    2
   135    81    82    2
