@<TRIPOS>MOLECULE
tmp/4tn4A01.pdb
 141 135 0 0 0
SMALL
GASTEIGER

@<TRIPOS>ATOM
      1  N         15.1810   10.1580  -98.1810 N.3   124  LEU124     -0.1231
      2  CA        16.0330    8.9660  -98.1290 C.3   124  LEU124      0.1693
      3  C         16.1280    8.2530  -99.4810 C.2   124  LEU124      0.2592
      4  O         17.2210    7.9090  -99.9340 O.2   124  LEU124     -0.2718
      5  CB        15.4980    7.9960  -97.0690 C.3   124  LEU124      0.0284
      6  CG        16.2450    6.6930  -96.7810 C.3   124  LEU124      0.0019
      7  CD1       17.2650    6.9010  -95.6720 C.3   124  LEU124      0.0001
      8  CD2       15.2520    5.6000  -96.4100 C.3   124  LEU124      0.0001
      9  N         14.9740    8.0370 -100.1170 N.am  125  CYS125     -0.1956
     10  CA        14.9070    7.3590 -101.4110 C.3   125  CYS125      0.1843
     11  C         15.6180    8.1570 -102.4780 C.2   125  CYS125      0.2626
     12  O         15.9530    7.6230 -103.5080 O.2   125  CYS125     -0.2714
     13  CB        13.4550    7.0950 -101.8190 C.3   125  CYS125      0.0997
     14  SG        12.5850    6.0510 -100.6250 S.3   125  CYS125     -0.0797
     15  N         15.8520    9.4410 -102.2100 N.am  126  SER126     -0.1936
     16  CA        16.6210   10.3000 -103.1040 C.3   126  SER126      0.2055
     17  C         18.0900   10.2630 -102.7640 C.2   126  SER126      0.2644
     18  O         18.9010   10.5150 -103.6250 O.2   126  SER126     -0.2714
     19  CB        16.1370   11.7570 -103.0710 C.3   126  SER126      0.2130
     20  OG        14.8250   11.8870 -103.5930 O.3   126  SER126     -0.2179
     21  N         18.4400    9.9770 -101.5140 N.am  127  GLY127     -0.1939
     22  CA        19.8550    9.8980 -101.1530 C.3   127  GLY127      0.2014
     23  C         20.2500   10.6240  -99.8850 C.2   127  GLY127      0.2639
     24  O         21.4450   10.7300  -99.5640 O.2   127  GLY127     -0.2714
     25  N         19.2540   11.1190  -99.1600 N.am  128  GLY128     -0.1939
     26  CA        19.5000   11.7230  -97.8690 C.3   128  GLY128      0.2014
     27  C         19.6250   10.6590  -96.7930 C.2   128  GLY128      0.2639
     28  O         19.3220    9.4900  -97.0220 O.2   128  GLY128     -0.2714
     29  N         20.0800   11.0700  -95.6140 N.am  129  HIS129     -0.1959
     30  CA        20.1880   10.1690  -94.5020 C.3   129  HIS129      0.1787
     31  C         18.9080   10.0980  -93.7340 C.2   129  HIS129      0.2620
     32  O         18.0460   10.9560  -93.8660 O.2   129  HIS129     -0.2715
     33  CB        21.3090   10.5880  -93.5890 C.3   129  HIS129      0.0785
     34  CG        21.6370    9.5570  -92.5400 C.ar  129  HIS129      0.0821
     35  ND1       22.3880    8.4780  -92.8020 N.ar  129  HIS129     -0.2267
     36  CD2       21.2640    9.4640  -91.2070 C.ar  129  HIS129      0.1154
     37  CE1       22.5000    7.7320  -91.6870 C.ar  129  HIS129      0.1986
     38  NE2       21.8040    8.3340  -90.7150 N.ar  129  HIS129     -0.2212
     39  N         18.7900    9.0600  -92.9150 N.am  130  LEU130     -0.1977
     40  CA        17.6430    8.8540  -92.0320 C.3   130  LEU130      0.1596
     41  C         17.4280   10.0230  -91.0830 C.2   130  LEU130      0.2287
     42  O         16.2980   10.4480  -90.8800 O.2   130  LEU130     -0.2864
     43  CB        17.8270    7.5720  -91.2240 C.3   130  LEU130      0.0297
     44  CG        17.5100    6.3130  -92.0370 C.3   130  LEU130      0.0022
     45  CD1       18.1750    5.0910  -91.4140 C.3   130  LEU130      0.0001
     46  CD2       15.9890    6.1420  -92.1410 C.3   130  LEU130      0.0001
     47  N         13.6890   11.8040  -92.0900 N.3   134  PHE134     -0.1241
     48  CA        12.9510   10.8040  -92.8450 C.3   134  PHE134      0.1605
     49  C         11.6520   10.3490  -92.1770 C.2   134  PHE134      0.2264
     50  O         11.6030   10.1100  -90.9630 O.2   134  PHE134     -0.2867
     51  CB        13.8050    9.5930  -93.2070 C.3   134  PHE134      0.0534
     52  CG        13.0690    8.5960  -94.0530 C.ar  134  PHE134     -0.0203
     53  CD1       12.6190    8.9470  -95.3300 C.ar  134  PHE134     -0.0042
     54  CD2       12.7630    7.3350  -93.5610 C.ar  134  PHE134     -0.0042
     55  CE1       11.9100    8.0470  -96.1070 C.ar  134  PHE134     -0.0003
     56  CE2       12.0530    6.4330  -94.3400 C.ar  134  PHE134     -0.0003
     57  CZ        11.6300    6.7880  -95.6140 C.ar  134  PHE134     -0.0000
     58  N          7.6040    8.1840  -93.3760 N.3   136  ASP136     -0.1239
     59  CA         6.8890    7.3310  -94.3000 C.3   136  ASP136      0.1674
     60  C          5.4690    7.8230  -94.3330 C.2   136  ASP136      0.2266
     61  O          5.0350    8.5510  -93.4360 O.2   136  ASP136     -0.2867
     62  CB         6.8970    5.8920  -93.7680 C.3   136  ASP136      0.1410
     63  CG         7.1740    4.8590  -94.8440 C.2   136  ASP136      0.3668
     64  OD1        6.7380    5.0400  -96.0040 O.co2 136  ASP136     -0.2456
     65  OD2        7.8250    3.8450  -94.5160 O.co2 136  ASP136     -0.2456
     66  N          9.6240    7.4820  -89.2180 N.3   141  VAL141     -0.1245
     67  CA        10.6370    6.4310  -89.1510 C.3   141  VAL141      0.1561
     68  C         11.8630    6.8630  -88.3290 C.2   141  VAL141      0.2260
     69  O         12.3390    6.1180  -87.4770 O.2   141  VAL141     -0.2867
     70  CB        11.0260    5.9800  -90.5810 C.3   141  VAL141      0.0252
     71  CG1       11.9480    4.7720  -90.5750 C.3   141  VAL141      0.0019
     72  CG2        9.7670    5.6870  -91.3930 C.3   141  VAL141      0.0019
     73  N         23.8170   10.7740  -98.1940 N.3   183  THR183     -0.1203
     74  CA        24.2290    9.3900  -98.0430 C.3   183  THR183      0.1994
     75  C         24.6360    8.7780  -99.3750 C.2   183  THR183      0.2618
     76  O         25.6250    8.0550  -99.4610 O.2   183  THR183     -0.2717
     77  CB        23.0710    8.5720  -97.4800 C.3   183  THR183      0.1784
     78  OG1       22.7540    9.0510  -96.1710 O.3   183  THR183     -0.2211
     79  CG2       23.4420    7.0990  -97.4210 C.3   183  THR183      0.0376
     80  N         23.8600    9.0620 -100.4100 N.am  184  SER184     -0.1951
     81  CA        24.1390    8.5250 -101.7130 C.3   184  SER184      0.1924
     82  C         23.9650    9.5980 -102.7640 C.2   184  SER184      0.2314
     83  O         22.8740    9.7970 -103.2740 O.2   184  SER184     -0.2863
     84  CB        23.2020    7.3640 -101.9910 C.3   184  SER184      0.2116
     85  OG        23.8100    6.5290 -102.9450 O.3   184  SER184     -0.2180
     86  N         25.7200   -2.2690 -102.1150 N.3   354  ASN354     -0.1225
     87  CA        24.3340   -2.2710 -101.6770 C.3   354  ASN354      0.1785
     88  C         23.3910   -1.6830 -102.6940 C.2   354  ASN354      0.2597
     89  O         23.8100   -0.9280 -103.5680 O.2   354  ASN354     -0.2718
     90  CB        24.1810   -1.6140 -100.3000 C.3   354  ASN354      0.1169
     91  CG        24.7060   -0.1920 -100.2640 C.2   354  ASN354      0.2627
     92  OD1       24.0220    0.7430 -100.6930 O.2   354  ASN354     -0.2716
     93  ND2       25.9110   -0.0220  -99.7560 N.am  354  ASN354     -0.0877
     94  N         22.1250   -2.0770 -102.6040 N.am  355  LYS355     -0.1966
     95  CA        21.0760   -1.5710 -103.4770 C.3   355  LYS355      0.1728
     96  C         20.8290   -0.0930 -103.1740 C.2   355  LYS355      0.2616
     97  O         21.1480    0.3900 -102.0870 O.2   355  LYS355     -0.2715
     98  CB        19.7820   -2.4020 -103.3340 C.3   355  LYS355      0.0311
     99  CG        19.0420   -2.2150 -102.0150 C.3   355  LYS355      0.0038
    100  CD        18.1500   -3.3920 -101.6160 C.3   355  LYS355      0.0206
    101  CE        17.0170   -2.9160 -100.7120 C.3   355  LYS355      0.1093
    102  NZ        16.7950   -3.7270  -99.4790 N.3   355  LYS355     -0.1314
    103  N         20.2560    0.6190 -104.1390 N.am  356  ASN356     -0.1958
    104  CA        20.0750    2.0570 -104.0340 C.3   356  ASN356      0.1819
    105  C         19.0420    2.5120 -105.0490 C.2   356  ASN356      0.2621
    106  O         18.9080    1.9230 -106.1280 O.2   356  ASN356     -0.2715
    107  CB        21.4220    2.7820 -104.2510 C.3   356  ASN356      0.1195
    108  CG        21.3950    4.2310 -103.7870 C.2   356  ASN356      0.2630
    109  OD1       20.8270    5.0870 -104.4490 O.2   356  ASN356     -0.2716
    110  ND2       22.0230    4.5060 -102.6690 N.am  356  ASN356     -0.0877
    111  N         18.3100    3.5570 -104.7010 N.am  357  THR357     -0.1951
    112  CA        17.2930    4.1100 -105.5880 C.3   357  THR357      0.1897
    113  C         17.8720    4.9550 -106.7340 C.2   357  THR357      0.2313
    114  O         18.9990    5.4510 -106.6560 O.2   357  THR357     -0.2863
    115  CB        16.2910    4.9440 -104.7760 C.3   357  THR357      0.1794
    116  OG1       15.7660    4.1410 -103.7120 O.3   357  THR357     -0.2208
    117  CG2       15.1470    5.3810 -105.6300 C.3   357  THR357      0.0378
    118  N         10.4650    2.4170 -102.3960 N.3   364  CYS364     -0.1235
    119  CA        11.8020    2.0570 -101.9120 C.3   364  CYS364      0.1677
    120  C         12.0300    0.5510 -101.8080 C.2   364  CYS364      0.2270
    121  O         13.1140    0.0990 -101.4160 O.2   364  CYS364     -0.2867
    122  CB        12.0800    2.7230 -100.5600 C.3   364  CYS364      0.0956
    123  SG        13.8030    3.2400 -100.3530 S.3   364  CYS364     -0.0801
    124  N         14.2360   -0.8620 -105.6160 N.3   367  PRO367     -0.2116
    125  CA        15.3500   -0.0180 -106.1010 C.3   367  PRO367      0.1372
    126  C         16.0010   -0.5180 -107.3870 C.2   367  PRO367      0.2244
    127  O         16.2580   -1.7040 -107.5320 O.2   367  PRO367     -0.2868
    128  CB        16.3500   -0.0390 -104.9430 C.3   367  PRO367      0.0268
    129  CG        16.0510   -1.2960 -104.2060 C.3   367  PRO367      0.0207
    130  CD        14.5820   -1.5490 -104.3580 C.3   367  PRO367      0.0892
    131  N         24.7970    1.1570 -105.1560 N.3   371  ARG371     -0.1245
    132  CA        25.8180    2.1070 -104.7850 C.3   371  ARG371      0.1563
    133  C         27.1520    1.3990 -104.5880 C.2   371  ARG371      0.2260
    134  O         27.2430    0.3800 -103.8890 O.2   371  ARG371     -0.2867
    135  CB        25.4050    2.8290 -103.4960 C.3   371  ARG371      0.0307
    136  CG        26.3240    3.9820 -103.0700 C.3   371  ARG371      0.0489
    137  CD        25.9080    4.4950 -101.7030 C.3   371  ARG371      0.2205
    138  NE        26.3040    3.5640 -100.6520 N.pl3 371  ARG371     -0.0865
    139  CZ        26.2540    3.8340  -99.3620 C.cat 371  ARG371      0.5346
    140  NH1       25.8030    5.0230  -98.9620 N.pl3 371  ARG371      0.1354
    141  NH2       26.6460    2.9210  -98.4740 N.pl3 371  ARG371      0.1354
@<TRIPOS>BOND
     1   127   126    2
     2   126   125    1
     3   113   114    2
     4   113   112    1
     5   106   105    2
     6   125   124    1
     7   125   128    1
     8   117   115    1
     9   124   130    1
    10   112   115    1
    11   112   111    1
    12   131   132    1
    13   105   111   am
    14   105   104    1
    15   128   129    1
    16   132   133    1
    17   132   135    1
    18   115   116    1
    19   133   134    2
    20   109   108    2
    21   130   129    1
    22   107   104    1
    23   107   108    1
    24   103   104    1
    25   103    96   am
    26   108   110   am
    27    18    17    2
    28    20    19    1
    29    89    88    2
    30    12    11    2
    31   135   136    1
    32    95    98    1
    33    95    96    1
    34    95    94    1
    35    98    99    1
    36    83    82    2
    37    96    97    2
    38    16    19    1
    39    16    17    1
    40    16    15    1
    41   136   137    1
    42    85    84    1
    43    17    21   am
    44    82    81    1
    45    88    94   am
    46    88    87    1
    47    11    15   am
    48    11    10    1
    49   118   119    1
    50    86    87    1
    51    99   100    1
    52    84    81    1
    53   119   120    1
    54   119   122    1
    55    13    10    1
    56    13    14    1
    57   120   121    2
    58    81    80    1
    59   137   138    1
    60    87    90    1
    61   100   101    1
    62    21    22    1
    63    10     9    1
    64    22    23    1
    65   101   102    1
    66    92    91    2
    67   138   139    2
    68   122   123    1
    69    80    75   am
    70    90    91    1
    71    91    93   am
    72     9     3   am
    73     4     3    2
    74    23    24    2
    75    23    25   am
    76     3     2    1
    77    76    75    2
    78    75    74    1
    79   139   140    1
    80   139   141    1
    81    25    26    1
    82    73    74    1
    83     1     2    1
    84     2     5    1
    85    74    77    1
    86    26    27    1
    87    77    79    1
    88    77    78    1
    89     5     6    1
    90    28    27    2
    91    27    29   am
    92     6     8    1
    93     6     7    1
    94    55    57   ar
    95    55    53   ar
    96    64    63   ar
    97    29    30    1
    98    57    56   ar
    99    53    52   ar
   100    63    65   ar
   101    63    62    1
   102    30    31    1
   103    30    33    1
   104    56    54   ar
   105    60    59    1
   106    60    61    2
   107    59    62    1
   108    59    58    1
   109    52    54   ar
   110    52    51    1
   111    32    31    2
   112    31    39   am
   113    33    34    1
   114    51    48    1
   115    39    40    1
   116    48    49    1
   117    48    47    1
   118    35    34   ar
   119    35    37   ar
   120    34    36   ar
   121    49    50    2
   122    46    44    1
   123    44    45    1
   124    44    43    1
   125    40    43    1
   126    40    41    1
   127    37    38   ar
   128    72    70    1
   129    36    38   ar
   130    41    42    2
   131    70    71    1
   132    70    67    1
   133    66    67    1
   134    67    68    1
   135    68    69    2
