@<TRIPOS>MOLECULE
tmp/4tn6A00.pdb
 171 158 0 0 0
SMALL
GASTEIGER

@<TRIPOS>ATOM
      1  N        -21.8820   -8.0980   45.5930 N.3    14  ILE14      -0.1231
      2  CA       -22.4920   -8.4090   44.2900 C.3    14  ILE14       0.1692
      3  C        -21.3440   -8.5970   43.2980 C.2    14  ILE14       0.2592
      4  O        -21.4960   -9.2790   42.2930 O.2    14  ILE14      -0.2718
      5  CB       -23.6520   -7.4810   43.8360 C.3    14  ILE14       0.0266
      6  CG1      -23.2550   -6.0130   43.7210 C.3    14  ILE14       0.0019
      7  CG2      -24.8310   -7.6470   44.7840 C.3    14  ILE14       0.0020
      8  CD1      -24.4260   -4.9950   43.9530 C.3    14  ILE14       0.0001
      9  N        -20.1860   -8.0850   43.7150 N.am   15  GLY15      -0.1957
     10  CA       -18.8460   -8.1180   43.1380 C.3    15  GLY15       0.1869
     11  C        -18.6840   -8.1850   41.6410 C.2    15  GLY15       0.2309
     12  O        -19.5970   -7.7950   40.8960 O.2    15  GLY15      -0.2863
     13  N        -17.8210   -4.9730   44.1320 N.3    22  ILE22      -0.1245
     14  CA       -19.0160   -4.1470   44.3250 C.3    22  ILE22       0.1561
     15  C        -19.8630   -4.7270   45.4330 C.2    22  ILE22       0.2260
     16  O        -20.1200   -5.9220   45.4580 O.2    22  ILE22      -0.2867
     17  CB       -19.8040   -3.8690   42.9930 C.3    22  ILE22       0.0252
     18  CG1      -19.0120   -2.9020   42.0550 C.3    22  ILE22       0.0019
     19  CG2      -21.1670   -3.2390   43.2710 C.3    22  ILE22       0.0019
     20  CD1      -18.0070   -3.4860   41.2130 C.3    22  ILE22       0.0001
     21  N        -24.7080    1.2280   45.8690 N.3    35  ALA35      -0.1245
     22  CA       -23.7090    0.2780   45.3910 C.3    35  ALA35       0.1562
     23  C        -22.3640    0.8970   45.7760 C.2    35  ALA35       0.2260
     24  O        -22.1780    2.1190   45.6600 O.2    35  ALA35      -0.2867
     25  CB       -23.8160    0.0790   43.8860 C.3    35  ALA35       0.0290
     26  N        -18.2430    0.5340   45.3770 N.3    37  LYS37      -0.1245
     27  CA       -17.0820    0.0300   44.6590 C.3    37  LYS37       0.1561
     28  C        -15.9050    0.2420   45.5790 C.2    37  LYS37       0.2260
     29  O        -15.7430    1.3210   46.1400 O.2    37  LYS37      -0.2867
     30  CB       -16.9100    0.7830   43.3250 C.3    37  LYS37       0.0271
     31  CG       -15.7310    0.3260   42.4860 C.3    37  LYS37       0.0035
     32  CD       -15.8680    0.7550   41.0160 C.3    37  LYS37       0.0206
     33  CE       -14.7820    0.0930   40.1940 C.3    37  LYS37       0.1093
     34  NZ       -14.6300    0.6920   38.8450 N.3    37  LYS37      -0.1314
     35  N        -11.9970    8.0080   37.6020 N.3    51  GLU51      -0.1245
     36  CA       -13.3740    7.6700   37.2370 C.3    51  GLU51       0.1567
     37  C        -14.4110    8.5820   37.9220 C.2    51  GLU51       0.2260
     38  O        -15.3390    9.0380   37.2500 O.2    51  GLU51      -0.2867
     39  CB       -13.6490    6.1750   37.5250 C.3    51  GLU51       0.0388
     40  CG       -14.8930    5.6100   36.8570 C.3    51  GLU51       0.1160
     41  CD       -14.9870    4.0950   36.8270 C.2    51  GLU51       0.3649
     42  OE1      -13.9170    3.4480   36.8460 O.co2  51  GLU51      -0.2457
     43  OE2      -16.1170    3.5510   36.7510 O.co2  51  GLU51      -0.2457
     44  N        -17.5390   10.7980   36.1940 N.3    55  TYR55      -0.1241
     45  CA       -18.9300   10.6380   36.6530 C.3    55  TYR55       0.1605
     46  C        -19.5530   11.9570   37.0080 C.2    55  TYR55       0.2264
     47  O        -20.7080   12.1780   36.6580 O.2    55  TYR55      -0.2867
     48  CB       -19.0300    9.7020   37.8740 C.3    55  TYR55       0.0534
     49  CG       -19.1670    8.2370   37.5520 C.ar   55  TYR55      -0.0201
     50  CD1      -20.3390    7.7300   36.9680 C.ar   55  TYR55      -0.0009
     51  CD2      -18.1610    7.3450   37.8770 C.ar   55  TYR55      -0.0009
     52  CE1      -20.4730    6.3770   36.6910 C.ar   55  TYR55       0.0417
     53  CE2      -18.2750    5.9980   37.5830 C.ar   55  TYR55       0.0417
     54  CZ       -19.4230    5.5200   36.9800 C.ar   55  TYR55       0.1957
     55  OH       -19.4980    4.1680   36.7740 O.3    55  TYR55      -0.2866
     56  N        -23.1070    9.9240   41.7140 N.3    67  ILE67      -0.1245
     57  CA       -22.1000    9.5380   42.6970 C.3    67  ILE67       0.1561
     58  C        -22.4310   10.2460   44.0480 C.2    67  ILE67       0.2260
     59  O        -22.4350   11.4750   44.1280 O.2    67  ILE67      -0.2867
     60  CB       -20.6360    9.7100   42.1590 C.3    67  ILE67       0.0252
     61  CG1      -20.3770    8.7150   41.0180 C.3    67  ILE67       0.0019
     62  CG2      -19.5600    9.5410   43.2570 C.3    67  ILE67       0.0019
     63  CD1      -20.4390    7.1360   41.4060 C.3    67  ILE67       0.0001
     64  N        -15.9420    4.3050   46.4970 N.3    79  MET79      -0.1245
     65  CA       -16.9090    5.0670   45.7070 C.3    79  MET79       0.1570
     66  C        -18.3250    4.5300   45.9370 C.2    79  MET79       0.2261
     67  O        -18.5160    3.3230   46.0630 O.2    79  MET79      -0.2867
     68  CB       -16.5460    5.1030   44.2350 C.3    79  MET79       0.0387
     69  CG       -17.2260    6.2550   43.5150 C.3    79  MET79       0.0595
     70  SD       -16.4420    6.7470   41.9700 S.3    79  MET79      -0.1393
     71  CE       -16.8110    5.3920   40.9630 C.3    79  MET79       0.0692
     72  N        -22.3870    4.9090   44.7320 N.3    81  MET81      -0.1230
     73  CA       -23.3080    5.2690   43.6740 C.3    81  MET81       0.1702
     74  C        -24.7090    4.8120   44.1060 C.2    81  MET81       0.2592
     75  O        -24.8490    3.9390   44.9580 O.2    81  MET81      -0.2718
     76  CB       -22.8640    4.4870   42.4330 C.3    81  MET81       0.0401
     77  CG       -23.5320    4.8980   41.1770 C.3    81  MET81       0.0596
     78  SD       -23.1790    3.7070   39.8730 S.3    81  MET81      -0.1393
     79  CE       -21.6570    4.3340   39.3470 C.3    81  MET81       0.0692
     80  N        -25.7320    5.3820   43.5100 N.am   82  GLU82      -0.1966
     81  CA       -27.1020    4.9440   43.7290 C.3    82  GLU82       0.1733
     82  C        -27.2120    3.4870   43.1890 C.2    82  GLU82       0.2616
     83  O        -26.5340    3.1280   42.2240 O.2    82  GLU82      -0.2715
     84  CB       -28.0650    5.8740   42.9830 C.3    82  GLU82       0.0429
     85  CG       -27.7160    6.0760   41.5120 C.3    82  GLU82       0.1163
     86  CD       -28.7720    6.8090   40.7170 C.2    82  GLU82       0.3649
     87  OE1      -28.4510    7.8970   40.1870 O.co2  82  GLU82      -0.2457
     88  OE2      -29.9290    6.3250   40.6590 O.co2  82  GLU82      -0.2457
     89  N        -27.9930    2.6470   43.8520 N.am   83  LEU83      -0.1963
     90  CA       -28.1140    1.2650   43.4360 C.3    83  LEU83       0.1728
     91  C        -28.9400    1.2060   42.1930 C.2    83  LEU83       0.2616
     92  O        -30.0030    1.8450   42.1130 O.2    83  LEU83      -0.2715
     93  CB       -28.7170    0.3610   44.5480 C.3    83  LEU83       0.0311
     94  CG       -28.7880   -1.1830   44.2460 C.3    83  LEU83       0.0022
     95  CD1      -27.3980   -1.8430   44.1820 C.3    83  LEU83       0.0001
     96  CD2      -29.6670   -1.9020   45.2290 C.3    83  LEU83       0.0001
     97  N        -28.4410    0.4480   41.2060 N.am   84  LEU84      -0.1963
     98  CA       -29.1090    0.2150   39.9230 C.3    84  LEU84       0.1728
     99  C        -29.4830   -1.2590   39.8370 C.2    84  LEU84       0.2616
    100  O        -28.9460   -2.0680   40.5900 O.2    84  LEU84      -0.2715
    101  CB       -28.1700    0.6110   38.7470 C.3    84  LEU84       0.0311
    102  CG       -27.7390    2.0630   38.6700 C.3    84  LEU84       0.0022
    103  CD1      -26.6510    2.2520   37.6330 C.3    84  LEU84       0.0001
    104  CD2      -28.9320    2.9620   38.3770 C.3    84  LEU84       0.0001
    105  N        -30.3670   -1.6060   38.9170 N.am   85  GLY85      -0.1955
    106  CA       -30.8320   -2.9720   38.7430 C.3    85  GLY85       0.1869
    107  C        -29.8700   -3.8750   38.0070 C.2    85  GLY85       0.2309
    108  O        -28.6660   -3.6040   37.9510 O.2    85  GLY85      -0.2863
    109  N        -27.7010   -5.8280   35.0070 N.3    87  SER87      -0.1217
    110  CA       -27.0830   -5.3910   33.7500 C.3    87  SER87       0.1889
    111  C        -27.7780   -6.1370   32.6070 C.2    87  SER87       0.2288
    112  O        -28.5210   -7.1030   32.8420 O.2    87  SER87      -0.2866
    113  CB       -25.5710   -5.6550   33.7290 C.3    87  SER87       0.2089
    114  OG       -25.2740   -7.0380   33.7610 O.3    87  SER87      -0.2183
    115  N        -26.2800   -7.9850   30.5260 N.3    89  GLU89      -0.1231
    116  CA       -25.6360   -9.2970   30.5300 C.3    89  GLU89       0.1699
    117  C        -26.3380  -10.2310   31.5380 C.2    89  GLU89       0.2592
    118  O        -26.5020  -11.4170   31.2450 O.2    89  GLU89      -0.2718
    119  CB       -24.1250   -9.1930   30.8120 C.3    89  GLU89       0.0402
    120  CG       -23.3820  -10.5160   30.6470 C.3    89  GLU89       0.1161
    121  CD       -23.3950  -11.1180   29.2520 C.2    89  GLU89       0.3649
    122  OE1      -23.5770  -10.3900   28.2500 O.co2  89  GLU89      -0.2457
    123  OE2      -23.2310  -12.3520   29.1710 O.co2  89  GLU89      -0.2457
    124  N        -26.7750   -9.6860   32.6990 N.am   90  ASP90      -0.1974
    125  CA       -27.5440  -10.4370   33.7070 C.3    90  ASP90       0.1709
    126  C        -28.8790  -10.8480   33.1100 C.2    90  ASP90       0.2293
    127  O        -29.2480  -12.0220   33.1560 O.2    90  ASP90      -0.2864
    128  CB       -27.8100   -9.5760   34.9610 C.3    90  ASP90       0.1436
    129  CG       -26.6150   -9.2430   35.8200 C.2    90  ASP90       0.3671
    130  OD1      -25.6440  -10.0200   35.8090 O.co2  90  ASP90      -0.2456
    131  OD2      -26.6740   -8.2320   36.5510 O.co2  90  ASP90      -0.2456
    132  N        -22.4190   -5.6200   29.9620 N.3   131  ASP131     -0.1225
    133  CA       -22.1300   -5.5720   31.4010 C.3   131  ASP131      0.1805
    134  C        -22.1510   -4.1450   31.9400 C.2   131  ASP131      0.2597
    135  O        -22.3680   -3.9450   33.1450 O.2   131  ASP131     -0.2718
    136  CB       -20.7280   -6.1750   31.6730 C.3   131  ASP131      0.1424
    137  CG       -20.4020   -7.4950   31.0190 C.2   131  ASP131      0.3668
    138  OD1      -20.4060   -7.5600   29.7660 O.co2 131  ASP131     -0.2456
    139  OD2      -20.0660   -8.4430   31.7440 O.co2 131  ASP131     -0.2456
    140  N        -21.8700   -3.1590   31.0460 N.am  132  ASN132     -0.1974
    141  CA       -21.7740   -1.7270   31.3760 C.3   132  ASN132      0.1688
    142  C        -23.0720   -0.9840   31.2120 C.2   132  ASN132      0.2292
    143  O        -23.0980    0.2130   31.4350 O.2   132  ASN132     -0.2864
    144  CB       -20.6050   -1.0480   30.6040 C.3   132  ASN132      0.1181
    145  CG       -19.2740   -1.4960   31.1880 C.2   132  ASN132      0.2629
    146  OD1      -19.2120   -1.8930   32.3440 O.2   132  ASN132     -0.2716
    147  ND2      -18.2160   -1.5450   30.4050 N.am  132  ASN132     -0.0877
    148  N        -26.9660   -0.9130   32.6980 N.3   134  LEU134     -0.1245
    149  CA       -27.8170   -1.4040   33.8030 C.3   134  LEU134      0.1561
    150  C        -29.2070   -0.8160   33.7670 C.2   134  LEU134      0.2260
    151  O        -29.3580    0.3300   33.3970 O.2   134  LEU134     -0.2867
    152  CB       -27.1590   -1.0920   35.1690 C.3   134  LEU134      0.0270
    153  CG       -26.1850   -2.1490   35.7270 C.3   134  LEU134      0.0019
    154  CD1      -24.9200   -2.2550   34.8870 C.3   134  LEU134      0.0001
    155  CD2      -25.7850   -1.8280   37.1460 C.3   134  LEU134      0.0001
    156  N        -22.5960    2.7550   32.7250 N.3   147  ILE147     -0.1231
    157  CA       -21.6560    2.8270   33.8340 C.3   147  ILE147      0.1692
    158  C        -20.2400    2.5460   33.3340 C.2   147  ILE147      0.2592
    159  O        -20.0490    2.2500   32.1590 O.2   147  ILE147     -0.2718
    160  CB       -22.0900    1.9080   35.0380 C.3   147  ILE147      0.0266
    161  CG1      -22.0730    0.4110   34.6700 C.3   147  ILE147      0.0019
    162  CG2      -23.4870    2.3090   35.5990 C.3   147  ILE147      0.0020
    163  CD1      -21.7490   -0.4700   35.7950 C.3   147  ILE147      0.0001
    164  N        -19.2590    2.6550   34.2320 N.am  148  ASP148     -0.1974
    165  CA       -17.8420    2.3120   34.0810 C.3   148  ASP148      0.1709
    166  C        -17.0470    3.1880   33.1250 C.2   148  ASP148      0.2293
    167  O        -16.8540    2.8670   31.9540 O.2   148  ASP148     -0.2864
    168  CB       -17.6540    0.8410   33.7280 C.3   148  ASP148      0.1436
    169  CG       -16.5410    0.1970   34.4990 C.2   148  ASP148      0.3671
    170  OD1      -15.3810    0.7170   34.4270 O.co2 148  ASP148     -0.2456
    171  OD2      -16.8150   -0.8180   35.1920 O.co2 148  ASP148     -0.2456
@<TRIPOS>BOND
     1   122   121   ar
     2   123   121   ar
     3   121   120    1
     4   138   137   ar
     5   132   133    1
     6   147   145   am
     7   115   116    1
     8   116   119    1
     9   116   117    1
    10   144   145    1
    11   144   141    1
    12   120   119    1
    13   137   136    1
    14   137   139   ar
    15   140   141    1
    16   140   134   am
    17   145   146    2
    18   142   141    1
    19   142   143    2
    20   118   117    2
    21   133   136    1
    22   133   134    1
    23   117   124   am
    24   134   135    2
    25   167   166    2
    26   159   158    2
    27   111   112    2
    28   111   110    1
    29   148   149    1
    30   124   125    1
    31   156   157    1
    32   126   127    2
    33   126   125    1
    34   166   165    1
    35   158   157    1
    36   158   164   am
    37   151   150    2
    38   125   128    1
    39   168   165    1
    40   168   169    1
    41   113   110    1
    42   113   114    1
    43   110   109    1
    44   150   149    1
    45   149   152    1
    46   157   160    1
    47   165   164    1
    48   170   169   ar
    49   169   171   ar
    50   161   160    1
    51   161   163    1
    52   154   153    1
    53   128   129    1
    54   160   162    1
    55   152   153    1
    56   153   155    1
    57   130   129   ar
    58   129   131   ar
    59    44    45    1
    60    45    46    1
    61    45    48    1
    62    47    46    2
    63    52    50   ar
    64    52    54   ar
    65    43    41   ar
    66    55    54    1
    67    41    42   ar
    68    41    40    1
    69    40    39    1
    70    50    49   ar
    71    54    53   ar
    72    36    39    1
    73    36    35    1
    74    36    37    1
    75    38    37    2
    76    49    48    1
    77    49    51   ar
    78    53    51   ar
    79   103   102    1
    80   108   107    2
    81   107   106    1
    82   104   102    1
    83   102   101    1
    84   106   105    1
    85   101    98    1
    86    34    33    1
    87   105    99   am
    88    79    78    1
    89    99    98    1
    90    99   100    2
    91    78    77    1
    92    98    97    1
    93    87    86   ar
    94    33    32    1
    95    88    86   ar
    96    86    85    1
    97    12    11    2
    98    71    70    1
    99    32    31    1
   100    61    63    1
   101    61    60    1
   102    77    76    1
   103    97    91   am
   104    20    18    1
   105    85    84    1
   106    11    10    1
   107    56    57    1
   108    70    69    1
   109    18    17    1
   110    92    91    2
   111    60    57    1
   112    60    62    1
   113    91    90    1
   114    83    82    2
   115     4     3    2
   116    76    73    1
   117    31    30    1
   118    57    58    1
   119    84    81    1
   120    17    19    1
   121    17    14    1
   122    10     9    1
   123    82    81    1
   124    82    89   am
   125     3     9   am
   126     3     2    1
   127    30    27    1
   128    90    89    1
   129    90    93    1
   130    80    81    1
   131    80    74   am
   132    69    68    1
   133    73    74    1
   134    73    72    1
   135     6     5    1
   136     6     8    1
   137     5     2    1
   138     5     7    1
   139    25    22    1
   140    58    59    2
   141    74    75    2
   142    13    14    1
   143    95    94    1
   144    68    65    1
   145    94    93    1
   146    94    96    1
   147     2     1    1
   148    14    15    1
   149    27    26    1
   150    27    28    1
   151    22    23    1
   152    22    21    1
   153    15    16    2
   154    28    29    2
   155    24    23    2
   156    65    66    1
   157    65    64    1
   158    66    67    2
