@<TRIPOS>MOLECULE
tmp/4tn7C01.pdb
 126 115 0 0 0
SMALL
GASTEIGER

@<TRIPOS>ATOM
      1  N         22.4570   24.6130   11.6530 N.3   107  ASN107     -0.1240
      2  CA        21.1590   23.9510   11.6580 C.3   107  ASN107      0.1653
      3  C         20.0550   24.8870   12.1390 C.2   107  ASN107      0.2266
      4  O         20.1820   25.5250   13.1820 O.2   107  ASN107     -0.2867
      5  CB        21.2070   22.7000   12.5390 C.3   107  ASN107      0.1155
      6  CG        20.0760   21.7330   12.2480 C.2   107  ASN107      0.2627
      7  OD1       19.1400   22.0530   11.5160 O.2   107  ASN107     -0.2716
      8  ND2       20.1560   20.5400   12.8260 N.am  107  ASN107     -0.0877
      9  N         16.3240   24.7670   13.3820 N.3   109  ILE109     -0.1245
     10  CA        15.2590   23.8820   13.8380 C.3   109  ILE109      0.1561
     11  C         14.1830   24.6330   14.6040 C.2   109  ILE109      0.2260
     12  O         13.3000   24.0170   15.1990 O.2   109  ILE109     -0.2867
     13  CB        15.8020   22.7660   14.7450 C.3   109  ILE109      0.0252
     14  CG1       16.3550   23.3670   16.0380 C.3   109  ILE109      0.0019
     15  CG2       16.8640   21.9540   14.0210 C.3   109  ILE109      0.0019
     16  CD1       16.8930   22.3470   17.0060 C.3   109  ILE109      0.0001
     17  N         12.0990   23.3090    9.7310 N.3   166  LEU166     -0.1245
     18  CA        13.4610   22.9160   10.0690 C.3   166  LEU166      0.1561
     19  C         14.3020   22.6990    8.8150 C.2   166  LEU166      0.2260
     20  O         13.9910   21.8500    7.9810 O.2   166  LEU166     -0.2867
     21  CB        13.4620   21.6500   10.9290 C.3   166  LEU166      0.0270
     22  CG        12.5820   21.6790   12.1810 C.3   166  LEU166      0.0019
     23  CD1       11.2050   21.0990   11.8880 C.3   166  LEU166      0.0001
     24  CD2       13.2520   20.9440   13.3320 C.3   166  LEU166      0.0001
     25  N         18.0240   21.7230    7.4950 N.3   168  SER168     -0.1217
     26  CA        19.2670   21.0930    7.9180 C.3   168  SER168      0.1889
     27  C         20.1360   20.6860    6.7330 C.2   168  SER168      0.2288
     28  O         19.6530   20.0830    5.7750 O.2   168  SER168     -0.2866
     29  CB        18.9660   19.8700    8.7850 C.3   168  SER168      0.2089
     30  OG        18.0400   20.1920    9.8080 O.3   168  SER168     -0.2183
     31  N         21.7820   16.8470   16.0670 N.3   174  THR174     -0.1218
     32  CA        21.1480   17.4220   17.2460 C.3   174  THR174      0.1862
     33  C         21.2560   16.4340   18.4010 C.2   174  THR174      0.2287
     34  O         20.6310   15.3740   18.3770 O.2   174  THR174     -0.2866
     35  CB        19.6650   17.7680   16.9980 C.3   174  THR174      0.1770
     36  OG1       19.5570   18.6760   15.8950 O.3   174  THR174     -0.2211
     37  CG2       19.0500   18.4040   18.2360 C.3   174  THR174      0.0375
     38  N         17.8690   15.1280   23.7450 N.3   177  HIS177     -0.1241
     39  CA        17.0970   16.1650   24.4120 C.3   177  HIS177      0.1621
     40  C         15.6200   15.8180   24.4440 C.2   177  HIS177      0.2264
     41  O         15.1580   14.9470   23.7080 O.2   177  HIS177     -0.2867
     42  CB        17.2760   17.5030   23.6990 C.3   177  HIS177      0.0745
     43  CG        16.6380   17.5410   22.3460 C.ar  177  HIS177      0.0817
     44  ND1       17.3050   17.1690   21.1990 N.ar  177  HIS177     -0.2268
     45  CD2       15.3860   17.8830   21.9600 C.ar  177  HIS177      0.1154
     46  CE1       16.4940   17.2900   20.1620 C.ar  177  HIS177      0.1986
     47  NE2       15.3240   17.7220   20.5980 N.ar  177  HIS177     -0.2212
     48  N         11.8900   17.7260   24.0400 N.3   179  ASP179     -0.1239
     49  CA        11.2400   18.9570   23.6050 C.3   179  ASP179      0.1674
     50  C         10.5360   19.6490   24.7670 C.2   179  ASP179      0.2266
     51  O         10.0320   18.9960   25.6820 O.2   179  ASP179     -0.2867
     52  CB        10.2590   18.6710   22.4700 C.3   179  ASP179      0.1410
     53  CG        10.9600   18.2260   21.1960 C.2   179  ASP179      0.3668
     54  OD1       11.8020   17.3050   21.2670 O.co2 179  ASP179     -0.2456
     55  OD2       10.6780   18.8050   20.1260 O.co2 179  ASP179     -0.2456
     56  N          5.4070   15.7000   19.5570 N.3   185  VAL185     -0.1245
     57  CA         5.8740   16.2900   18.3070 C.3   185  VAL185      0.1561
     58  C          5.3840   15.5470   17.0670 C.2   185  VAL185      0.2260
     59  O          5.4100   14.3180   17.0140 O.2   185  VAL185     -0.2867
     60  CB         7.4160   16.3380   18.2610 C.3   185  VAL185      0.0252
     61  CG1        7.8880   17.1330   17.0500 C.3   185  VAL185      0.0019
     62  CG2        7.9700   16.9310   19.5460 C.3   185  VAL185      0.0019
     63  N          6.2000   15.2750   12.9470 N.3   187  TYR187     -0.1241
     64  CA         7.4330   15.4860   12.2020 C.3   187  TYR187      0.1605
     65  C          7.3170   14.9590   10.7750 C.2   187  TYR187      0.2264
     66  O          7.3920   13.7520   10.5420 O.2   187  TYR187     -0.2867
     67  CB         8.5880   14.8070   12.9420 C.3   187  TYR187      0.0534
     68  CG         9.9720   15.3170   12.6130 C.ar  187  TYR187     -0.0201
     69  CD1       10.5490   16.3480   13.3450 C.ar  187  TYR187     -0.0009
     70  CD2       10.7160   14.7440   11.5920 C.ar  187  TYR187     -0.0009
     71  CE1       11.8230   16.8060   13.0540 C.ar  187  TYR187      0.0417
     72  CE2       11.9870   15.1940   11.2940 C.ar  187  TYR187      0.0417
     73  CZ        12.5370   16.2230   12.0260 C.ar  187  TYR187      0.1957
     74  OH        13.8050   16.6650   11.7220 O.3   187  TYR187     -0.2866
     75  N         15.9580   11.9240    7.8550 N.3   194  LYS194     -0.1245
     76  CA        16.5110   12.0980    9.1940 C.3   194  LYS194      0.1561
     77  C         16.7990   10.7580    9.8660 C.2   194  LYS194      0.2260
     78  O         16.1180    9.7640    9.6110 O.2   194  LYS194     -0.2867
     79  CB        15.5540   12.9180   10.0650 C.3   194  LYS194      0.0271
     80  CG        15.4220   14.3820    9.6630 C.3   194  LYS194      0.0035
     81  CD        16.6680   15.1710   10.0300 C.3   194  LYS194      0.0206
     82  CE        16.4810   16.6580    9.7660 C.3   194  LYS194      0.1093
     83  NZ        17.6590   17.4560   10.2080 N.3   194  LYS194     -0.1314
     84  N         17.0140    9.0800   13.6030 N.3   196  PHE196     -0.1241
     85  CA        16.6350    9.3120   14.9910 C.3   196  PHE196      0.1605
     86  C         17.1740    8.2470   15.9420 C.2   196  PHE196      0.2264
     87  O         17.1370    7.0550   15.6420 O.2   196  PHE196     -0.2867
     88  CB        15.1100    9.3750   15.1150 C.3   196  PHE196      0.0534
     89  CG        14.5250   10.7190   14.7880 C.ar  196  PHE196     -0.0203
     90  CD1       14.4400   11.1580   13.4760 C.ar  196  PHE196     -0.0042
     91  CD2       14.0400   11.5370   15.7950 C.ar  196  PHE196     -0.0042
     92  CE1       13.8950   12.3950   13.1780 C.ar  196  PHE196     -0.0003
     93  CE2       13.4910   12.7730   15.5040 C.ar  196  PHE196     -0.0003
     94  CZ        13.4190   13.2030   14.1950 C.ar  196  PHE196     -0.0000
     95  N          6.2590   11.9540   17.9430 N.3   243  ILE243     -0.1245
     96  CA         7.0090   11.6440   19.1550 C.3   243  ILE243      0.1561
     97  C          6.1710   11.8930   20.4060 C.2   243  ILE243      0.2260
     98  O          5.6940   13.0060   20.6260 O.2   243  ILE243     -0.2867
     99  CB         8.3010   12.4810   19.2420 C.3   243  ILE243      0.0252
    100  CG1        9.0870   12.3890   17.9330 C.3   243  ILE243      0.0019
    101  CG2        9.1480   12.0370   20.4250 C.3   243  ILE243      0.0019
    102  CD1       10.2810   13.3200   17.8720 C.3   243  ILE243      0.0001
    103  N         15.5350   12.0030   22.4860 N.3   249  HIS249     -0.1241
    104  CA        15.9540   11.6860   21.1250 C.3   249  HIS249      0.1621
    105  C         17.0670   12.5900   20.5990 C.2   249  HIS249      0.2264
    106  O         17.1450   13.7730   20.9340 O.2   249  HIS249     -0.2867
    107  CB        14.7520   11.7540   20.1760 C.3   249  HIS249      0.0745
    108  CG        14.0370   13.0660   20.2020 C.ar  249  HIS249      0.0817
    109  ND1       13.1500   13.4110   21.2030 N.ar  249  HIS249     -0.2268
    110  CD2       14.0750   14.1240   19.3570 C.ar  249  HIS249      0.1154
    111  CE1       12.6760   14.6210   20.9700 C.ar  249  HIS249      0.1986
    112  NE2       13.2200   15.0750   19.8540 N.ar  249  HIS249     -0.2212
    113  N         19.1630   13.4510   16.7260 N.3   251  VAL251     -0.1245
    114  CA        18.8650   13.3970   15.3000 C.3   251  VAL251      0.1561
    115  C         20.0700   13.7440   14.4290 C.2   251  VAL251      0.2260
    116  O         20.7860   14.7130   14.6880 O.2   251  VAL251     -0.2867
    117  CB        17.7080   14.3440   14.9440 C.3   251  VAL251      0.0252
    118  CG1       17.4170   14.2850   13.4570 C.3   251  VAL251      0.0019
    119  CG2       16.4690   13.9870   15.7480 C.3   251  VAL251      0.0019
    120  N         21.4850   14.2700   10.2770 N.3   253  THR253     -0.1218
    121  CA        21.0320   14.6410    8.9430 C.3   253  THR253      0.1862
    122  C         21.9820   14.0980    7.8770 C.2   253  THR253      0.2287
    123  O         23.0360   14.6800    7.6250 O.2   253  THR253     -0.2866
    124  CB        20.9140   16.1700    8.7990 C.3   253  THR253      0.1770
    125  OG1       20.1330   16.6970    9.8800 O.3   253  THR253     -0.2211
    126  CG2       20.2570   16.5330    7.4810 C.3   253  THR253      0.0375
@<TRIPOS>BOND
     1    28    27    2
     2    27    26    1
     3   126   124    1
     4    25    26    1
     5   123   122    2
     6    75    76    1
     7   122   121    1
     8    26    29    1
     9    20    19    2
    10    29    30    1
    11   124   121    1
    12   124   125    1
    13    19    18    1
    14   121   120    1
    15    76    77    1
    16    76    79    1
    17    78    77    2
    18    80    81    1
    19    80    79    1
    20    17    18    1
    21    82    81    1
    22    82    83    1
    23    18    21    1
    24    66    65    2
    25    65    64    1
    26    21    22    1
    27    72    70   ar
    28    72    73   ar
    29     7     6    2
    30    70    68   ar
    31     1     2    1
    32     2     3    1
    33     2     5    1
    34    74    73    1
    35    23    22    1
    36    73    71   ar
    37     3     4    2
    38    22    24    1
    39    64    67    1
    40    64    63    1
    41     6     5    1
    42     6     8   am
    43    68    67    1
    44    68    69   ar
    45    71    69   ar
    46    92    90   ar
    47    92    94   ar
    48     9    10    1
    49   118   117    1
    50    90    89   ar
    51    84    85    1
    52    10    11    1
    53    10    13    1
    54    15    13    1
    55    94    93   ar
    56   115   116    2
    57   115   114    1
    58    11    12    2
    59    13    14    1
    60    89    88    1
    61    89    91   ar
    62   117   114    1
    63   117   119    1
    64    85    88    1
    65    85    86    1
    66   114   113    1
    67    93    91   ar
    68    87    86    2
    69    36    35    1
    70    14    16    1
    71    31    32    1
    72    35    32    1
    73    35    37    1
    74    59    58    2
    75    61    60    1
    76    58    57    1
    77    32    33    1
    78   102   100    1
    79   100    99    1
    80    95    96    1
    81    60    57    1
    82    60    62    1
    83    57    56    1
    84    34    33    2
    85    96    99    1
    86    96    97    1
    87    99   101    1
    88   110   112   ar
    89   110   108   ar
    90   112   111   ar
    91    55    53   ar
    92    46    47   ar
    93    46    44   ar
    94   107   108    1
    95   107   104    1
    96   108   109   ar
    97    97    98    2
    98    47    45   ar
    99   105   106    2
   100   105   104    1
   101   111   109   ar
   102   104   103    1
   103    53    54   ar
   104    53    52    1
   105    44    43   ar
   106    45    43   ar
   107    43    42    1
   108    52    49    1
   109    49    48    1
   110    49    50    1
   111    42    39    1
   112    41    40    2
   113    38    39    1
   114    39    40    1
   115    50    51    2
