@<TRIPOS>MOLECULE
tmp/4tnbA00.pdb
 146 135 0 0 0
SMALL
GASTEIGER

@<TRIPOS>ATOM
      1  N         35.2040  -33.0180   28.7690 N.3   178  LEU178     -0.1231
      2  CA        33.9630  -33.0790   29.5350 C.3   178  LEU178      0.1693
      3  C         33.4720  -34.4870   29.8110 C.2   178  LEU178      0.2593
      4  O         32.7140  -34.7130   30.7530 O.2   178  LEU178     -0.2718
      5  CB        32.8660  -32.3150   28.7860 C.3   178  LEU178      0.0284
      6  CG        33.2110  -30.8570   28.5340 C.3   178  LEU178      0.0019
      7  CD1       32.0500  -30.1520   27.8940 C.3   178  LEU178      0.0001
      8  CD2       33.5930  -30.2170   29.8700 C.3   178  LEU178      0.0001
      9  N         33.9370  -35.4370   29.0110 N.am  179  GLY179     -0.1942
     10  CA        33.3770  -36.7730   29.0430 C.3   179  GLY179      0.2014
     11  C         33.8170  -37.5920   27.8530 C.2   179  GLY179      0.2639
     12  O         34.4310  -37.0670   26.9260 O.2   179  GLY179     -0.2714
     13  N         33.5100  -38.8850   27.8840 N.am  180  LYS180     -0.1963
     14  CA        34.0650  -39.8140   26.9200 C.3   180  LYS180      0.1728
     15  C         33.0460  -40.9000   26.6250 C.2   180  LYS180      0.2616
     16  O         32.3850  -41.3740   27.5500 O.2   180  LYS180     -0.2715
     17  CB        35.3590  -40.4030   27.4800 C.3   180  LYS180      0.0311
     18  CG        36.3610  -40.8430   26.4740 C.3   180  LYS180      0.0038
     19  CD        37.6410  -41.2940   27.1690 C.3   180  LYS180      0.0206
     20  CE        38.7040  -40.2050   27.1660 C.3   180  LYS180      0.1093
     21  NZ        40.0830  -40.7760   27.2930 N.3   180  LYS180     -0.1314
     22  N         32.9160  -41.2800   25.3490 N.am  181  GLY181     -0.1955
     23  CA        32.0270  -42.3630   24.9410 C.3   181  GLY181      0.1869
     24  C         31.5410  -42.3290   23.4940 C.2   181  GLY181      0.2309
     25  O         31.8290  -41.3960   22.7420 O.2   181  GLY181     -0.2863
     26  N         34.1020  -35.7940   24.4520 N.3   186  VAL186     -0.1245
     27  CA        33.5310  -34.4710   24.4520 C.3   186  VAL186      0.1561
     28  C         34.4350  -33.5550   25.2530 C.2   186  VAL186      0.2260
     29  O         34.8520  -33.9030   26.3470 O.2   186  VAL186     -0.2867
     30  CB        32.1150  -34.4820   25.0510 C.3   186  VAL186      0.0252
     31  CG1       31.5630  -33.0780   25.1470 C.3   186  VAL186      0.0019
     32  CG2       31.1920  -35.3570   24.2150 C.3   186  VAL186      0.0019
     33  N         30.0390  -27.4240   23.9400 N.3   199  ALA199     -0.1245
     34  CA        30.6310  -28.7510   24.0210 C.3   199  ALA199      0.1562
     35  C         31.0020  -29.2560   22.6190 C.2   199  ALA199      0.2260
     36  O         30.1660  -29.2900   21.7220 O.2   199  ALA199     -0.2867
     37  CB        29.6790  -29.7180   24.7060 C.3   199  ALA199      0.0290
     38  N         31.7260  -32.3140   20.4820 N.3   201  LYS201     -0.1245
     39  CA        31.6110  -33.7560   20.4220 C.3   201  LYS201      0.1561
     40  C         32.4890  -34.2160   19.2610 C.2   201  LYS201      0.2260
     41  O         32.2210  -33.8960   18.1070 O.2   201  LYS201     -0.2867
     42  CB        30.1460  -34.1890   20.2420 C.3   201  LYS201      0.0271
     43  CG        29.8970  -35.6750   20.3610 C.3   201  LYS201      0.0035
     44  CD        28.4070  -35.9940   20.1900 C.3   201  LYS201      0.0206
     45  CE        28.1770  -37.4870   20.1870 C.3   201  LYS201      0.1093
     46  NZ        26.7690  -37.8730   19.8880 N.3   201  LYS201     -0.1314
     47  N         19.6350  -30.5930   22.7620 N.3   233  VAL233     -0.1245
     48  CA        20.9060  -29.9360   22.4710 C.3   233  VAL233      0.1561
     49  C         20.8520  -29.3690   21.0510 C.2   233  VAL233      0.2260
     50  O         20.3740  -30.0310   20.1140 O.2   233  VAL233     -0.2867
     51  CB        22.1130  -30.8940   22.6390 C.3   233  VAL233      0.0252
     52  CG1       22.3060  -31.2350   24.1250 C.3   233  VAL233      0.0019
     53  CG2       21.9180  -32.1560   21.8360 C.3   233  VAL233      0.0019
     54  N         28.0130  -28.6020   20.1400 N.3   249  LEU249     -0.1231
     55  CA        26.6760  -28.6340   20.7030 C.3   249  LEU249      0.1693
     56  C         26.5480  -27.6790   21.8770 C.2   249  LEU249      0.2593
     57  O         27.5610  -27.2050   22.4010 O.2   249  LEU249     -0.2718
     58  CB        26.3400  -30.0570   21.1880 C.3   249  LEU249      0.0284
     59  CG        26.6690  -31.2720   20.3320 C.3   249  LEU249      0.0019
     60  CD1       26.4580  -32.5450   21.1290 C.3   249  LEU249      0.0001
     61  CD2       25.7970  -31.2820   19.0900 C.3   249  LEU249      0.0001
     62  N         25.3170  -27.5140   22.3650 N.am  250  THR250     -0.1939
     63  CA        25.0340  -26.8230   23.6330 C.3   250  THR250      0.2028
     64  C         25.8110  -27.4680   24.7760 C.2   250  THR250      0.2642
     65  O         25.7390  -28.6870   24.9550 O.2   250  THR250     -0.2714
     66  CB        23.5390  -26.8790   23.9930 C.3   250  THR250      0.1808
     67  OG1       22.7450  -26.4320   22.8850 O.3   250  THR250     -0.2208
     68  CG2       23.2450  -26.0260   25.2330 C.3   250  THR250      0.0379
     69  N         26.5450  -26.6780   25.5580 N.am  251  ILE251     -0.1963
     70  CA        27.3320  -27.2810   26.6200 C.3   251  ILE251      0.1727
     71  C         26.3660  -27.5500   27.7610 C.2   251  ILE251      0.2616
     72  O         25.6580  -26.6520   28.2130 O.2   251  ILE251     -0.2715
     73  CB        28.5410  -26.3940   27.0350 C.3   251  ILE251      0.0290
     74  CG1       29.3970  -27.0890   28.0940 C.3   251  ILE251      0.0022
     75  CG2       28.1120  -24.9990   27.5080 C.3   251  ILE251      0.0023
     76  CD1       30.7410  -26.3990   28.2950 C.3   251  ILE251      0.0001
     77  N         26.2270  -28.8180   28.1200 N.am  252  MET252     -0.1963
     78  CA        25.4330  -29.1740   29.2770 C.3   252  MET252      0.1736
     79  C         26.2900  -29.8860   30.2890 C.2   252  MET252      0.2616
     80  O         26.3620  -31.1110   30.2460 O.2   252  MET252     -0.2715
     81  CB        24.3060  -30.0930   28.8490 C.3   252  MET252      0.0427
     82  CG        23.5140  -29.5630   27.6670 C.3   252  MET252      0.0599
     83  SD        22.3160  -28.3440   28.2350 S.3   252  MET252     -0.1393
     84  CE        21.2650  -29.3890   29.2510 C.3   252  MET252      0.0692
     85  N         26.8340  -29.1580   31.2550 N.am  253  ASN253     -0.1972
     86  CA        27.7970  -29.7450   32.1930 C.3   253  ASN253      0.1688
     87  C         27.2560  -30.1010   33.5710 C.2   253  ASN253      0.2292
     88  O         28.0420  -30.3620   34.4800 O.2   253  ASN253     -0.2864
     89  CB        29.0230  -28.8420   32.3670 C.3   253  ASN253      0.1181
     90  CG        30.2910  -29.6380   32.7420 C.2   253  ASN253      0.2629
     91  OD1       30.4380  -30.8160   32.3840 O.2   253  ASN253     -0.2716
     92  ND2       31.2060  -28.9920   33.4620 N.am  253  ASN253     -0.0877
     93  N         25.8810  -32.7120   34.5920 N.3   255  GLY255     -0.1210
     94  CA        25.8120  -34.1530   34.8020 C.3   255  GLY255      0.1956
     95  C         24.5940  -34.7650   34.1120 C.2   255  GLY255      0.2611
     96  O         23.6810  -34.0360   33.7340 O.2   255  GLY255     -0.2717
     97  N         24.5640  -36.0880   33.9370 N.am  256  ASP256     -0.1973
     98  CA        23.4050  -36.7140   33.2990 C.3   256  ASP256      0.1709
     99  C         22.4440  -37.3140   34.3320 C.2   256  ASP256      0.2293
    100  O         22.7840  -37.4180   35.5170 O.2   256  ASP256     -0.2864
    101  CB        23.8580  -37.7870   32.3060 C.3   256  ASP256      0.1436
    102  CG        24.6020  -38.9430   32.9720 C.2   256  ASP256      0.3671
    103  OD1       25.8460  -38.9590   32.9300 O.co2 256  ASP256     -0.2456
    104  OD2       23.9480  -39.8450   33.5370 O.co2 256  ASP256     -0.2456
    105  N         20.9280  -41.6050   30.9130 N.3   301  GLU301     -0.1245
    106  CA        22.2470  -41.0850   30.5330 C.3   301  GLU301      0.1567
    107  C         22.1830  -40.1340   29.3450 C.2   301  GLU301      0.2260
    108  O         23.1220  -39.3770   29.1210 O.2   301  GLU301     -0.2867
    109  CB        23.2230  -42.2150   30.1970 C.3   301  GLU301      0.0388
    110  CG        23.0650  -43.4560   31.0420 C.3   301  GLU301      0.1160
    111  CD        22.0400  -44.4210   30.4740 C.2   301  GLU301      0.3649
    112  OE1       20.9060  -44.4890   31.0130 O.co2 301  GLU301     -0.2457
    113  OE2       22.3810  -45.1090   29.4840 O.co2 301  GLU301     -0.2457
    114  N         20.8040  -34.6350   29.8840 N.3   304  LEU304     -0.1245
    115  CA        21.8690  -33.8810   30.5440 C.3   304  LEU304      0.1561
    116  C         21.3340  -32.6130   31.2130 C.2   304  LEU304      0.2260
    117  O         20.3530  -32.0450   30.7630 O.2   304  LEU304     -0.2867
    118  CB        22.9790  -33.5040   29.5450 C.3   304  LEU304      0.0270
    119  CG        23.6330  -34.5750   28.6580 C.3   304  LEU304      0.0019
    120  CD1       24.7050  -33.9640   27.7870 C.3   304  LEU304      0.0001
    121  CD2       24.2170  -35.7520   29.4490 C.3   304  LEU304      0.0001
    122  N         19.9920  -35.3150   24.7110 N.3   314  SER314     -0.1202
    123  CA        21.2110  -35.3300   23.9040 C.3   314  SER314      0.2020
    124  C         21.3150  -36.6100   23.0920 C.2   314  SER314      0.2618
    125  O         20.4890  -37.5120   23.2450 O.2   314  SER314     -0.2717
    126  CB        22.4540  -35.1930   24.7850 C.3   314  SER314      0.2103
    127  OG        22.5720  -36.3150   25.6370 O.3   314  SER314     -0.2182
    128  N         22.3540  -36.6860   22.2610 N.am  315  ASP315     -0.1973
    129  CA        22.6800  -37.8820   21.4800 C.3   315  ASP315      0.1709
    130  C         21.5250  -38.3940   20.6170 C.2   315  ASP315      0.2293
    131  O         20.8820  -39.4090   20.9010 O.2   315  ASP315     -0.2864
    132  CB        23.2220  -38.9670   22.4060 C.3   315  ASP315      0.1436
    133  CG        24.6770  -38.7230   22.7670 C.2   315  ASP315      0.3671
    134  OD1       25.2320  -37.6760   22.3400 O.co2 315  ASP315     -0.2456
    135  OD2       25.2650  -39.5560   23.4800 O.co2 315  ASP315     -0.2456
    136  N         29.7190  -31.0170   36.4040 N.3   456  ARG456     -0.1245
    137  CA        30.5740  -32.1960   36.3170 C.3   456  ARG456      0.1563
    138  C         32.0340  -31.8150   36.0860 C.2   456  ARG456      0.2260
    139  O         32.3390  -30.9190   35.3010 O.2   456  ARG456     -0.2867
    140  CB        30.0930  -33.1420   35.2040 C.3   456  ARG456      0.0307
    141  CG        30.7560  -34.5190   35.2460 C.3   456  ARG456      0.0489
    142  CD        30.3610  -35.4280   34.0860 C.3   456  ARG456      0.2205
    143  NE        28.9850  -35.9120   34.1670 N.pl3 456  ARG456     -0.0865
    144  CZ        28.5120  -36.7020   35.1350 C.cat 456  ARG456      0.5346
    145  NH1       29.2870  -37.1140   36.1390 N.pl3 456  ARG456      0.1354
    146  NH2       27.2430  -37.0860   35.1040 N.pl3 456  ARG456      0.1354
@<TRIPOS>BOND
     1    41    40    2
     2    61    59    1
     3    40    39    1
     4    46    45    1
     5    50    49    2
     6    54    55    1
     7    45    44    1
     8    44    43    1
     9    42    43    1
    10    42    39    1
    11    59    60    1
    12    59    58    1
    13    39    38    1
    14   130   131    2
    15   130   129    1
    16    55    58    1
    17    55    56    1
    18    49    48    1
    19   129   128    1
    20   129   132    1
    21    36    35    2
    22    53    51    1
    23    56    62   am
    24    56    57    2
    25   128   124   am
    26   134   133   ar
    27    62    63    1
    28   132   133    1
    29    48    51    1
    30    48    47    1
    31    35    34    1
    32    51    52    1
    33    25    24    2
    34   133   135   ar
    35    67    66    1
    36   124   125    2
    37   124   123    1
    38    24    23    1
    39    63    66    1
    40    63    64    1
    41   123   122    1
    42   123   126    1
    43    33    34    1
    44    66    68    1
    45    34    37    1
    46    32    30    1
    47    27    26    1
    48    27    30    1
    49    27    28    1
    50    64    65    2
    51    64    69   am
    52   126   127    1
    53    23    22    1
    54    30    31    1
    55    28    29    2
    56    22    15   am
    57    69    70    1
    58    18    19    1
    59    18    17    1
    60    70    73    1
    61    70    71    1
    62    15    14    1
    63    15    16    2
    64    14    17    1
    65    14    13    1
    66    12    11    2
    67    73    75    1
    68    73    74    1
    69    20    19    1
    70    20    21    1
    71    82    83    1
    72    82    81    1
    73    71    77   am
    74    71    72    2
    75   120   119    1
    76    11    13   am
    77    11    10    1
    78     7     6    1
    79    74    76    1
    80    77    78    1
    81    83    84    1
    82     6     5    1
    83     6     8    1
    84   119   121    1
    85   119   118    1
    86     1     2    1
    87     5     2    1
    88    81    78    1
    89     9    10    1
    90     9     3   am
    91   108   107    2
    92    78    79    1
    93   107   106    1
    94   113   111   ar
    95     2     3    1
    96   118   115    1
    97     3     4    2
    98   114   115    1
    99   109   106    1
   100   109   110    1
   101    80    79    2
   102    79    85   am
   103   111   112   ar
   104   111   110    1
   105   106   105    1
   106   115   116    1
   107   117   116    2
   108    85    86    1
   109    86    89    1
   110    86    87    1
   111   101   102    1
   112   101    98    1
   113    89    90    1
   114    91    90    2
   115    90    92   am
   116   103   102   ar
   117   102   104   ar
   118    98    97    1
   119    98    99    1
   120    87    88    2
   121    96    95    2
   122    97    95   am
   123   142   143    1
   124   142   141    1
   125    95    94    1
   126   143   144    2
   127    99   100    2
   128    93    94    1
   129   146   144    1
   130   144   145    1
   131   140   141    1
   132   140   137    1
   133   139   138    2
   134   138   137    1
   135   137   136    1
