@<TRIPOS>MOLECULE
tmp/4tndA00.pdb
 190 178 0 0 0
SMALL
GASTEIGER

@<TRIPOS>ATOM
      1  N         35.4140  -33.0490   28.8790 N.3   178  LEU178     -0.1231
      2  CA        34.1710  -33.2040   29.6370 C.3   178  LEU178      0.1693
      3  C         33.7700  -34.6490   29.8640 C.2   178  LEU178      0.2593
      4  O         33.1690  -35.0040   30.8860 O.2   178  LEU178     -0.2718
      5  CB        33.0470  -32.4670   28.9270 C.3   178  LEU178      0.0284
      6  CG        33.3310  -30.9860   28.6930 C.3   178  LEU178      0.0019
      7  CD1       32.2040  -30.3230   27.9120 C.3   178  LEU178      0.0001
      8  CD2       33.5730  -30.2720   30.0150 C.3   178  LEU178      0.0001
      9  N         34.0250  -35.4770   28.8620 N.am  179  GLY179     -0.1942
     10  CA        33.6870  -36.8790   28.9860 C.3   179  GLY179      0.2014
     11  C         34.2690  -37.6960   27.8610 C.2   179  GLY179      0.2639
     12  O         34.7780  -37.1660   26.8640 O.2   179  GLY179     -0.2714
     13  N         34.1810  -39.0050   28.0110 N.am  180  LYS180     -0.1963
     14  CA        34.7720  -39.9020   27.0350 C.3   180  LYS180      0.1728
     15  C         33.8490  -41.0900   26.8070 C.2   180  LYS180      0.2617
     16  O         33.3380  -41.6710   27.7640 O.2   180  LYS180     -0.2715
     17  CB        36.1520  -40.3490   27.5300 C.3   180  LYS180      0.0311
     18  CG        36.9590  -41.1590   26.5520 C.3   180  LYS180      0.0038
     19  CD        38.2800  -41.6050   27.1740 C.3   180  LYS180      0.0206
     20  CE        39.3110  -40.4970   27.1800 C.3   180  LYS180      0.1093
     21  NZ        40.6640  -41.0390   27.4960 N.3   180  LYS180     -0.1314
     22  N         33.6320  -41.4580   25.5430 N.am  181  GLY181     -0.1940
     23  CA        32.8570  -42.6470   25.2330 C.3   181  GLY181      0.2014
     24  C         32.4150  -42.6560   23.7830 C.2   181  GLY181      0.2639
     25  O         32.7300  -41.7300   23.0430 O.2   181  GLY181     -0.2714
     26  N         31.6550  -43.6700   23.3850 N.am  182  GLY182     -0.1939
     27  CA        31.0930  -43.6770   22.0420 C.3   182  GLY182      0.2014
     28  C         32.1860  -43.7630   20.9950 C.2   182  GLY182      0.2639
     29  O         32.9810  -44.6980   21.0070 O.2   182  GLY182     -0.2714
     30  N         32.2320  -42.7880   20.0920 N.am  183  PHE183     -0.1959
     31  CA        33.2630  -42.7730   19.0450 C.3   183  PHE183      0.1771
     32  C         34.5070  -41.9560   19.4010 C.2   183  PHE183      0.2620
     33  O         35.3820  -41.7500   18.5680 O.2   183  PHE183     -0.2715
     34  CB        32.6660  -42.2630   17.7390 C.3   183  PHE183      0.0574
     35  CG        31.7000  -43.2210   17.1240 C.ar  183  PHE183     -0.0200
     36  CD1       32.1410  -44.4270   16.6070 C.ar  183  PHE183     -0.0042
     37  CD2       30.3490  -42.9260   17.0780 C.ar  183  PHE183     -0.0042
     38  CE1       31.2550  -45.3210   16.0440 C.ar  183  PHE183     -0.0003
     39  CE2       29.4560  -43.8200   16.5080 C.ar  183  PHE183     -0.0003
     40  CZ        29.9150  -45.0180   15.9920 C.ar  183  PHE183     -0.0000
     41  N         34.6160  -41.4950   20.6420 N.am  184  GLY184     -0.1940
     42  CA        35.5790  -40.4430   20.8830 C.3   184  GLY184      0.2014
     43  C         35.5060  -39.8550   22.2690 C.2   184  GLY184      0.2639
     44  O         35.3770  -40.5760   23.2720 O.2   184  GLY184     -0.2714
     45  N         35.7370  -38.5530   22.3300 N.am  185  GLU185     -0.1963
     46  CA        35.6160  -37.8410   23.5980 C.3   185  GLU185      0.1733
     47  C         34.8700  -36.5370   23.3790 C.2   185  GLU185      0.2616
     48  O         34.6560  -36.1150   22.2480 O.2   185  GLU185     -0.2715
     49  CB        36.9920  -37.5810   24.2090 C.3   185  GLU185      0.0429
     50  CG        37.9170  -36.7530   23.3440 C.3   185  GLU185      0.1163
     51  CD        39.2500  -36.4600   24.0240 C.2   185  GLU185      0.3649
     52  OE1       39.7900  -35.3460   23.8320 O.co2 185  GLU185     -0.2457
     53  OE2       39.7610  -37.3430   24.7480 O.co2 185  GLU185     -0.2457
     54  N         34.4560  -35.9120   24.4720 N.am  186  VAL186     -0.1977
     55  CA        33.8190  -34.6080   24.4040 C.3   186  VAL186      0.1596
     56  C         34.6820  -33.6550   25.2070 C.2   186  VAL186      0.2287
     57  O         35.0540  -33.9870   26.3180 O.2   186  VAL186     -0.2864
     58  CB        32.3880  -34.6340   24.9760 C.3   186  VAL186      0.0276
     59  CG1       31.7960  -33.2470   24.9760 C.3   186  VAL186      0.0022
     60  CG2       31.5130  -35.5990   24.1770 C.3   186  VAL186      0.0022
     61  N         30.2640  -27.6350   23.8700 N.3   199  ALA199     -0.1245
     62  CA        30.8810  -28.9490   23.9890 C.3   199  ALA199      0.1562
     63  C         31.2750  -29.4000   22.5850 C.2   199  ALA199      0.2260
     64  O         30.4880  -29.3150   21.6590 O.2   199  ALA199     -0.2867
     65  CB        29.9310  -29.9590   24.6410 C.3   199  ALA199      0.0290
     66  N         32.0500  -32.5430   20.5150 N.3   201  LYS201     -0.1245
     67  CA        32.0070  -33.9910   20.4630 C.3   201  LYS201      0.1561
     68  C         32.8890  -34.4180   19.3010 C.2   201  LYS201      0.2260
     69  O         32.6010  -34.1260   18.1410 O.2   201  LYS201     -0.2867
     70  CB        30.5600  -34.4770   20.3020 C.3   201  LYS201      0.0271
     71  CG        30.3790  -35.9750   20.3450 C.3   201  LYS201      0.0035
     72  CD        28.9000  -36.3090   20.3660 C.3   201  LYS201      0.0206
     73  CE        28.6710  -37.7800   20.1110 C.3   201  LYS201      0.1093
     74  NZ        27.2150  -38.0920   19.9910 N.3   201  LYS201     -0.1314
     75  N         33.2850  -49.4450   12.9190 N.3   211  ARG211     -0.1245
     76  CA        31.9440  -49.8070   13.3830 C.3   211  ARG211      0.1563
     77  C         30.8670  -49.4680   12.3560 C.2   211  ARG211      0.2260
     78  O         29.6750  -49.5890   12.6350 O.2   211  ARG211     -0.2867
     79  CB        31.6500  -49.1230   14.7270 C.3   211  ARG211      0.0307
     80  CG        32.4110  -49.7700   15.8820 C.3   211  ARG211      0.0489
     81  CD        32.6760  -48.8110   17.0370 C.3   211  ARG211      0.2205
     82  NE        31.4490  -48.3240   17.6600 N.pl3 211  ARG211     -0.0865
     83  CZ        31.4180  -47.5210   18.7220 C.cat 211  ARG211      0.5346
     84  NH1       32.5510  -47.1180   19.2870 N.pl3 211  ARG211      0.1354
     85  NH2       30.2560  -47.1190   19.2180 N.pl3 211  ARG211      0.1354
     86  N         19.6830  -30.9510   22.7960 N.3   233  VAL233     -0.1245
     87  CA        21.0020  -30.3740   22.5410 C.3   233  VAL233      0.1561
     88  C         21.0190  -29.7870   21.1220 C.2   233  VAL233      0.2260
     89  O         20.5190  -30.4090   20.2050 O.2   233  VAL233     -0.2867
     90  CB        22.0890  -31.4430   22.7380 C.3   233  VAL233      0.0252
     91  CG1       23.3990  -30.9880   22.1730 C.3   233  VAL233      0.0019
     92  CG2       22.2160  -31.7560   24.2590 C.3   233  VAL233      0.0019
     93  N         28.3440  -28.6390   20.1230 N.3   249  LEU249     -0.1231
     94  CA        27.0160  -28.8060   20.6910 C.3   249  LEU249      0.1693
     95  C         26.8310  -27.9230   21.9030 C.2   249  LEU249      0.2592
     96  O         27.8240  -27.5170   22.5300 O.2   249  LEU249     -0.2718
     97  CB        26.8060  -30.2680   21.1180 C.3   249  LEU249      0.0284
     98  CG        27.0080  -31.3910   20.1060 C.3   249  LEU249      0.0019
     99  CD1       27.0150  -32.7270   20.8380 C.3   249  LEU249      0.0001
    100  CD2       25.8610  -31.3330   19.1480 C.3   249  LEU249      0.0001
    101  N         25.5680  -27.6980   22.2750 N.am  250  THR250     -0.1953
    102  CA        25.2450  -27.0700   23.5620 C.3   250  THR250      0.1897
    103  C         26.0380  -27.7230   24.6890 C.2   250  THR250      0.2313
    104  O         26.0540  -28.9440   24.8230 O.2   250  THR250     -0.2863
    105  CB        23.7410  -27.2200   23.9120 C.3   250  THR250      0.1794
    106  OG1       22.9340  -26.7860   22.8080 O.3   250  THR250     -0.2208
    107  CG2       23.3890  -26.4190   25.1740 C.3   250  THR250      0.0378
    108  N         26.4220  -29.1350   28.0620 N.3   252  MET252     -0.1230
    109  CA        25.5950  -29.5560   29.1770 C.3   252  MET252      0.1702
    110  C         26.4550  -30.2760   30.1710 C.2   252  MET252      0.2592
    111  O         26.5220  -31.4980   30.1560 O.2   252  MET252     -0.2718
    112  CB        24.4960  -30.4960   28.6760 C.3   252  MET252      0.0401
    113  CG        23.6620  -29.9190   27.5620 C.3   252  MET252      0.0596
    114  SD        22.5860  -28.6140   28.1650 S.3   252  MET252     -0.1393
    115  CE        21.5450  -29.6000   29.2570 C.3   252  MET252      0.0692
    116  N         27.0200  -29.5330   31.1010 N.am  253  ASN253     -0.1974
    117  CA        28.0180  -30.1020   32.0010 C.3   253  ASN253      0.1688
    118  C         27.5160  -30.3640   33.4210 C.2   253  ASN253      0.2292
    119  O         28.3160  -30.4450   34.3480 O.2   253  ASN253     -0.2864
    120  CB        29.2800  -29.2490   32.0180 C.3   253  ASN253      0.1181
    121  CG        30.4980  -30.0300   32.5070 C.2   253  ASN253      0.2629
    122  OD1       30.6460  -31.2370   32.2360 O.2   253  ASN253     -0.2716
    123  ND2       31.3490  -29.3570   33.2810 N.am  253  ASN253     -0.0877
    124  N         24.7420  -36.3530   33.8860 N.3   256  ASP256     -0.1239
    125  CA        23.6330  -36.9370   33.1500 C.3   256  ASP256      0.1674
    126  C         22.6450  -37.4400   34.1610 C.2   256  ASP256      0.2266
    127  O         22.9330  -37.4500   35.3510 O.2   256  ASP256     -0.2867
    128  CB        24.0970  -38.0480   32.1930 C.3   256  ASP256      0.1410
    129  CG        24.7920  -39.1980   32.8970 C.2   256  ASP256      0.3668
    130  OD1       25.9590  -39.4820   32.5490 O.co2 256  ASP256     -0.2456
    131  OD2       24.1760  -39.8440   33.7690 O.co2 256  ASP256     -0.2456
    132  N         16.6070  -42.8460   27.8280 N.3   299  LYS299     -0.1245
    133  CA        17.2260  -43.5520   28.9450 C.3   299  LYS299      0.1561
    134  C         18.0200  -42.4920   29.6960 C.2   299  LYS299      0.2260
    135  O         18.3810  -41.4770   29.1120 O.2   299  LYS299     -0.2867
    136  CB        18.1250  -44.7020   28.4750 C.3   299  LYS299      0.0271
    137  CG        19.3010  -44.2660   27.6050 C.3   299  LYS299      0.0035
    138  CD        20.1120  -45.4770   27.1840 C.3   299  LYS299      0.0206
    139  CE        21.1600  -45.1250   26.1450 C.3   299  LYS299      0.1093
    140  NZ        21.9850  -46.3230   25.8170 N.3   299  LYS299     -0.1314
    141  N         21.0380  -41.9940   30.7300 N.3   301  GLU301     -0.1231
    142  CA        22.3360  -41.5330   30.2320 C.3   301  GLU301      0.1699
    143  C         22.2030  -40.5110   29.1040 C.2   301  GLU301      0.2592
    144  O         23.1190  -39.7220   28.8630 O.2   301  GLU301     -0.2718
    145  CB        23.1870  -42.7150   29.7440 C.3   301  GLU301      0.0402
    146  CG        23.2910  -43.8640   30.7290 C.3   301  GLU301      0.1161
    147  CD        22.2470  -44.9610   30.4900 C.2   301  GLU301      0.3649
    148  OE1       21.0410  -44.7380   30.7610 O.co2 301  GLU301     -0.2457
    149  OE2       22.6440  -46.0530   30.0190 O.co2 301  GLU301     -0.2457
    150  N         21.0730  -40.5270   28.4010 N.am  302  ASN302     -0.1974
    151  CA        20.9120  -39.6490   27.2430 C.3   302  ASN302      0.1688
    152  C         20.2410  -38.3290   27.6050 C.2   302  ASN302      0.2292
    153  O         19.9370  -37.5290   26.7350 O.2   302  ASN302     -0.2864
    154  CB        20.1280  -40.3630   26.1210 C.3   302  ASN302      0.1181
    155  CG        20.9840  -41.3780   25.3680 C.2   302  ASN302      0.2629
    156  OD1       22.1940  -41.4140   25.5500 O.2   302  ASN302     -0.2716
    157  ND2       20.3630  -42.1890   24.5090 N.am  302  ASN302     -0.0877
    158  N         20.8770  -34.9030   29.7260 N.3   304  LEU304     -0.1245
    159  CA        21.9330  -34.1380   30.3690 C.3   304  LEU304      0.1561
    160  C         21.3870  -32.8930   31.0680 C.2   304  LEU304      0.2260
    161  O         20.4160  -32.3010   30.6110 O.2   304  LEU304     -0.2867
    162  CB        22.9880  -33.7290   29.3290 C.3   304  LEU304      0.0270
    163  CG        23.6510  -34.8450   28.5180 C.3   304  LEU304      0.0019
    164  CD1       24.6810  -34.2640   27.5390 C.3   304  LEU304      0.0001
    165  CD2       24.3120  -35.8540   29.4400 C.3   304  LEU304      0.0001
    166  N         19.8750  -35.6460   24.6850 N.3   314  SER314     -0.1202
    167  CA        21.1560  -35.7070   24.0080 C.3   314  SER314      0.2020
    168  C         21.1810  -36.9640   23.1340 C.2   314  SER314      0.2618
    169  O         20.2560  -37.7870   23.2170 O.2   314  SER314     -0.2717
    170  CB        22.2900  -35.7270   25.0560 C.3   314  SER314      0.2103
    171  OG        23.5630  -35.6650   24.4400 O.3   314  SER314     -0.2182
    172  N         22.2320  -37.1360   22.3280 N.am  315  ASP315     -0.1973
    173  CA        22.4460  -38.3950   21.5860 C.3   315  ASP315      0.1709
    174  C         21.3370  -38.7980   20.6100 C.2   315  ASP315      0.2293
    175  O         20.5860  -39.7590   20.8470 O.2   315  ASP315     -0.2864
    176  CB        22.6600  -39.5530   22.5590 C.3   315  ASP315      0.1436
    177  CG        23.8900  -39.3680   23.4070 C.2   315  ASP315      0.3671
    178  OD1       24.7550  -40.2690   23.3950 O.co2 315  ASP315     -0.2456
    179  OD2       23.9890  -38.3190   24.0860 O.co2 315  ASP315     -0.2456
    180  N         30.0400  -30.8650   36.4960 N.3   456  ARG456     -0.1245
    181  CA        30.7640  -32.1150   36.3940 C.3   456  ARG456      0.1563
    182  C         32.2560  -31.8450   36.2020 C.2   456  ARG456      0.2260
    183  O         32.6420  -30.9320   35.4750 O.2   456  ARG456     -0.2867
    184  CB        30.2150  -32.9550   35.2380 C.3   456  ARG456      0.0307
    185  CG        30.6700  -34.3980   35.2640 C.3   456  ARG456      0.0489
    186  CD        30.2500  -35.0990   33.9790 C.3   456  ARG456      0.2205
    187  NE        30.8260  -36.4350   33.8850 N.pl3 456  ARG456     -0.0865
    188  CZ        30.8780  -37.1460   32.7590 C.cat 456  ARG456      0.5346
    189  NH1       30.3940  -36.6430   31.6280 N.pl3 456  ARG456      0.1354
    190  NH2       31.4190  -38.3610   32.7620 N.pl3 456  ARG456      0.1354
@<TRIPOS>BOND
     1    77    78    2
     2    77    76    1
     3    75    76    1
     4    76    79    1
     5    79    80    1
     6    80    81    1
     7    40    38   ar
     8    40    39   ar
     9    38    36   ar
    10    39    37   ar
    11    36    35   ar
    12    81    82    1
    13    37    35   ar
    14    35    34    1
    15    82    83    2
    16    34    31    1
    17    69    68    2
    18    33    32    2
    19    83    85    1
    20    83    84    1
    21    31    32    1
    22    31    30    1
    23   100    98    1
    24    68    67    1
    25    32    41   am
    26    74    73    1
    27    30    28   am
    28    98    99    1
    29    98    97    1
    30    73    72    1
    31    93    94    1
    32    89    88    2
    33    70    71    1
    34    70    67    1
    35    71    72    1
    36    67    66    1
    37   174   175    2
    38   174   173    1
    39    41    42    1
    40    94    97    1
    41    94    95    1
    42    42    43    1
    43    28    29    2
    44    28    27    1
    45    88    87    1
    46   173   172    1
    47   173   176    1
    48    64    63    2
    49    95   101   am
    50    95    96    2
    51    27    26    1
    52    91    90    1
    53    48    47    2
    54    43    45   am
    55    43    44    2
    56   101   102    1
    57   172   168   am
    58    45    46    1
    59    87    90    1
    60    87    86    1
    61   176   177    1
    62    63    62    1
    63    90    92    1
    64   106   105    1
    65    25    24    2
    66   168   169    2
    67   168   167    1
    68    50    51    1
    69    50    49    1
    70    47    46    1
    71    47    54   am
    72    26    24   am
    73   178   177   ar
    74   177   179   ar
    75   102   105    1
    76   102   103    1
    77    46    49    1
    78    24    23    1
    79    52    51   ar
    80    61    62    1
    81   105   107    1
    82    62    65    1
    83   167   166    1
    84   167   170    1
    85    51    53   ar
    86    60    58    1
    87    55    54    1
    88    55    58    1
    89    55    56    1
    90   171   170    1
    91   157   155   am
    92   103   104    2
    93    58    59    1
    94    56    57    2
    95    23    22    1
    96   155   156    2
    97   155   154    1
    98    22    15   am
    99   140   139    1
   100   154   151    1
   101   139   138    1
   102    18    19    1
   103    18    17    1
   104   153   152    2
   105    15    14    1
   106    15    16    2
   107    12    11    2
   108    14    17    1
   109    14    13    1
   110    19    20    1
   111    20    21    1
   112   138   137    1
   113   151   152    1
   114   151   150    1
   115   164   163    1
   116   113   114    1
   117   113   112    1
   118   137   136    1
   119   132   133    1
   120    11    13   am
   121    11    10    1
   122     7     6    1
   123   108   109    1
   124   114   115    1
   125   150   143   am
   126   136   133    1
   127   163   162    1
   128   163   165    1
   129   112   109    1
   130     6     5    1
   131     6     8    1
   132     9    10    1
   133     9     3   am
   134   144   143    2
   135     1     2    1
   136     5     2    1
   137   133   134    1
   138   143   142    1
   139   135   134    2
   140   109   110    1
   141   162   159    1
   142     2     3    1
   143   158   159    1
   144   145   142    1
   145   145   146    1
   146     3     4    2
   147   149   147   ar
   148   111   110    2
   149   110   116   am
   150   142   141    1
   151   159   160    1
   152   147   146    1
   153   147   148   ar
   154   161   160    2
   155   116   117    1
   156   189   188    1
   157   117   120    1
   158   117   118    1
   159   120   121    1
   160   128   129    1
   161   128   125    1
   162   122   121    2
   163   121   123   am
   164   130   129   ar
   165   188   190    1
   166   188   187    2
   167   129   131   ar
   168   125   124    1
   169   125   126    1
   170   118   119    2
   171   187   186    1
   172   186   185    1
   173   126   127    2
   174   184   185    1
   175   184   181    1
   176   183   182    2
   177   182   181    1
   178   181   180    1
