@<TRIPOS>MOLECULE
tmp/4tnsA00.pdb
 156 150 0 0 0
SMALL
GASTEIGER

@<TRIPOS>ATOM
      1  N         13.0980    2.1170   -5.2210 N.3     9  HIS9       -0.1241
      2  CA        14.5310    2.0590   -4.9770 C.3     9  HIS9        0.1621
      3  C         15.1760    1.0490   -5.8430 C.2     9  HIS9        0.2264
      4  O         14.5260    0.1650   -6.4220 O.2     9  HIS9       -0.2867
      5  CB        14.8500    1.8460   -3.4890 C.3     9  HIS9        0.0745
      6  CG        14.6750    0.4430   -2.9760 C.ar    9  HIS9        0.0817
      7  ND1       15.5440   -0.1240   -2.0640 N.ar    9  HIS9       -0.2268
      8  CD2       13.7850   -0.5380   -3.2940 C.ar    9  HIS9        0.1154
      9  CE1       15.1490   -1.3520   -1.7910 C.ar    9  HIS9        0.1986
     10  NE2       14.0880   -1.6230   -2.5100 N.ar    9  HIS9       -0.2212
     11  N         18.3930   -1.4960   -5.0260 N.3    11  LEU11      -0.1245
     12  CA        19.3020   -2.0190   -3.9960 C.3    11  LEU11       0.1561
     13  C         20.4260   -2.7700   -4.6420 C.2    11  LEU11       0.2260
     14  O         20.1930   -3.6550   -5.4740 O.2    11  LEU11      -0.2867
     15  CB        18.5250   -2.9190   -3.0550 C.3    11  LEU11       0.0270
     16  CG        19.3140   -3.7090   -2.0060 C.3    11  LEU11       0.0019
     17  CD1       20.0390   -2.7760   -1.0440 C.3    11  LEU11       0.0001
     18  CD2       18.3910   -4.6610   -1.2630 C.3    11  LEU11       0.0001
     19  N         23.2010   -5.2370   -3.1810 N.3    13  LYS13      -0.1245
     20  CA        23.7320   -5.9540   -2.0330 C.3    13  LYS13       0.1561
     21  C         25.2510   -6.1530   -2.1800 C.2    13  LYS13       0.2260
     22  O         25.8180   -6.0830   -3.2800 O.2    13  LYS13      -0.2867
     23  CB        22.9640   -7.2600   -1.8030 C.3    13  LYS13       0.0271
     24  CG        21.5240   -7.0710   -1.3430 C.3    13  LYS13       0.0035
     25  CD        20.8780   -8.3900   -0.9760 C.3    13  LYS13       0.0206
     26  CE        19.4770   -8.2310   -0.4910 C.3    13  LYS13       0.1093
     27  NZ        18.9460   -9.4490    0.1740 N.3    13  LYS13      -0.1314
     28  N         23.0290   -7.8880    5.2860 N.3    18  ARG18      -0.1231
     29  CA        22.3730   -8.7410    6.2680 C.3    18  ARG18       0.1694
     30  C         21.8960  -10.0620    5.6940 C.2    18  ARG18       0.2591
     31  O         21.9510  -11.1030    6.3960 O.2    18  ARG18      -0.2718
     32  CB        21.2810   -7.9600    6.9780 C.3    18  ARG18       0.0321
     33  CG        20.1240   -7.4890    6.1730 C.3    18  ARG18       0.0489
     34  CD        19.1620   -6.7540    7.1050 C.3    18  ARG18       0.2205
     35  NE        17.9740   -6.2660    6.4180 N.pl3  18  ARG18      -0.0865
     36  CZ        16.9580   -5.6530    7.0240 C.cat  18  ARG18       0.5346
     37  NH1       17.0340   -5.3400    8.3140 N.pl3  18  ARG18       0.1354
     38  NH2       15.9010   -5.2810    6.3220 N.pl3  18  ARG18       0.1354
     39  N         21.4290  -10.0610    4.4510 N.am   19  ARG19      -0.1980
     40  CA        21.0060  -11.2780    3.7720 C.3    19  ARG19       0.1597
     41  C         21.6470  -11.3090    2.3850 C.2    19  ARG19       0.2287
     42  O         21.1160  -10.7110    1.4530 O.2    19  ARG19      -0.2864
     43  CB        19.4870  -11.3380    3.6690 C.3    19  ARG19       0.0334
     44  CG        18.9340  -12.6330    4.2580 C.3    19  ARG19       0.0492
     45  CD        18.8630  -13.7810    3.2580 C.3    19  ARG19       0.2205
     46  NE        20.1250  -14.1630    2.6260 N.pl3  19  ARG19      -0.0865
     47  CZ        20.9080  -15.1640    3.0230 C.cat  19  ARG19       0.5346
     48  NH1       21.9570  -15.5260    2.2850 N.pl3  19  ARG19       0.1354
     49  NH2       20.6890  -15.7730    4.1850 N.pl3  19  ARG19       0.1354
     50  N         21.8980  -12.5830   -0.4800 N.3    21  SER21      -0.1202
     51  CA        21.2130  -13.4590   -1.4160 C.3    21  SER21       0.2020
     52  C         20.0510  -12.6550   -1.9860 C.2    21  SER21       0.2619
     53  O         19.4480  -11.8370   -1.2740 O.2    21  SER21      -0.2717
     54  CB        20.7040  -14.7070   -0.7040 C.3    21  SER21       0.2103
     55  OG        20.0030  -15.4980   -1.6360 O.3    21  SER21      -0.2182
     56  N         19.7520  -12.8450   -3.2620 N.am   22  SER22      -0.1937
     57  CA        18.6180  -12.1150   -3.8290 C.3    22  SER22       0.2055
     58  C         17.8700  -12.9470   -4.8320 C.2    22  SER22       0.2643
     59  O         18.3360  -13.9820   -5.2620 O.2    22  SER22      -0.2714
     60  CB        19.0800  -10.7960   -4.4400 C.3    22  SER22       0.2130
     61  OG        19.7270  -11.0410   -5.6590 O.3    22  SER22      -0.2179
     62  N         16.7310  -12.4260   -5.3030 N.am   23  TRP23      -0.1973
     63  CA        15.9800  -13.1290   -6.3270 C.3    23  TRP23       0.1640
     64  C         16.8600  -13.3760   -7.5290 C.2    23  TRP23       0.2290
     65  O         16.5990  -14.3400   -8.2700 O.2    23  TRP23      -0.2864
     66  CB        14.7600  -12.3190   -6.7450 C.3    23  TRP23       0.0576
     67  CG        15.0360  -11.0100   -7.4140 C.ar   23  TRP23       0.0006
     68  CD1       15.2980   -9.8120   -6.8050 C.ar   23  TRP23       0.0946
     69  CD2       15.2190  -10.7790   -8.8120 C.ar   23  TRP23       0.0152
     70  NE1       15.6040   -8.8660   -7.7320 N.ar   23  TRP23      -0.2442
     71  CE2       15.5540   -9.4100   -8.9790 C.ar   23  TRP23       0.0810
     72  CE3       15.0920  -11.5640   -9.9640 C.ar   23  TRP23       0.0012
     73  CZ2       15.7540   -8.8410  -10.2100 C.ar   23  TRP23       0.0191
     74  CZ3       15.2760  -10.9620  -11.2010 C.ar   23  TRP23       0.0001
     75  CH2       15.6650   -9.6410  -11.3090 C.ar   23  TRP23       0.0015
     76  N         18.6540   -5.8510   -6.2170 N.3    62  ASP62      -0.1225
     77  CA        18.6680   -7.0710   -5.4270 C.3    62  ASP62       0.1805
     78  C         17.4870   -7.1510   -4.4650 C.2    62  ASP62       0.2598
     79  O         17.3980   -8.0940   -3.6680 O.2    62  ASP62      -0.2718
     80  CB        19.9810   -7.1480   -4.6530 C.3    62  ASP62       0.1424
     81  CG        21.1470   -7.5790   -5.4820 C.2    62  ASP62       0.3668
     82  OD1       20.9930   -8.6060   -6.2060 O.co2  62  ASP62      -0.2456
     83  OD2       22.2430   -6.9880   -5.3730 O.co2  62  ASP62      -0.2456
     84  N         16.5960   -6.1800   -4.5250 N.am   63  CYS63      -0.1956
     85  CA        15.3310   -6.2370   -3.7640 C.3    63  CYS63       0.1843
     86  C         14.2890   -6.8850   -4.6640 C.2    63  CYS63       0.2626
     87  O         14.2420   -6.6130   -5.8450 O.2    63  CYS63      -0.2714
     88  CB        14.9060   -4.8420   -3.3350 C.3    63  CYS63       0.0997
     89  SG        13.3560   -4.7840   -2.3930 S.3    63  CYS63      -0.0797
     90  N         13.4390   -7.6940   -4.0650 N.am   64  SER64      -0.1950
     91  CA        12.3390   -8.3250   -4.8360 C.3    64  SER64       0.1924
     92  C         11.3440   -7.2950   -5.4040 C.2    64  SER64       0.2314
     93  O         10.5940   -7.6170   -6.3080 O.2    64  SER64      -0.2863
     94  CB        11.6020   -9.3880   -4.0130 C.3    64  SER64       0.2116
     95  OG        11.0240   -8.8140   -2.9070 O.3    64  SER64      -0.2180
     96  N          8.2310    0.4410   -3.7690 N.3    72  LEU72      -0.1245
     97  CA         8.0270   -0.1030   -2.4220 C.3    72  LEU72       0.1561
     98  C          6.6130    0.2200   -1.9020 C.2    72  LEU72       0.2260
     99  O          6.2650   -0.2270   -0.8050 O.2    72  LEU72      -0.2867
    100  CB         9.0550    0.4750   -1.4620 C.3    72  LEU72       0.0270
    101  CG        10.4640   -0.0860   -1.6780 C.3    72  LEU72       0.0019
    102  CD1       11.4590    0.6580   -0.8020 C.3    72  LEU72       0.0001
    103  CD2       10.5630   -1.5640   -1.3830 C.3    72  LEU72       0.0001
    104  N          9.1000    2.3750   10.1780 N.3    79  GLN79      -0.1231
    105  CA         8.8710    1.1180    9.5010 C.3    79  GLN79       0.1698
    106  C         10.1670    0.6010    8.8650 C.2    79  GLN79       0.2592
    107  O         10.5580   -0.5470    9.0780 O.2    79  GLN79      -0.2718
    108  CB         7.7590    1.2930    8.4390 C.3    79  GLN79       0.0381
    109  CG         6.5290    2.0770    8.9340 C.3    79  GLN79       0.0905
    110  CD         5.9620    1.5880   10.2710 C.2    79  GLN79       0.2608
    111  OE1        5.7510    0.3920   10.4750 O.2    79  GLN79      -0.2717
    112  NE2        5.7210    2.5110   11.1830 N.am   79  GLN79      -0.0878
    113  N         10.7600    1.4310    8.0110 N.am   80  MET80      -0.1965
    114  CA        12.0110    1.0910    7.2990 C.3    80  MET80       0.1736
    115  C         13.2140    1.3270    8.1840 C.2    80  MET80       0.2616
    116  O         13.1180    1.9180    9.2480 O.2    80  MET80      -0.2715
    117  CB        12.1030    1.9470    6.0200 C.3    80  MET80       0.0427
    118  CG        10.8920    1.8260    5.1230 C.3    80  MET80       0.0599
    119  SD        10.7950    0.1910    4.3900 S.3    80  MET80      -0.1393
    120  CE         9.4320    0.4170    3.2480 C.3    80  MET80       0.0692
    121  N         14.3760    0.8770    7.7410 N.am   81  GLN81      -0.1977
    122  CA        15.5970    1.1930    8.4220 C.3    81  GLN81       0.1601
    123  C         15.8150    2.6740    8.4420 C.2    81  GLN81       0.2287
    124  O         15.5100    3.3890    7.4670 O.2    81  GLN81      -0.2864
    125  CB        16.7890    0.4810    7.8070 C.3    81  GLN81       0.0394
    126  CG        16.6940   -1.0420    7.9630 C.3    81  GLN81       0.0908
    127  CD        17.7480   -1.7780    7.1520 C.2    81  GLN81       0.2608
    128  OE1       18.9130   -1.7750    7.5540 O.2    81  GLN81      -0.2717
    129  NE2       17.4100   -2.1350    5.9050 N.am   81  GLN81      -0.0878
    130  N         17.2910    4.7530    5.5290 N.3    84  PHE84      -0.1241
    131  CA        16.4120    4.7050    4.3690 C.3    84  PHE84       0.1605
    132  C         15.2330    5.6520    4.5470 C.2    84  PHE84       0.2264
    133  O         14.9340    6.4560    3.6930 O.2    84  PHE84      -0.2867
    134  CB        15.9260    3.2690    4.1150 C.3    84  PHE84       0.0534
    135  CG        15.2050    3.0970    2.8130 C.ar   84  PHE84      -0.0203
    136  CD1       13.8640    3.4600    2.6710 C.ar   84  PHE84      -0.0042
    137  CD2       15.8780    2.5880    1.7200 C.ar   84  PHE84      -0.0042
    138  CE1       13.2120    3.3190    1.4890 C.ar   84  PHE84      -0.0003
    139  CE2       15.2340    2.4420    0.5110 C.ar   84  PHE84      -0.0003
    140  CZ        13.9060    2.8420    0.3870 C.ar   84  PHE84      -0.0000
    141  N         20.8210   -3.6820    4.6670 N.3   104  SER104     -0.1217
    142  CA        20.5140   -4.4780    3.4740 C.3   104  SER104      0.1889
    143  C         21.6070   -4.3790    2.3970 C.2   104  SER104      0.2288
    144  O         21.7400   -5.3210    1.6140 O.2   104  SER104     -0.2866
    145  CB        19.2130   -4.0490    2.8470 C.3   104  SER104      0.2089
    146  OG        18.1110   -4.2360    3.7380 O.3   104  SER104     -0.2183
    147  N         21.5640    1.6990   -1.5330 N.3   107  HIS107     -0.1241
    148  CA        20.3350    2.0350   -2.2580 C.3   107  HIS107      0.1621
    149  C         20.4820    3.3180   -3.0180 C.2   107  HIS107      0.2264
    150  O         21.2000    4.2520   -2.5820 O.2   107  HIS107     -0.2867
    151  CB        19.1140    2.1990   -1.3420 C.3   107  HIS107      0.0745
    152  CG        18.9440    1.1350   -0.3040 C.ar  107  HIS107      0.0817
    153  ND1       17.8620    0.2840   -0.2980 N.ar  107  HIS107     -0.2268
    154  CD2       19.6740    0.8030    0.7860 C.ar  107  HIS107      0.1154
    155  CE1       17.9010   -0.4580    0.8030 C.ar  107  HIS107      0.1986
    156  NE2       19.0060   -0.1910    1.4530 N.ar  107  HIS107     -0.2212
@<TRIPOS>BOND
     1    75    74   ar
     2    75    73   ar
     3    74    72   ar
     4    73    71   ar
     5    72    69   ar
     6    71    69   ar
     7    71    70   ar
     8    69    67   ar
     9    65    64    2
    10    70    68   ar
    11    64    63    1
    12    67    68   ar
    13    67    66    1
    14    66    63    1
    15     4     3    2
    16    63    62    1
    17    93    92    2
    18    76    77    1
    19    82    81   ar
    20    87    86    2
    21     3     2    1
    22    61    60    1
    23    81    83   ar
    24    81    80    1
    25    14    13    2
    26    77    80    1
    27    77    78    1
    28    92    91    1
    29    62    58   am
    30    59    58    2
    31     1     2    1
    32    11    12    1
    33     2     5    1
    34    91    90    1
    35    91    94    1
    36    58    57    1
    37    86    90   am
    38    86    85    1
    39    13    12    1
    40    84    78   am
    41    84    85    1
    42    78    79    2
    43    60    57    1
    44    94    95    1
    45    12    15    1
    46    57    56    1
    47    96    97    1
    48    85    88    1
    49     5     6    1
    50    88    89    1
    51     8     6   ar
    52     8    10   ar
    53    22    21    2
    54    56    52   am
    55    19    20    1
    56    15    16    1
    57   149   150    2
    58   149   148    1
    59     6     7   ar
    60    10     9   ar
    61    97    98    1
    62    97   100    1
    63   148   147    1
    64   148   151    1
    65    21    20    1
    66     7     9   ar
    67    20    23    1
    68    16    18    1
    69    16    17    1
    70    52    51    1
    71    52    53    2
    72    98    99    2
    73    23    24    1
    74   101   100    1
    75   101   103    1
    76   101   102    1
    77    55    54    1
    78    51    54    1
    79    51    50    1
    80    24    25    1
    81   151   152    1
    82    25    26    1
    83    26    27    1
    84   152   153   ar
    85   152   154   ar
    86   153   155   ar
    87   140   139   ar
    88   140   138   ar
    89   139   137   ar
    90   154   156   ar
    91   155   156   ar
    92    42    41    2
    93   138   136   ar
    94   144   143    2
    95   137   135   ar
    96    48    47    1
    97    41    40    1
    98   143   142    1
    99    46    47    2
   100    46    45    1
   101   136   135   ar
   102   135   134    1
   103   145   142    1
   104   145   146    1
   105    47    49    1
   106   120   119    1
   107    45    44    1
   108   142   141    1
   109    43    40    1
   110    43    44    1
   111   133   132    2
   112    40    39    1
   113   134   131    1
   114   131   132    1
   115   131   130    1
   116   119   118    1
   117    39    30   am
   118   118   117    1
   119    28    29    1
   120    30    29    1
   121    30    31    2
   122   129   127   am
   123   117   114    1
   124    33    32    1
   125    33    34    1
   126    29    32    1
   127    38    36    1
   128    35    36    2
   129    35    34    1
   130    36    37    1
   131   127   128    2
   132   127   126    1
   133   114   113    1
   134   114   115    1
   135   124   123    2
   136   121   115   am
   137   121   122    1
   138   125   126    1
   139   125   122    1
   140   113   106   am
   141   115   116    2
   142   122   123    1
   143   108   109    1
   144   108   105    1
   145   106   107    2
   146   106   105    1
   147   109   110    1
   148   105   104    1
   149   110   111    2
   150   110   112   am
