@<TRIPOS>MOLECULE
tmp/4tnvQ01.pdb
 109 109 0 0 0
SMALL
GASTEIGER

@<TRIPOS>ATOM
      1  N        -38.6470  103.6650   43.5620 N.3   136  MET136     -0.1230
      2  CA       -37.6590  104.6690   43.2410 C.3   136  MET136      0.1702
      3  C        -37.4180  105.6130   44.4100 C.2   136  MET136      0.2592
      4  O        -37.6680  106.8110   44.3250 O.2   136  MET136     -0.2718
      5  CB       -38.1070  105.4340   42.0100 C.3   136  MET136      0.0401
      6  CG       -39.5560  105.8760   42.0910 C.3   136  MET136      0.0596
      7  SD       -40.3100  105.8210   40.4670 S.3   136  MET136     -0.1393
      8  CE       -40.4140  104.0560   40.2190 C.3   136  MET136      0.0692
      9  N        -36.9090  105.0610   45.5010 N.am  137  ASP137     -0.1974
     10  CA       -36.5930  105.8580   46.6750 C.3   137  ASP137      0.1709
     11  C        -35.1230  105.9530   46.9620 C.2   137  ASP137      0.2293
     12  O        -34.2820  105.5570   46.1490 O.2   137  ASP137     -0.2864
     13  CB       -37.2730  105.2740   47.9060 C.3   137  ASP137      0.1436
     14  CG       -36.8560  103.8400   48.1730 C.2   137  ASP137      0.3671
     15  OD1      -36.5810  103.1150   47.1970 O.co2 137  ASP137     -0.2456
     16  OD2      -36.8100  103.4260   49.3480 O.co2 137  ASP137     -0.2456
     17  N        -29.7560  103.9180   47.1630 N.3   207  LYS207     -0.1231
     18  CA       -30.8950  104.0530   46.2660 C.3   207  LYS207      0.1693
     19  C        -30.9510  102.8290   45.3570 C.2   207  LYS207      0.2592
     20  O        -29.9560  102.1280   45.2000 O.2   207  LYS207     -0.2718
     21  CB       -30.8220  105.3550   45.4620 C.3   207  LYS207      0.0285
     22  CG       -30.0390  105.2850   44.1640 C.3   207  LYS207      0.0035
     23  CD       -29.9710  106.6610   43.5000 C.3   207  LYS207      0.0206
     24  CE       -29.0760  106.6520   42.2630 C.3   207  LYS207      0.1093
     25  NZ       -28.8960  108.0150   41.6800 N.3   207  LYS207     -0.1314
     26  N        -32.1290  102.5280   44.8210 N.am  208  ARG208     -0.1966
     27  CA       -32.3220  101.3110   44.0320 C.3   208  ARG208      0.1729
     28  C        -32.1430  101.5040   42.5370 C.2   208  ARG208      0.2616
     29  O        -32.2690  102.6140   42.0270 O.2   208  ARG208     -0.2715
     30  CB       -33.7050  100.7420   44.2970 C.3   208  ARG208      0.0348
     31  CG       -33.8140  100.0920   45.6400 C.3   208  ARG208      0.0492
     32  CD       -35.2400   99.7610   45.9440 C.3   208  ARG208      0.2205
     33  NE       -35.3520   99.1340   47.2480 N.pl3 208  ARG208     -0.0865
     34  CZ       -36.2200   99.5240   48.1690 C.cat 208  ARG208      0.5346
     35  NH1      -37.0000  100.5700   47.9380 N.pl3 208  ARG208      0.1354
     36  NH2      -36.2720   98.9050   49.3360 N.pl3 208  ARG208      0.1354
     37  N        -31.8390  100.4130   41.8410 N.am  209  GLU209     -0.1963
     38  CA       -31.7310  100.4490   40.3910 C.3   209  GLU209      0.1733
     39  C        -33.1130  100.5420   39.7560 C.2   209  GLU209      0.2616
     40  O        -33.8880   99.5860   39.8000 O.2   209  GLU209     -0.2715
     41  CB       -31.0040   99.2120   39.8730 C.3   209  GLU209      0.0429
     42  CG       -29.5330   99.1340   40.2440 C.3   209  GLU209      0.1163
     43  CD       -28.6310   99.0550   39.0210 C.2   209  GLU209      0.3649
     44  OE1      -29.0600   99.4900   37.9290 O.co2 209  GLU209     -0.2457
     45  OE2      -27.4950   98.5500   39.1500 O.co2 209  GLU209     -0.2457
     46  N        -33.3980  101.6810   39.1310 N.am  210  PHE210     -0.1960
     47  CA       -34.6910  101.9160   38.4930 C.3   210  PHE210      0.1771
     48  C        -34.9140  100.9190   37.3790 C.2   210  PHE210      0.2620
     49  O        -36.0330  100.4690   37.1350 O.2   210  PHE210     -0.2715
     50  CB       -34.7610  103.3390   37.9310 C.3   210  PHE210      0.0574
     51  CG       -36.0630  103.6630   37.2550 C.ar  210  PHE210     -0.0200
     52  CD1      -37.1320  104.1560   37.9820 C.ar  210  PHE210     -0.0042
     53  CD2      -36.2220  103.4680   35.8880 C.ar  210  PHE210     -0.0042
     54  CE1      -38.3360  104.4540   37.3610 C.ar  210  PHE210     -0.0003
     55  CE2      -37.4230  103.7630   35.2620 C.ar  210  PHE210     -0.0003
     56  CZ       -38.4820  104.2560   36.0000 C.ar  210  PHE210     -0.0000
     57  N        -33.8130  100.5750   36.7290 N.am  211  SER211     -0.1950
     58  CA       -33.7980   99.6930   35.5790 C.3   211  SER211      0.1924
     59  C        -34.5510   98.4020   35.8410 C.2   211  SER211      0.2314
     60  O        -35.4210   98.0110   35.0610 O.2   211  SER211     -0.2863
     61  CB       -32.3510   99.3900   35.1970 C.3   211  SER211      0.2116
     62  OG       -31.5860  100.5860   35.1710 O.3   211  SER211     -0.2180
     63  N        -38.2580   98.7960   36.4980 N.3   214  LEU214     -0.1245
     64  CA       -38.9040   99.2640   35.2930 C.3   214  LEU214      0.1561
     65  C        -39.3150   98.0870   34.4300 C.2   214  LEU214      0.2260
     66  O        -40.4350   98.0170   33.9330 O.2   214  LEU214     -0.2867
     67  CB       -37.9780  100.1840   34.5180 C.3   214  LEU214      0.0270
     68  CG       -38.6850  100.7810   33.3110 C.3   214  LEU214      0.0019
     69  CD1      -39.8720  101.5940   33.7950 C.3   214  LEU214      0.0001
     70  CD2      -37.7250  101.6400   32.5200 C.3   214  LEU214      0.0001
     71  N        -45.0320  110.4440   37.4220 N.3   332  TRP332     -0.1241
     72  CA       -43.5790  110.5000   37.4850 C.3   332  TRP332      0.1605
     73  C        -43.0680  111.8160   38.0680 C.2   332  TRP332      0.2264
     74  O        -42.0580  111.8390   38.7660 O.2   332  TRP332     -0.2867
     75  CB       -43.0080  110.2730   36.0920 C.3   332  TRP332      0.0550
     76  CG       -43.3190  108.9080   35.5670 C.ar  332  TRP332      0.0003
     77  CD1      -44.1300  108.6020   34.5160 C.ar  332  TRP332      0.0946
     78  CD2      -42.8170  107.6630   36.0620 C.ar  332  TRP332      0.0152
     79  NE1      -44.1740  107.2430   34.3310 N.ar  332  TRP332     -0.2442
     80  CE2      -43.3720  106.6430   35.2650 C.ar  332  TRP332      0.0810
     81  CE3      -41.9530  107.3100   37.0990 C.ar  332  TRP332      0.0012
     82  CZ2      -43.0900  105.2960   35.4750 C.ar  332  TRP332      0.0191
     83  CZ3      -41.6750  105.9710   37.3050 C.ar  332  TRP332      0.0001
     84  CH2      -42.2390  104.9830   36.4960 C.ar  332  TRP332      0.0015
     85  N        -43.2940  111.5520   41.7510 N.3   335  PHE335     -0.1227
     86  CA       -42.4190  110.5390   42.3480 C.3   335  PHE335      0.1736
     87  C        -41.0200  110.5310   41.7340 C.2   335  PHE335      0.2596
     88  O        -40.3020  109.5320   41.8230 O.2   335  PHE335     -0.2718
     89  CB       -43.0430  109.1490   42.1890 C.3   335  PHE335      0.0547
     90  CG       -44.3130  108.9570   42.9630 C.ar  335  PHE335     -0.0202
     91  CD1      -44.5200  109.6140   44.1650 C.ar  335  PHE335     -0.0042
     92  CD2      -45.3230  108.1530   42.4650 C.ar  335  PHE335     -0.0042
     93  CE1      -45.6960  109.4410   44.8730 C.ar  335  PHE335     -0.0003
     94  CE2      -46.5020  107.9820   43.1670 C.ar  335  PHE335     -0.0003
     95  CZ       -46.6880  108.6230   44.3690 C.ar  335  PHE335     -0.0000
     96  N        -40.6310  111.6420   41.1160 N.am  336  GLY336     -0.1942
     97  CA       -39.3210  111.7430   40.4990 C.3   336  GLY336      0.2014
     98  C        -38.3420  112.5060   41.3670 C.2   336  GLY336      0.2638
     99  O        -37.1980  112.7390   40.9770 O.2   336  GLY336     -0.2714
    100  N        -38.8060  112.8980   42.5500 N.am  337  HIS337     -0.1973
    101  CA       -37.9960  113.6560   43.4970 C.3   337  HIS337      0.1656
    102  C        -36.7800  112.8560   43.9550 C.2   337  HIS337      0.2291
    103  O        -36.7970  112.2320   45.0170 O.2   337  HIS337     -0.2864
    104  CB       -38.8400  114.0650   44.7070 C.3   337  HIS337      0.0771
    105  CG       -38.1150  114.9400   45.6770 C.ar  337  HIS337      0.0820
    106  ND1      -38.5060  115.0720   46.9980 N.ar  337  HIS337     -0.2267
    107  CD2      -37.0310  115.7360   45.5320 C.ar  337  HIS337      0.1154
    108  CE1      -37.6910  115.9010   47.6160 C.ar  337  HIS337      0.1986
    109  NE2      -36.7830  116.3220   46.7480 N.ar  337  HIS337     -0.2212
@<TRIPOS>BOND
     1    70    68    1
     2    68    69    1
     3    68    67    1
     4    66    65    2
     5    79    77   ar
     6    79    80   ar
     7    65    64    1
     8    77    76   ar
     9    67    64    1
    10    60    59    2
    11    62    61    1
    12    61    58    1
    13    55    53   ar
    14    55    56   ar
    15    80    82   ar
    16    80    78   ar
    17    64    63    1
    18    82    84   ar
    19    76    78   ar
    20    76    75    1
    21    58    59    1
    22    58    57    1
    23    53    51   ar
    24    56    54   ar
    25    78    81   ar
    26    75    72    1
    27    84    83   ar
    28    57    48   am
    29    81    83   ar
    30    49    48    2
    31    51    50    1
    32    51    52   ar
    33    54    52   ar
    34    48    47    1
    35    71    72    1
    36    72    73    1
    37    44    43   ar
    38    50    47    1
    39    73    74    2
    40    47    46    1
    41    43    45   ar
    42    43    42    1
    43    46    39   am
    44    39    40    2
    45    39    38    1
    46    41    42    1
    47    41    38    1
    48     8     7    1
    49    38    37    1
    50     7     6    1
    51    97    96    1
    52    97    98    1
    53    99    98    2
    54    96    87   am
    55    98   100   am
    56    25    24    1
    57    87    88    2
    58    87    86    1
    59    85    86    1
    60    37    28   am
    61     5     6    1
    62     5     2    1
    63    29    28    2
    64    89    86    1
    65    89    90    1
    66    24    23    1
    67    92    90   ar
    68    92    94   ar
    69    28    27    1
    70   100   101    1
    71    90    91   ar
    72    94    95   ar
    73     2     1    1
    74     2     3    1
    75   101   102    1
    76   101   104    1
    77    23    22    1
    78   102   103    2
    79    27    30    1
    80    27    26    1
    81    22    21    1
    82    91    93   ar
    83    30    31    1
    84     4     3    2
    85    95    93   ar
    86     3     9   am
    87   104   105    1
    88    26    19   am
    89    20    19    2
    90    19    18    1
    91    21    18    1
    92     9    10    1
    93   107   105   ar
    94   107   109   ar
    95    31    32    1
    96   105   106   ar
    97    32    33    1
    98    12    11    2
    99    18    17    1
   100    10    11    1
   101    10    13    1
   102   109   108   ar
   103   106   108   ar
   104    15    14   ar
   105    33    34    2
   106    13    14    1
   107    35    34    1
   108    34    36    1
   109    14    16   ar
