@<TRIPOS>MOLECULE
tmp/4tnwQ00.pdb
 76 71 0 0 0
SMALL
GASTEIGER

@<TRIPOS>ATOM
      1  N        -33.8970   74.2480   30.5350 N.3   218  LEU218     -0.1231
      2  CA       -35.0530   73.3780   30.3530 C.3   218  LEU218      0.1693
      3  C        -36.2630   73.8650   31.1550 C.2   218  LEU218      0.2591
      4  O        -37.3770   73.3820   30.9580 O.2   218  LEU218     -0.2718
      5  CB       -34.7030   71.9360   30.7470 C.3   218  LEU218      0.0284
      6  CG       -33.8310   71.1340   29.7720 C.3   218  LEU218      0.0019
      7  CD1      -33.4230   69.7940   30.3750 C.3   218  LEU218      0.0001
      8  CD2      -34.5570   70.9240   28.4530 C.3   218  LEU218      0.0001
      9  N        -36.0440   74.8130   32.0620 N.am  219  GLN219     -0.1979
     10  CA       -37.1310   75.3390   32.8870 C.3   219  GLN219      0.1601
     11  C        -37.7050   76.6550   32.3600 C.2   219  GLN219      0.2287
     12  O        -38.8930   76.9330   32.5350 O.2   219  GLN219     -0.2864
     13  CB       -36.6590   75.5290   34.3310 C.3   219  GLN219      0.0394
     14  CG       -37.7500   75.9990   35.2810 C.3   219  GLN219      0.0908
     15  CD       -38.8360   74.9610   35.4800 C.2   219  GLN219      0.2608
     16  OE1      -38.5650   73.8310   35.8840 O.2   219  GLN219     -0.2717
     17  NE2      -40.0760   75.3390   35.1870 N.am  219  GLN219     -0.0878
     18  N        -36.1450   76.7930   27.0870 N.3   222  ILE222     -0.1231
     19  CA       -36.8480   75.8960   26.1760 C.3   222  ILE222      0.1678
     20  C        -38.3460   76.2340   26.0640 C.2   222  ILE222      0.2434
     21  O        -38.8540   76.3590   24.9490 O.2   222  ILE222     -0.2733
     22  CB       -36.6840   74.4140   26.5940 C.3   222  ILE222      0.0265
     23  CG1      -35.2240   73.9790   26.4670 C.3   222  ILE222      0.0019
     24  CG2      -37.5960   73.5180   25.7670 C.3   222  ILE222      0.0020
     25  CD1      -34.6920   74.0290   25.0560 C.3   222  ILE222      0.0001
     26  N        -39.0580   76.4010   27.2020 N.am  223  PRO223     -0.2729
     27  CA       -40.4950   76.6650   27.0530 C.3   223  PRO223      0.1401
     28  C        -40.8210   78.0060   26.4010 C.2   223  PRO223      0.2269
     29  O        -41.8180   78.1010   25.6850 O.2   223  PRO223     -0.2865
     30  CB       -41.0060   76.6480   28.4980 C.3   223  PRO223      0.0296
     31  CG       -40.0080   75.8520   29.2430 C.3   223  PRO223      0.0237
     32  CD       -38.7010   76.1890   28.6170 C.3   223  PRO223      0.0939
     33  N        -40.3350   77.6020   22.6330 N.3   226  MET226     -0.1230
     34  CA       -41.4800   76.9150   22.0490 C.3   226  MET226      0.1702
     35  C        -42.6880   77.8400   22.0200 C.2   226  MET226      0.2592
     36  O        -43.4930   77.7990   21.0920 O.2   226  MET226     -0.2718
     37  CB       -41.8190   75.6460   22.8330 C.3   226  MET226      0.0401
     38  CG       -40.7930   74.5350   22.7290 C.3   226  MET226      0.0596
     39  SD       -41.2890   73.1090   23.7150 S.3   226  MET226     -0.1393
     40  CE       -40.0000   71.9330   23.3110 C.3   226  MET226      0.0692
     41  N        -42.7950   78.6860   23.0380 N.am  227  LEU227     -0.1980
     42  CA       -43.9040   79.6240   23.1470 C.3   227  LEU227      0.1596
     43  C        -43.8560   80.6930   22.0580 C.2   227  LEU227      0.2287
     44  O        -44.8770   81.0180   21.4550 O.2   227  LEU227     -0.2864
     45  CB       -43.9060   80.2690   24.5320 C.3   227  LEU227      0.0297
     46  CG       -45.2300   80.2010   25.2910 C.3   227  LEU227      0.0022
     47  CD1      -45.8030   78.8040   25.2340 C.3   227  LEU227      0.0001
     48  CD2      -45.0140   80.6070   26.7290 C.3   227  LEU227      0.0001
     49  N        -44.8460   79.0860   18.7880 N.3   230  VAL230     -0.1245
     50  CA       -46.2900   78.8650   18.7230 C.3   230  VAL230      0.1561
     51  C        -47.0430   80.1500   18.3740 C.2   230  VAL230      0.2260
     52  O        -48.0320   80.1210   17.6390 O.2   230  VAL230     -0.2867
     53  CB       -46.8290   78.2930   20.0590 C.3   230  VAL230      0.0252
     54  CG1      -48.3480   78.3770   20.1220 C.3   230  VAL230      0.0019
     55  CG2      -46.3720   76.8560   20.2410 C.3   230  VAL230      0.0019
     56  N        -49.5430   81.9220   29.1970 N.3   255  THR255     -0.1218
     57  CA       -48.6030   80.8800   29.5960 C.3   255  THR255      0.1862
     58  C        -47.2200   81.4730   29.8500 C.2   255  THR255      0.2287
     59  O        -46.5180   81.0590   30.7750 O.2   255  THR255     -0.2866
     60  CB       -48.5020   79.7660   28.5350 C.3   255  THR255      0.1770
     61  OG1      -49.8030   79.2220   28.2850 O.3   255  THR255     -0.2211
     62  CG2      -47.5860   78.6500   29.0140 C.3   255  THR255      0.0375
     63  N        -46.9390   83.0120   33.2340 N.3   258  ALA258     -0.1231
     64  CA       -46.7820   81.9960   34.2700 C.3   258  ALA258      0.1694
     65  C        -45.3150   81.6030   34.4190 C.2   258  ALA258      0.2591
     66  O        -44.8300   81.4090   35.5340 O.2   258  ALA258     -0.2718
     67  CB       -47.6290   80.7780   33.9540 C.3   258  ALA258      0.0304
     68  N        -44.6160   81.4870   33.2940 N.am  259  GLN259     -0.1979
     69  CA       -43.1850   81.2000   33.3060 C.3   259  GLN259      0.1601
     70  C        -42.4090   82.2910   34.0150 C.2   259  GLN259      0.2287
     71  O        -41.5220   82.0160   34.8200 O.2   259  GLN259     -0.2864
     72  CB       -42.6500   81.0510   31.8780 C.3   259  GLN259      0.0394
     73  CG       -43.0200   79.7640   31.1830 C.3   259  GLN259      0.0908
     74  CD       -42.3690   78.5690   31.8470 C.2   259  GLN259      0.2608
     75  OE1      -43.0420   77.7100   32.4060 O.2   259  GLN259     -0.2717
     76  NE2      -41.0430   78.5130   31.7880 N.am  259  GLN259     -0.0878
@<TRIPOS>BOND
     1    52    51    2
     2    51    50    1
     3    50    49    1
     4    50    53    1
     5    53    54    1
     6    53    55    1
     7    36    35    2
     8    44    43    2
     9    35    34    1
    10    35    41   am
    11    34    33    1
    12    34    37    1
    13    43    42    1
    14    38    37    1
    15    38    39    1
    16    41    42    1
    17    42    45    1
    18    40    39    1
    19    45    46    1
    20    21    20    2
    21    25    23    1
    22    47    46    1
    23    46    48    1
    24    29    28    2
    25    24    22    1
    26    20    19    1
    27    20    26   am
    28    19    22    1
    29    19    18    1
    30    28    27    1
    31    23    22    1
    32    27    26    1
    33    27    30    1
    34    26    32    1
    35    61    60    1
    36     8     6    1
    37    30    31    1
    38    60    62    1
    39    60    57    1
    40    32    31    1
    41    56    57    1
    42    57    58    1
    43     6     7    1
    44     6     5    1
    45    58    59    2
    46     2     1    1
    47     2     5    1
    48     2     3    1
    49     4     3    2
    50     3     9   am
    51    73    74    1
    52    73    72    1
    53    76    74   am
    54    74    75    2
    55    72    69    1
    56     9    10    1
    57    11    12    2
    58    11    10    1
    59    10    13    1
    60    63    64    1
    61    68    69    1
    62    68    65   am
    63    69    70    1
    64    67    64    1
    65    70    71    2
    66    64    65    1
    67    13    14    1
    68    65    66    2
    69    17    15   am
    70    14    15    1
    71    15    16    2
