@<TRIPOS>MOLECULE
tmp/4tnwO00.pdb
 93 87 0 0 0
SMALL
GASTEIGER

@<TRIPOS>ATOM
      1  N        -66.3780   82.1330   56.8620 N.3   218  LEU218     -0.1231
      2  CA       -66.8020   83.2500   56.0220 C.3   218  LEU218      0.1693
      3  C        -65.8170   83.5740   54.8970 C.2   218  LEU218      0.2591
      4  O        -66.1570   84.3070   53.9720 O.2   218  LEU218     -0.2718
      5  CB       -67.0430   84.4980   56.8810 C.3   218  LEU218      0.0284
      6  CG       -68.3400   84.4780   57.6960 C.3   218  LEU218      0.0019
      7  CD1      -68.4610   85.6840   58.6290 C.3   218  LEU218      0.0001
      8  CD2      -69.5180   84.3960   56.7500 C.3   218  LEU218      0.0001
      9  N        -64.6020   83.0390   54.9720 N.am  219  GLN219     -0.1979
     10  CA       -63.5970   83.3010   53.9380 C.3   219  GLN219      0.1601
     11  C        -63.4500   82.1830   52.9090 C.2   219  GLN219      0.2287
     12  O        -63.0720   82.4370   51.7640 O.2   219  GLN219     -0.2864
     13  CB       -62.2400   83.5840   54.5760 C.3   219  GLN219      0.0394
     14  CG       -62.1500   84.9630   55.1960 C.3   219  GLN219      0.0908
     15  CD       -62.3580   86.0650   54.1760 C.2   219  GLN219      0.2608
     16  OE1      -63.4360   86.6520   54.0870 O.2   219  GLN219     -0.2717
     17  NE2      -61.3180   86.3530   53.3980 N.am  219  GLN219     -0.0878
     18  N        -68.2200   79.3600   53.2710 N.3   222  ILE222     -0.1231
     19  CA       -69.4050   80.0560   52.7710 C.3   222  ILE222      0.1678
     20  C        -69.2870   80.4800   51.2940 C.2   222  ILE222      0.2434
     21  O        -70.1910   80.1970   50.5060 O.2   222  ILE222     -0.2733
     22  CB       -69.7390   81.3010   53.6370 C.3   222  ILE222      0.0265
     23  CG1      -70.2060   80.8760   55.0300 C.3   222  ILE222      0.0019
     24  CG2      -70.8160   82.1440   52.9750 C.3   222  ILE222      0.0020
     25  CD1      -71.4890   80.0720   55.0280 C.3   222  ILE222      0.0001
     26  N        -68.1790   81.1430   50.9030 N.am  223  PRO223     -0.2729
     27  CA       -68.1260   81.5930   49.5050 C.3   223  PRO223      0.1401
     28  C        -68.0220   80.4820   48.4620 C.2   223  PRO223      0.2269
     29  O        -68.5770   80.6250   47.3710 O.2   223  PRO223     -0.2865
     30  CB       -66.8600   82.4490   49.4690 C.3   223  PRO223      0.0296
     31  CG       -66.0240   81.9340   50.5640 C.3   223  PRO223      0.0237
     32  CD       -66.9820   81.5740   51.6470 C.3   223  PRO223      0.0939
     33  N        -71.4320   78.9300   47.7940 N.3   226  MET226     -0.1230
     34  CA       -72.2110   79.8160   46.9430 C.3   226  MET226      0.1702
     35  C        -71.7150   79.7330   45.5030 C.2   226  MET226      0.2592
     36  O        -72.5030   79.8290   44.5640 O.2   226  MET226     -0.2718
     37  CB       -72.1400   81.2520   47.4610 C.3   226  MET226      0.0401
     38  CG       -72.8310   81.4390   48.8050 C.3   226  MET226      0.0596
     39  SD       -72.7450   83.1180   49.4570 S.3   226  MET226     -0.1393
     40  CE       -74.1810   83.8630   48.6900 C.3   226  MET226      0.0692
     41  N        -70.4100   79.5380   45.3330 N.am  227  LEU227     -0.1980
     42  CA       -69.8270   79.4120   44.0000 C.3   227  LEU227      0.1596
     43  C        -70.2830   78.1250   43.3170 C.2   227  LEU227      0.2287
     44  O        -70.6260   78.1280   42.1350 O.2   227  LEU227     -0.2864
     45  CB       -68.2980   79.4510   44.0670 C.3   227  LEU227      0.0297
     46  CG       -67.6400   80.8310   44.0770 C.3   227  LEU227      0.0022
     47  CD1      -66.1290   80.6950   44.0230 C.3   227  LEU227      0.0001
     48  CD2      -68.1440   81.6760   42.9180 C.3   227  LEU227      0.0001
     49  N        -73.0080   76.4620   43.9810 N.3   229  ILE229     -0.1231
     50  CA       -74.4300   76.6210   43.7020 C.3   229  ILE229      0.1692
     51  C        -74.6530   77.4280   42.4210 C.2   229  ILE229      0.2591
     52  O        -75.5090   77.0830   41.6030 O.2   229  ILE229     -0.2718
     53  CB       -75.1580   77.2930   44.8830 C.3   229  ILE229      0.0266
     54  CG1      -75.1950   76.3430   46.0810 C.3   229  ILE229      0.0019
     55  CG2      -76.5740   77.6850   44.4960 C.3   229  ILE229      0.0020
     56  CD1      -75.9610   76.8830   47.2670 C.3   229  ILE229      0.0001
     57  N        -73.8710   78.4890   42.2400 N.am  230  VAL230     -0.1980
     58  CA       -73.9730   79.3240   41.0450 C.3   230  VAL230      0.1595
     59  C        -73.6300   78.5320   39.7810 C.2   230  VAL230      0.2287
     60  O        -74.2310   78.7390   38.7270 O.2   230  VAL230     -0.2864
     61  CB       -73.0610   80.5710   41.1520 C.3   230  VAL230      0.0276
     62  CG1      -72.8980   81.2550   39.8020 C.3   230  VAL230      0.0022
     63  CG2      -73.6250   81.5440   42.1670 C.3   230  VAL230      0.0022
     64  N        -62.9210   82.3860   39.7170 N.3   255  THR255     -0.1218
     65  CA       -63.1560   82.9690   41.0330 C.3   255  THR255      0.1862
     66  C        -62.7890   81.9690   42.1240 C.2   255  THR255      0.2287
     67  O        -62.2350   82.3390   43.1590 O.2   255  THR255     -0.2866
     68  CB       -64.6230   83.4110   41.2080 C.3   255  THR255      0.1770
     69  OG1      -64.9750   84.3260   40.1630 O.3   255  THR255     -0.2211
     70  CG2      -64.8240   84.0930   42.5520 C.3   255  THR255      0.0375
     71  N        -59.1130   81.8040   42.7340 N.3   258  ALA258     -0.1231
     72  CA       -58.6630   82.9390   43.5220 C.3   258  ALA258      0.1694
     73  C        -58.7790   82.6540   45.0150 C.2   258  ALA258      0.2591
     74  O        -57.8630   82.9500   45.7750 O.2   258  ALA258     -0.2718
     75  CB       -59.4620   84.1750   43.1570 C.3   258  ALA258      0.0304
     76  N        -59.8750   82.0210   45.4210 N.am  259  GLN259     -0.1979
     77  CA       -60.0830   81.6730   46.8260 C.3   259  GLN259      0.1601
     78  C        -58.9740   80.7600   47.3220 C.2   259  GLN259      0.2287
     79  O        -58.4760   80.9300   48.4330 O.2   259  GLN259     -0.2864
     80  CB       -61.4640   81.0340   47.0190 C.3   259  GLN259      0.0394
     81  CG       -62.5610   82.0630   46.8660 C.3   259  GLN259      0.0908
     82  CD       -62.5100   83.0980   47.9720 C.2   259  GLN259      0.2608
     83  OE1      -62.0810   84.2250   47.7520 O.2   259  GLN259     -0.2717
     84  NE2      -63.0540   82.7530   49.1360 N.am  259  GLN259     -0.0878
     85  N        -55.8850   80.5930   46.3390 N.3   261  ALA261     -0.1231
     86  CA       -54.6400   81.3410   46.5070 C.3   261  ALA261      0.1694
     87  C        -54.5740   82.0910   47.8400 C.2   261  ALA261      0.2592
     88  O        -53.5220   82.1450   48.4770 O.2   261  ALA261     -0.2718
     89  CB       -54.4580   82.3140   45.3520 C.3   261  ALA261      0.0304
     90  N        -55.6980   82.6670   48.2530 N.am  262  GLY262     -0.1957
     91  CA       -55.7820   83.3920   49.5100 C.3   262  GLY262      0.1869
     92  C        -55.5730   82.4920   50.7090 C.2   262  GLY262      0.2309
     93  O        -54.9700   82.8860   51.7080 O.2   262  GLY262     -0.2863
@<TRIPOS>BOND
     1    60    59    2
     2    64    65    1
     3    59    58    1
     4    62    61    1
     5    69    68    1
     6    65    68    1
     7    65    66    1
     8    58    61    1
     9    58    57    1
    10    61    63    1
    11    68    70    1
    12    52    51    2
    13    66    67    2
    14    44    43    2
    15    57    51   am
    16    51    50    1
    17    71    72    1
    18    48    46    1
    19    75    72    1
    20    43    42    1
    21    72    73    1
    22    50    49    1
    23    50    53    1
    24    42    45    1
    25    42    41    1
    26    47    46    1
    27    45    46    1
    28    55    53    1
    29    36    35    2
    30    53    54    1
    31    73    76   am
    32    73    74    2
    33    41    35   am
    34    89    86    1
    35    76    77    1
    36    35    34    1
    37    54    56    1
    38    85    86    1
    39    86    87    1
    40    77    80    1
    41    77    78    1
    42    81    80    1
    43    81    82    1
    44    34    37    1
    45    34    33    1
    46    78    79    2
    47    29    28    2
    48    37    38    1
    49    83    82    2
    50    87    90   am
    51    87    88    2
    52    82    84   am
    53    90    91    1
    54    28    27    1
    55    40    39    1
    56    38    39    1
    57    30    27    1
    58    30    31    1
    59    27    26    1
    60    91    92    1
    61    21    20    2
    62    31    32    1
    63    92    93    2
    64    26    20   am
    65    26    32    1
    66    20    19    1
    67    12    11    2
    68    19    18    1
    69    19    22    1
    70    11    10    1
    71    24    22    1
    72    17    15   am
    73    22    23    1
    74    10    13    1
    75    10     9    1
    76     4     3    2
    77    16    15    2
    78    15    14    1
    79    13    14    1
    80     3     9   am
    81     3     2    1
    82    25    23    1
    83     2     1    1
    84     2     5    1
    85     8     6    1
    86     5     6    1
    87     6     7    1
