@<TRIPOS>MOLECULE
tmp/4tnwN02.pdb
 147 140 0 0 0
SMALL
GASTEIGER

@<TRIPOS>ATOM
      1  N        -60.0890   90.9900   41.5910 N.3   257  THR257     -0.1218
      2  CA       -59.3400   89.8720   42.1440 C.3   257  THR257      0.1862
      3  C        -57.8840   90.2680   42.3330 C.2   257  THR257      0.2287
      4  O        -57.2690   89.9660   43.3560 O.2   257  THR257     -0.2866
      5  CB       -59.4000   88.6380   41.2290 C.3   257  THR257      0.1770
      6  OG1      -60.7610   88.3510   40.8890 O.3   257  THR257     -0.2211
      7  CG2      -58.7820   87.4370   41.9170 C.3   257  THR257      0.0375
      8  N        -57.4060   92.6780   45.2420 N.3   260  SER260     -0.1202
      9  CA       -57.4950   91.9280   46.4860 C.3   260  SER260      0.2020
     10  C        -56.2230   91.1230   46.7430 C.2   260  SER260      0.2618
     11  O        -55.7790   90.9910   47.8840 O.2   260  SER260     -0.2717
     12  CB       -58.7150   91.0100   46.4660 C.3   260  SER260      0.2103
     13  OG       -58.8170   90.2810   47.6750 O.3   260  SER260     -0.2182
     14  N        -55.6510   90.5800   45.6720 N.am  261  ALA261     -0.1979
     15  CA       -54.4340   89.7760   45.7610 C.3   261  ALA261      0.1597
     16  C        -53.2420   90.5880   46.2550 C.2   261  ALA261      0.2287
     17  O        -52.4140   90.0900   47.0180 O.2   261  ALA261     -0.2864
     18  CB       -54.1210   89.1490   44.4130 C.3   261  ALA261      0.0319
     19  N        -53.1300   91.0150   50.2040 N.3   264  ASN264     -0.1240
     20  CA       -52.7110   89.9110   51.0830 C.3   264  ASN264      0.1653
     21  C        -51.2540   89.9910   51.5330 C.2   264  ASN264      0.2266
     22  O        -50.9310   89.6710   52.6790 O.2   264  ASN264     -0.2867
     23  CB       -52.9390   88.5530   50.4130 C.3   264  ASN264      0.1155
     24  CG       -54.4010   88.1450   50.3910 C.2   264  ASN264      0.2627
     25  OD1      -55.2740   88.8900   50.8330 O.2   264  ASN264     -0.2716
     26  ND2      -54.6640   86.9250   49.9380 N.am  264  ASN264     -0.0877
     27  N        -61.2510   92.2790   55.3660 N.3   277  ASP277     -0.1225
     28  CA       -61.7070   91.0270   54.7790 C.3   277  ASP277      0.1805
     29  C        -63.1600   91.1710   54.3730 C.2   277  ASP277      0.2597
     30  O        -63.5800   90.6760   53.3270 O.2   277  ASP277     -0.2718
     31  CB       -61.5470   89.8650   55.7640 C.3   277  ASP277      0.1424
     32  CG       -60.1160   89.6810   56.2310 C.2   277  ASP277      0.3668
     33  OD1      -59.1870   89.9560   55.4410 O.co2 277  ASP277     -0.2456
     34  OD2      -59.9210   89.2530   57.3890 O.co2 277  ASP277     -0.2456
     35  N        -63.9200   91.8610   55.2150 N.am  278  VAL278     -0.1980
     36  CA       -65.3290   92.1120   54.9610 C.3   278  VAL278      0.1595
     37  C        -65.5160   92.9710   53.7180 C.2   278  VAL278      0.2287
     38  O        -66.3080   92.6420   52.8330 O.2   278  VAL278     -0.2864
     39  CB       -65.9960   92.8130   56.1590 C.3   278  VAL278      0.0276
     40  CG1      -67.3750   93.3250   55.7780 C.3   278  VAL278      0.0022
     41  CG2      -66.0790   91.8680   57.3450 C.3   278  VAL278      0.0022
     42  N        -63.5360   93.5130   51.3070 N.3   280  ILE280     -0.1231
     43  CA       -63.0550   92.8550   50.0980 C.3   280  ILE280      0.1692
     44  C        -64.1300   91.9120   49.5700 C.2   280  ILE280      0.2593
     45  O        -64.4640   91.9330   48.3840 O.2   280  ILE280     -0.2718
     46  CB       -61.7520   92.0670   50.3500 C.3   280  ILE280      0.0266
     47  CG1      -60.5450   93.0000   50.2850 C.3   280  ILE280      0.0019
     48  CG2      -61.5780   90.9660   49.3160 C.3   280  ILE280      0.0020
     49  CD1      -60.2750   93.5250   48.9000 C.3   280  ILE280      0.0001
     50  N        -64.6770   91.0960   50.4660 N.am  281  GLY281     -0.1942
     51  CA       -65.6900   90.1240   50.1000 C.3   281  GLY281      0.2014
     52  C        -66.9700   90.7430   49.5760 C.2   281  GLY281      0.2638
     53  O        -67.6530   90.1600   48.7330 O.2   281  GLY281     -0.2714
     54  N        -67.2940   91.9300   50.0760 N.am  282  ALA282     -0.1977
     55  CA       -68.4980   92.6290   49.6500 C.3   282  ALA282      0.1597
     56  C        -68.3660   93.1440   48.2230 C.2   282  ALA282      0.2287
     57  O        -69.2050   92.8500   47.3710 O.2   282  ALA282     -0.2864
     58  CB       -68.8050   93.7680   50.5930 C.3   282  ALA282      0.0319
     59  N        -66.3890   92.2310   46.0340 N.3   284  MET284     -0.1230
     60  CA       -66.2730   91.0720   45.1640 C.3   284  MET284      0.1702
     61  C        -67.6460   90.5130   44.8040 C.2   284  MET284      0.2593
     62  O        -67.8680   90.0530   43.6820 O.2   284  MET284     -0.2718
     63  CB       -65.4230   89.9890   45.8180 C.3   284  MET284      0.0401
     64  CG       -64.8960   88.9860   44.8240 C.3   284  MET284      0.0596
     65  SD       -63.7300   89.7280   43.6720 S.3   284  MET284     -0.1393
     66  CE       -63.2650   88.2820   42.7240 C.3   284  MET284      0.0692
     67  N        -68.5650   90.5600   45.7630 N.am  285  THR285     -0.1939
     68  CA       -69.9060   90.0290   45.5640 C.3   285  THR285      0.2028
     69  C        -70.7150   90.9150   44.6210 C.2   285  THR285      0.2642
     70  O        -71.3510   90.4190   43.6900 O.2   285  THR285     -0.2714
     71  CB       -70.6560   89.8860   46.9000 C.3   285  THR285      0.1808
     72  OG1      -69.9260   89.0090   47.7670 O.3   285  THR285     -0.2208
     73  CG2      -72.0510   89.3250   46.6730 C.3   285  THR285      0.0379
     74  N        -70.6950   92.2230   44.8700 N.am  286  PHE286     -0.1973
     75  CA       -71.4200   93.1730   44.0320 C.3   286  PHE286      0.1639
     76  C        -71.0080   93.0700   42.5690 C.2   286  PHE286      0.2290
     77  O        -71.8420   93.1790   41.6700 O.2   286  PHE286     -0.2864
     78  CB       -71.2000   94.6090   44.5100 C.3   286  PHE286      0.0560
     79  CG       -72.1060   95.0220   45.6290 C.ar  286  PHE286     -0.0200
     80  CD1      -71.7830   94.7320   46.9410 C.ar  286  PHE286     -0.0042
     81  CD2      -73.2940   95.6810   45.3650 C.ar  286  PHE286     -0.0042
     82  CE1      -72.6150   95.1140   47.9730 C.ar  286  PHE286     -0.0003
     83  CE2      -74.1360   96.0570   46.3930 C.ar  286  PHE286     -0.0003
     84  CZ       -73.7950   95.7710   47.6980 C.ar  286  PHE286     -0.0000
     85  N        -69.5190   90.3510   41.1790 N.3   288  PHE288     -0.1227
     86  CA       -69.8650   89.0210   40.6940 C.3   288  PHE288      0.1736
     87  C        -71.3420   88.9450   40.3260 C.2   288  PHE288      0.2595
     88  O        -71.7100   88.3510   39.3130 O.2   288  PHE288     -0.2718
     89  CB       -69.5380   87.9560   41.7410 C.3   288  PHE288      0.0547
     90  CG       -69.4620   86.5610   41.1840 C.ar  288  PHE288     -0.0202
     91  CD1      -70.6140   85.8290   40.9400 C.ar  288  PHE288     -0.0042
     92  CD2      -68.2360   85.9740   40.9220 C.ar  288  PHE288     -0.0042
     93  CE1      -70.5450   84.5470   40.4330 C.ar  288  PHE288     -0.0003
     94  CE2      -68.1610   84.6900   40.4190 C.ar  288  PHE288     -0.0003
     95  CZ       -69.3170   83.9760   40.1710 C.ar  288  PHE288     -0.0000
     96  N        -72.1840   89.5540   41.1540 N.am  289  CYS289     -0.1970
     97  CA       -73.6250   89.5260   40.9360 C.3   289  CYS289      0.1712
     98  C        -74.0260   90.3660   39.7300 C.2   289  CYS289      0.2296
     99  O        -74.9730   90.0290   39.0180 O.2   289  CYS289     -0.2864
    100  CB       -74.3610   90.0130   42.1840 C.3   289  CYS289      0.0983
    101  SG       -74.3130   88.8460   43.5580 S.3   289  CYS289     -0.0798
    102  N        -73.3680   88.1620   37.0470 N.3   292  LEU292     -0.1245
    103  CA       -74.3880   87.1210   37.1020 C.3   292  LEU292      0.1561
    104  C        -75.7250   87.6220   36.5650 C.2   292  LEU292      0.2260
    105  O        -76.4610   86.8790   35.9140 O.2   292  LEU292     -0.2867
    106  CB       -74.5570   86.6140   38.5360 C.3   292  LEU292      0.0270
    107  CG       -75.6720   85.5920   38.7690 C.3   292  LEU292      0.0019
    108  CD1      -75.3330   84.2600   38.1220 C.3   292  LEU292      0.0001
    109  CD2      -75.9400   85.4200   40.2570 C.3   292  LEU292      0.0001
    110  N        -81.5240   98.7730   42.3510 N.3   322  LEU322     -0.1231
    111  CA       -81.2230   97.8610   43.4540 C.3   322  LEU322      0.1693
    112  C        -79.7500   97.8830   43.8620 C.2   322  LEU322      0.2592
    113  O        -79.4300   98.0580   45.0380 O.2   322  LEU322     -0.2718
    114  CB       -81.6320   96.4330   43.0870 C.3   322  LEU322      0.0284
    115  CG       -81.6290   95.4100   44.2230 C.3   322  LEU322      0.0019
    116  CD1      -82.5970   95.8290   45.3160 C.3   322  LEU322      0.0001
    117  CD2      -81.9730   94.0260   43.7010 C.3   322  LEU322      0.0001
    118  N        -78.8590   97.7020   42.8910 N.am  323  PHE323     -0.1976
    119  CA       -77.4220   97.6610   43.1670 C.3   323  PHE323      0.1639
    120  C        -76.8590   98.9430   43.8030 C.2   323  PHE323      0.2290
    121  O        -76.1150   98.8550   44.7810 O.2   323  PHE323     -0.2864
    122  CB       -76.6420   97.3300   41.8880 C.3   323  PHE323      0.0560
    123  CG       -76.6380   95.8680   41.5420 C.ar  323  PHE323     -0.0200
    124  CD1      -77.7460   95.2750   40.9620 C.ar  323  PHE323     -0.0042
    125  CD2      -75.5240   95.0860   41.8040 C.ar  323  PHE323     -0.0042
    126  CE1      -77.7420   93.9290   40.6450 C.ar  323  PHE323     -0.0003
    127  CE2      -75.5150   93.7410   41.4910 C.ar  323  PHE323     -0.0003
    128  CZ       -76.6240   93.1610   40.9100 C.ar  323  PHE323     -0.0000
    129  N        -78.3330   99.0530   47.4810 N.3   326  LEU326     -0.1245
    130  CA       -77.7700   98.0130   48.3330 C.3   326  LEU326      0.1561
    131  C        -76.3200   98.3190   48.6940 C.2   326  LEU326      0.2260
    132  O        -75.8870   98.0770   49.8220 O.2   326  LEU326     -0.2867
    133  CB       -77.8680   96.6490   47.6510 C.3   326  LEU326      0.0270
    134  CG       -79.2660   96.0270   47.6260 C.3   326  LEU326      0.0019
    135  CD1      -79.2280   94.6460   46.9920 C.3   326  LEU326      0.0001
    136  CD2      -79.8540   95.9630   49.0280 C.3   326  LEU326      0.0001
    137  N        -74.7240   99.1530   52.3140 N.3   330  PHE330     -0.1241
    138  CA       -73.5400   98.4810   52.8330 C.3   330  PHE330      0.1605
    139  C        -72.5230   99.4640   53.4100 C.2   330  PHE330      0.2264
    140  O        -72.0140   99.2570   54.5110 O.2   330  PHE330     -0.2867
    141  CB       -72.8720   97.6340   51.7490 C.3   330  PHE330      0.0534
    142  CG       -71.5140   97.1300   52.1400 C.ar  330  PHE330     -0.0203
    143  CD1      -71.3860   96.0740   53.0270 C.ar  330  PHE330     -0.0042
    144  CD2      -70.3670   97.7230   51.6410 C.ar  330  PHE330     -0.0042
    145  CE1      -70.1410   95.6130   53.4030 C.ar  330  PHE330     -0.0003
    146  CE2      -69.1190   97.2660   52.0130 C.ar  330  PHE330     -0.0003
    147  CZ       -69.0050   96.2130   52.8980 C.ar  330  PHE330     -0.0000
@<TRIPOS>BOND
     1   105   104    2
     2   104   103    1
     3   102   103    1
     4   103   106    1
     5   108   107    1
     6   106   107    1
     7   107   109    1
     8    99    98    2
     9    88    87    2
    10    98    97    1
    11    95    94   ar
    12    95    93   ar
    13    87    86    1
    14    87    96   am
    15    94    92   ar
    16    93    91   ar
    17   126   128   ar
    18   126   124   ar
    19    86    85    1
    20    86    89    1
    21     6     5    1
    22   128   127   ar
    23    92    90   ar
    24    97    96    1
    25    97   100    1
    26    91    90   ar
    27   124   123   ar
    28    90    89    1
    29     5     7    1
    30     5     2    1
    31   127   125   ar
    32   123   125   ar
    33   123   122    1
    34     1     2    1
    35    77    76    2
    36   122   119    1
    37     2     3    1
    38   100   101    1
    39     3     4    2
    40   110   111    1
    41    76    75    1
    42    66    65    1
    43   118   119    1
    44   118   112   am
    45   114   111    1
    46   114   115    1
    47   119   120    1
    48   111   112    1
    49    65    64    1
    50    62    61    2
    51    70    69    2
    52   117   115    1
    53   120   121    2
    54   112   113    2
    55    75    78    1
    56    75    74    1
    57   115   116    1
    58    18    15    1
    59    78    79    1
    60    69    74   am
    61    69    68    1
    62    61    60    1
    63    61    67   am
    64    64    63    1
    65    60    63    1
    66    60    59    1
    67     8     9    1
    68    81    79   ar
    69    81    83   ar
    70    68    67    1
    71    68    71    1
    72    79    80   ar
    73    14    15    1
    74    14    10   am
    75    15    16    1
    76    16    17    2
    77    83    84   ar
    78    12     9    1
    79    12    13    1
    80     9    10    1
    81    73    71    1
    82    10    11    2
    83    71    72    1
    84    80    82   ar
    85   135   134    1
    86    57    56    2
    87   129   130    1
    88   134   133    1
    89   134   136    1
    90   133   130    1
    91    84    82   ar
    92    56    55    1
    93   130   131    1
    94    45    44    2
    95   131   132    2
    96    53    52    2
    97    49    47    1
    98    48    46    1
    99    44    43    1
   100    44    50   am
   101    52    54   am
   102    52    51    1
   103    55    54    1
   104    55    58    1
   105    26    24   am
   106    43    46    1
   107    43    42    1
   108    51    50    1
   109    19    20    1
   110    47    46    1
   111    24    23    1
   112    24    25    2
   113    23    20    1
   114    20    21    1
   115    21    22    2
   116   144   146   ar
   117   144   142   ar
   118   141   142    1
   119   141   138    1
   120   146   147   ar
   121   142   143   ar
   122   137   138    1
   123    38    37    2
   124   138   139    1
   125   147   145   ar
   126   143   145   ar
   127    30    29    2
   128   139   140    2
   129    37    36    1
   130    29    28    1
   131    29    35   am
   132    28    27    1
   133    28    31    1
   134    36    35    1
   135    36    39    1
   136    33    32   ar
   137    31    32    1
   138    40    39    1
   139    39    41    1
   140    32    34   ar
