@<TRIPOS>MOLECULE
tmp/4tnwD02.pdb
 90 89 0 0 0
SMALL
GASTEIGER

@<TRIPOS>ATOM
      1  N        -65.7740   12.3990   31.3950 N.3   139  MET139     -0.1230
      2  CA       -66.2490   13.7580   31.2280 C.3   139  MET139      0.1702
      3  C        -66.3170   14.0740   29.7450 C.2   139  MET139      0.2592
      4  O        -65.6070   14.9500   29.2420 O.2   139  MET139     -0.2718
      5  CB       -65.3220   14.7570   31.9240 C.3   139  MET139      0.0401
      6  CG       -65.0920   14.5060   33.3960 C.3   139  MET139      0.0596
      7  SD       -63.6830   13.4390   33.7560 S.3   139  MET139     -0.1393
      8  CE       -62.3820   14.2470   32.8300 C.3   139  MET139      0.0692
      9  N        -67.1980   13.3730   29.0450 N.am  140  ASP140     -0.1960
     10  CA       -67.3120   13.6000   27.6230 C.3   140  ASP140      0.1840
     11  C        -68.7070   14.0570   27.2730 C.2   140  ASP140      0.2621
     12  O        -69.6090   14.0870   28.1160 O.2   140  ASP140     -0.2715
     13  CB       -66.9640   12.3260   26.8410 C.3   140  ASP140      0.1450
     14  CG       -67.9550   11.1970   27.0890 C.2   140  ASP140      0.3671
     15  OD1      -68.5690   11.1530   28.1780 O.co2 140  ASP140     -0.2456
     16  OD2      -68.1040   10.3250   26.2060 O.co2 140  ASP140     -0.2456
     17  N        -68.8630   14.4080   26.0070 N.am  141  VAL141     -0.1977
     18  CA       -70.1290   14.8320   25.4660 C.3   141  VAL141      0.1596
     19  C        -70.2210   14.2780   24.0630 C.2   141  VAL141      0.2287
     20  O        -69.2660   14.3410   23.2950 O.2   141  VAL141     -0.2864
     21  CB       -70.2640   16.3630   25.4880 C.3   141  VAL141      0.0276
     22  CG1      -70.5570   16.8430   26.8950 C.3   141  VAL141      0.0022
     23  CG2      -68.9890   17.0020   24.9610 C.3   141  VAL141      0.0022
     24  N        -74.7270   14.1700   27.3520 N.3   210  LYS210     -0.1245
     25  CA       -73.7660   14.3170   28.4370 C.3   210  LYS210      0.1561
     26  C        -73.7990   13.0670   29.3020 C.2   210  LYS210      0.2260
     27  O        -74.8710   12.5440   29.5960 O.2   210  LYS210     -0.2867
     28  CB       -74.0830   15.5510   29.2830 C.3   210  LYS210      0.0271
     29  CG       -73.2770   15.6500   30.5670 C.3   210  LYS210      0.0035
     30  CD       -73.7350   16.8190   31.4230 C.3   210  LYS210      0.0206
     31  CE       -73.0500   16.8030   32.7830 C.3   210  LYS210      0.1093
     32  NZ       -71.5790   16.9920   32.6860 N.3   210  LYS210     -0.1314
     33  N        -71.8360   12.1620   35.2320 N.3   213  PHE213     -0.1241
     34  CA       -70.5240   12.3310   35.8250 C.3   213  PHE213      0.1605
     35  C        -70.4820   12.1000   37.3350 C.2   213  PHE213      0.2264
     36  O        -69.4210   11.8110   37.8800 O.2   213  PHE213     -0.2867
     37  CB       -69.9990   13.7190   35.4430 C.3   213  PHE213      0.0534
     38  CG       -68.7340   14.1100   36.1320 C.ar  213  PHE213     -0.0203
     39  CD1      -67.5340   13.5060   35.8070 C.ar  213  PHE213     -0.0042
     40  CD2      -68.7250   15.1630   37.0240 C.ar  213  PHE213     -0.0042
     41  CE1      -66.3630   13.8860   36.4310 C.ar  213  PHE213     -0.0003
     42  CE2      -67.5600   15.5590   37.6230 C.ar  213  PHE213     -0.0003
     43  CZ       -66.3760   14.9180   37.3360 C.ar  213  PHE213     -0.0000
     44  N        -67.5320   10.4930   39.1240 N.3   217  LEU217     -0.1245
     45  CA       -66.8920   11.4390   40.0360 C.3   217  LEU217      0.1561
     46  C        -66.6480   10.8400   41.4050 C.2   217  LEU217      0.2260
     47  O        -65.5210   10.7820   41.8860 O.2   217  LEU217     -0.2867
     48  CB       -67.7390   12.7130   40.2270 C.3   217  LEU217      0.0270
     49  CG       -67.1490   13.7610   41.1960 C.3   217  LEU217      0.0019
     50  CD1      -67.3760   15.1870   40.7670 C.3   217  LEU217      0.0001
     51  CD2      -67.7060   13.6020   42.6110 C.3   217  LEU217      0.0001
     52  N        -57.0630   18.3320   35.2870 N.3   335  TRP335     -0.1241
     53  CA       -58.4140   18.8690   35.1920 C.3   335  TRP335      0.1605
     54  C        -58.5050   20.0410   34.2190 C.2   335  TRP335      0.2264
     55  O        -59.5750   20.3210   33.6810 O.2   335  TRP335     -0.2867
     56  CB       -58.9180   19.2920   36.5740 C.3   335  TRP335      0.0550
     57  CG       -59.1060   18.1320   37.5030 C.ar  335  TRP335      0.0003
     58  CD1      -58.3380   17.8180   38.5860 C.ar  335  TRP335      0.0946
     59  CD2      -60.0970   17.1030   37.4030 C.ar  335  TRP335      0.0152
     60  NE1      -58.8040   16.6730   39.1820 N.ar  335  TRP335     -0.2442
     61  CE2      -59.8820   16.2120   38.4740 C.ar  335  TRP335      0.0810
     62  CE3      -61.1510   16.8540   36.5200 C.ar  335  TRP335      0.0012
     63  CZ2      -60.6820   15.0920   38.6840 C.ar  335  TRP335      0.0191
     64  CZ3      -61.9440   15.7420   36.7310 C.ar  335  TRP335      0.0001
     65  CH2      -61.7050   14.8760   37.8040 C.ar  335  TRP335      0.0015
     66  N        -58.6910   18.0460   30.7700 N.3   338  PHE338     -0.1227
     67  CA       -59.9440   17.3340   30.5550 C.3   338  PHE338      0.1736
     68  C        -61.1010   18.1160   31.1720 C.2   338  PHE338      0.2596
     69  O        -62.0620   17.5490   31.6900 O.2   338  PHE338     -0.2718
     70  CB       -59.8560   15.9230   31.1280 C.3   338  PHE338      0.0547
     71  CG       -58.7650   15.0920   30.5150 C.ar  338  PHE338     -0.0202
     72  CD1      -58.4660   15.2010   29.1660 C.ar  338  PHE338     -0.0042
     73  CD2      -58.0240   14.2180   31.2900 C.ar  338  PHE338     -0.0042
     74  CE1      -57.4600   14.4410   28.6000 C.ar  338  PHE338     -0.0003
     75  CE2      -57.0170   13.4550   30.7290 C.ar  338  PHE338     -0.0003
     76  CZ       -56.7340   13.5670   29.3830 C.ar  338  PHE338     -0.0000
     77  N        -60.9690   19.4360   31.1010 N.am  339  GLY339     -0.1942
     78  CA       -61.9520   20.3880   31.5840 C.3   339  GLY339      0.2014
     79  C        -62.7790   20.9020   30.4220 C.2   339  GLY339      0.2638
     80  O        -63.6490   21.7560   30.5880 O.2   339  GLY339     -0.2714
     81  N        -62.4690   20.3920   29.2340 N.am  340  HIS340     -0.1973
     82  CA       -63.1110   20.8180   27.9960 C.3   340  HIS340      0.1656
     83  C        -63.7780   19.6460   27.2810 C.2   340  HIS340      0.2291
     84  O        -64.9050   19.7630   26.7990 O.2   340  HIS340     -0.2864
     85  CB       -62.0810   21.4690   27.0680 C.3   340  HIS340      0.0771
     86  CG       -62.6330   21.8710   25.7360 C.ar  340  HIS340      0.0820
     87  ND1      -62.7400   20.9900   24.6800 N.ar  340  HIS340     -0.2267
     88  CD2      -63.0880   23.0610   25.2790 C.ar  340  HIS340      0.1154
     89  CE1      -63.2500   21.6170   23.6360 C.ar  340  HIS340      0.1986
     90  NE2      -63.4690   22.8760   23.9720 N.ar  340  HIS340     -0.2212
@<TRIPOS>BOND
     1    20    19    2
     2    89    90   ar
     3    89    87   ar
     4    90    88   ar
     5    19    18    1
     6    87    86   ar
     7    23    21    1
     8    88    86   ar
     9    18    21    1
    10    18    17    1
    11    21    22    1
    12    86    85    1
    13    17    11   am
    14    16    14   ar
    15    84    83    2
    16    13    14    1
    17    13    10    1
    18    85    82    1
    19    14    15   ar
    20    11    10    1
    21    11    12    2
    22    83    82    1
    23    24    25    1
    24    10     9    1
    25    82    81    1
    26    25    28    1
    27    25    26    1
    28    74    72   ar
    29    74    76   ar
    30     9     3   am
    31    72    71   ar
    32    81    79   am
    33     4     3    2
    34    28    29    1
    35    26    27    2
    36    76    75   ar
    37     3     2    1
    38    79    80    2
    39    79    78    1
    40    71    70    1
    41    71    73   ar
    42    67    66    1
    43    67    70    1
    44    67    68    1
    45    29    30    1
    46    75    73   ar
    47    77    68   am
    48    77    78    1
    49    68    69    2
    50     2     1    1
    51     2     5    1
    52    30    31    1
    53     5     6    1
    54    32    31    1
    55     8     7    1
    56     6     7    1
    57    55    54    2
    58    54    53    1
    59    53    52    1
    60    53    56    1
    61    33    34    1
    62    37    34    1
    63    37    38    1
    64    39    38   ar
    65    39    41   ar
    66    34    35    1
    67    38    40   ar
    68    41    43   ar
    69    62    64   ar
    70    62    59   ar
    71    56    57    1
    72    64    65   ar
    73    40    42   ar
    74    35    36    2
    75    43    42   ar
    76    59    57   ar
    77    59    61   ar
    78    57    58   ar
    79    65    63   ar
    80    61    63   ar
    81    61    60   ar
    82    58    60   ar
    83    44    45    1
    84    45    48    1
    85    45    46    1
    86    48    49    1
    87    50    49    1
    88    49    51    1
    89    46    47    2
