@<TRIPOS>MOLECULE
tmp/4tnwD00.pdb
 95 89 0 0 0
SMALL
GASTEIGER

@<TRIPOS>ATOM
      1  N        -59.8550    0.0450   40.4950 N.3   260  SER260     -0.1202
      2  CA       -59.5590    0.0880   39.0690 C.3   260  SER260      0.2020
      3  C        -60.3130   -1.0110   38.3230 C.2   260  SER260      0.2618
      4  O        -60.8000   -0.7970   37.2120 O.2   260  SER260     -0.2717
      5  CB       -58.0550   -0.0520   38.8320 C.3   260  SER260      0.2103
      6  OG       -57.7520   -0.0200   37.4500 O.3   260  SER260     -0.2182
      7  N        -60.3980   -2.1860   38.9380 N.am  261  ALA261     -0.1979
      8  CA       -61.1000   -3.3180   38.3420 C.3   261  ALA261      0.1597
      9  C        -62.6020   -3.0670   38.2170 C.2   261  ALA261      0.2287
     10  O        -63.2170   -3.4350   37.2160 O.2   261  ALA261     -0.2864
     11  CB       -60.8460   -4.5780   39.1540 C.3   261  ALA261      0.0319
     12  N        -64.1680   -0.1510   37.9220 N.3   263  ILE263     -0.1231
     13  CA       -64.3990    0.8500   36.8880 C.3   263  ILE263      0.1692
     14  C        -64.2610    0.2540   35.4840 C.2   263  ILE263      0.2592
     15  O        -64.9550    0.6620   34.5500 O.2   263  ILE263     -0.2718
     16  CB       -63.4250    2.0410   37.0440 C.3   263  ILE263      0.0266
     17  CG1      -63.5580    2.6580   38.4370 C.3   263  ILE263      0.0019
     18  CG2      -63.6700    3.0950   35.9740 C.3   263  ILE263      0.0020
     19  CD1      -64.9820    2.9720   38.8390 C.3   263  ILE263      0.0001
     20  N        -63.3660   -0.7210   35.3540 N.am  264  ASN264     -0.1974
     21  CA       -63.0490   -1.3470   34.0690 C.3   264  ASN264      0.1688
     22  C        -64.2050   -2.0350   33.3330 C.2   264  ASN264      0.2292
     23  O        -64.3210   -1.8940   32.1160 O.2   264  ASN264     -0.2864
     24  CB       -61.9130   -2.3620   34.2770 C.3   264  ASN264      0.1181
     25  CG       -61.3310   -2.8780   32.9690 C.2   264  ASN264      0.2629
     26  OD1      -60.2230   -2.5070   32.5840 O.2   264  ASN264     -0.2716
     27  ND2      -62.0630   -3.7590   32.2960 N.am  264  ASN264     -0.0877
     28  N        -66.4650    0.3450   31.7620 N.3   267  LEU267     -0.1245
     29  CA       -65.7380    0.9620   30.6750 C.3   267  LEU267      0.1561
     30  C        -65.6980    0.0180   29.4930 C.2   267  LEU267      0.2260
     31  O        -65.2880   -1.1320   29.6190 O.2   267  LEU267     -0.2867
     32  CB       -64.3200    1.3000   31.1380 C.3   267  LEU267      0.0270
     33  CG       -63.2890    1.6550   30.0700 C.3   267  LEU267      0.0019
     34  CD1      -63.6550    2.9720   29.4350 C.3   267  LEU267      0.0001
     35  CD2      -61.8940    1.6930   30.6890 C.3   267  LEU267      0.0001
     36  N        -59.8490    8.5230   31.6980 N.3   276  ILE276     -0.1231
     37  CA       -59.9640    7.6490   32.8590 C.3   276  ILE276      0.1692
     38  C        -58.7000    6.8100   33.0430 C.2   276  ILE276      0.2592
     39  O        -58.3660    6.4180   34.1590 O.2   276  ILE276     -0.2718
     40  CB       -61.1980    6.7130   32.7440 C.3   276  ILE276      0.0266
     41  CG1      -61.5910    6.1630   34.1150 C.3   276  ILE276      0.0019
     42  CG2      -60.9700    5.5990   31.7220 C.3   276  ILE276      0.0020
     43  CD1      -62.3090    7.1760   34.9660 C.3   276  ILE276      0.0001
     44  N        -57.9950    6.5490   31.9450 N.am  277  ASP277     -0.1974
     45  CA       -56.7740    5.7530   31.9860 C.3   277  ASP277      0.1709
     46  C        -55.6170    6.5510   32.5670 C.2   277  ASP277      0.2293
     47  O        -54.7950    6.0210   33.3160 O.2   277  ASP277     -0.2864
     48  CB       -56.4100    5.2510   30.5890 C.3   277  ASP277      0.1436
     49  CG       -57.5100    4.4180   29.9630 C.2   277  ASP277      0.3671
     50  OD1      -58.2280    3.7170   30.7090 O.co2 277  ASP277     -0.2456
     51  OD2      -57.6510    4.4620   28.7230 O.co2 277  ASP277     -0.2456
     52  N        -56.0380    7.0390   36.3720 N.3   280  ILE280     -0.1231
     53  CA       -55.8400    5.7830   37.0850 C.3   280  ILE280      0.1692
     54  C        -54.3520    5.4610   37.1990 C.2   280  ILE280      0.2592
     55  O        -53.8580    5.1420   38.2810 O.2   280  ILE280     -0.2718
     56  CB       -56.5730    4.6170   36.3950 C.3   280  ILE280      0.0266
     57  CG1      -58.0490    4.6080   36.7910 C.3   280  ILE280      0.0019
     58  CG2      -55.9540    3.2960   36.7800 C.3   280  ILE280      0.0020
     59  CD1      -58.2850    4.2500   38.2430 C.3   280  ILE280      0.0001
     60  N        -53.6440    5.5640   36.0770 N.am  281  GLY281     -0.1957
     61  CA       -52.2250    5.2580   36.0300 C.3   281  GLY281      0.1869
     62  C        -51.3990    6.1680   36.9150 C.2   281  GLY281      0.2309
     63  O        -50.3590    5.7670   37.4380 O.2   281  GLY281     -0.2863
     64  N        -52.0780    5.2390   40.6120 N.3   284  MET284     -0.1230
     65  CA       -51.4120    3.9580   40.8010 C.3   284  MET284      0.1702
     66  C        -49.9260    4.1790   41.0570 C.2   284  MET284      0.2593
     67  O        -49.3100    3.4760   41.8570 O.2   284  MET284     -0.2718
     68  CB       -51.6140    3.0580   39.5800 C.3   284  MET284      0.0401
     69  CG       -51.3690    1.5800   39.8410 C.3   284  MET284      0.0596
     70  SD       -52.5750    0.8400   40.9590 S.3   284  MET284     -0.1393
     71  CE       -52.0250   -0.8640   40.9670 C.3   284  MET284      0.0692
     72  N        -49.3600    5.1660   40.3710 N.am  285  THR285     -0.1953
     73  CA       -47.9400    5.4760   40.4900 C.3   285  THR285      0.1897
     74  C        -47.6090    6.1500   41.8190 C.2   285  THR285      0.2313
     75  O        -46.6650    5.7520   42.5020 O.2   285  THR285     -0.2863
     76  CB       -47.4690    6.3880   39.3430 C.3   285  THR285      0.1794
     77  OG1      -47.7160    5.7470   38.0860 O.3   285  THR285     -0.2208
     78  CG2      -45.9830    6.6950   39.4760 C.3   285  THR285      0.0378
     79  N        -47.5980    3.7140   44.5150 N.3   288  PHE288     -0.1227
     80  CA       -46.4790    2.7970   44.3330 C.3   288  PHE288      0.1736
     81  C        -45.1660    3.4450   44.7650 C.2   288  PHE288      0.2595
     82  O        -44.3230    2.8010   45.3910 O.2   288  PHE288     -0.2718
     83  CB       -46.3910    2.3430   42.8740 C.3   288  PHE288      0.0547
     84  CG       -45.5570    1.1080   42.6710 C.ar  288  PHE288     -0.0202
     85  CD1      -44.1760    1.1870   42.5990 C.ar  288  PHE288     -0.0042
     86  CD2      -46.1580   -0.1340   42.5490 C.ar  288  PHE288     -0.0042
     87  CE1      -43.4100    0.0510   42.4110 C.ar  288  PHE288     -0.0003
     88  CE2      -45.3980   -1.2740   42.3590 C.ar  288  PHE288     -0.0003
     89  CZ       -44.0220   -1.1810   42.2910 C.ar  288  PHE288     -0.0000
     90  N        -45.0000    4.7210   44.4310 N.am  289  CYS289     -0.1970
     91  CA       -43.7820    5.4480   44.7690 C.3   289  CYS289      0.1712
     92  C        -43.6970    5.6990   46.2680 C.2   289  CYS289      0.2296
     93  O        -42.6090    5.7110   46.8440 O.2   289  CYS289     -0.2864
     94  CB       -43.7160    6.7760   44.0120 C.3   289  CYS289      0.0983
     95  SG       -43.3770    6.6180   42.2440 S.3   289  CYS289     -0.0798
@<TRIPOS>BOND
     1    51    49   ar
     2    34    33    1
     3    30    31    2
     4    30    29    1
     5    49    48    1
     6    49    50   ar
     7    33    35    1
     8    33    32    1
     9    48    45    1
    10    29    32    1
    11    29    28    1
    12    36    37    1
    13    42    40    1
    14    44    45    1
    15    44    38   am
    16    45    46    1
    17    23    22    2
    18    27    25   am
    19    46    47    2
    20    26    25    2
    21    40    37    1
    22    40    41    1
    23    37    38    1
    24    25    24    1
    25    38    39    2
    26    22    21    1
    27    21    24    1
    28    21    20    1
    29    41    43    1
    30    15    14    2
    31    20    14   am
    32    14    13    1
    33    18    16    1
    34    61    60    1
    35    61    62    1
    36    60    54   am
    37    52    53    1
    38    56    58    1
    39    56    57    1
    40    56    53    1
    41    57    59    1
    42    13    16    1
    43    13    12    1
    44    62    63    2
    45    16    17    1
    46    53    54    1
    47    54    55    2
    48     4     3    2
    49    10     9    2
    50     6     5    1
    51    77    76    1
    52     9     8    1
    53     3     7   am
    54     3     2    1
    55     8     7    1
    56     8    11    1
    57    17    19    1
    58     5     2    1
    59     2     1    1
    60    76    78    1
    61    76    73    1
    62    68    69    1
    63    68    65    1
    64    69    70    1
    65    72    73    1
    66    72    66   am
    67    73    74    1
    68    64    65    1
    69    65    66    1
    70    70    71    1
    71    66    67    2
    72    74    75    2
    73    95    94    1
    74    89    88   ar
    75    89    87   ar
    76    88    86   ar
    77    87    85   ar
    78    86    84   ar
    79    85    84   ar
    80    84    83    1
    81    83    80    1
    82    94    91    1
    83    80    79    1
    84    80    81    1
    85    90    81   am
    86    90    91    1
    87    81    82    2
    88    91    92    1
    89    92    93    2
