@<TRIPOS>MOLECULE
tmp/4tnwR00.pdb
 139 132 0 0 0
SMALL
GASTEIGER

@<TRIPOS>ATOM
      1  N        -51.3010   94.2220   34.7750 N.3   257  THR257     -0.1218
      2  CA       -51.4740   93.6310   36.0940 C.3   257  THR257      0.1862
      3  C        -50.2260   92.8490   36.4890 C.2   257  THR257      0.2287
      4  O        -49.7910   92.8950   37.6410 O.2   257  THR257     -0.2866
      5  CB       -52.6920   92.6980   36.1410 C.3   257  THR257      0.1770
      6  OG1      -53.8410   93.3840   35.6320 O.3   257  THR257     -0.2211
      7  CG2      -52.9640   92.2510   37.5650 C.3   257  THR257      0.0375
      8  N        -47.4780   95.0190   37.8140 N.3   260  SER260     -0.1202
      9  CA       -47.7660   95.4610   39.1710 C.3   260  SER260      0.2020
     10  C        -47.3450   94.4010   40.1820 C.2   260  SER260      0.2618
     11  O        -46.8360   94.7190   41.2580 O.2   260  SER260     -0.2717
     12  CB       -49.2530   95.7850   39.3200 C.3   260  SER260      0.2103
     13  OG       -49.5510   96.2240   40.6310 O.3   260  SER260     -0.2182
     14  N        -47.5610   93.1400   39.8250 N.am  261  ALA261     -0.1979
     15  CA       -47.1860   92.0200   40.6770 C.3   261  ALA261      0.1597
     16  C        -45.6700   91.9600   40.8540 C.2   261  ALA261      0.2287
     17  O        -45.1760   91.6150   41.9260 O.2   261  ALA261     -0.2864
     18  CB       -47.7080   90.7140   40.1000 C.3   261  ALA261      0.0319
     19  N        -44.1200   94.3630   43.3710 N.3   264  ASN264     -0.1240
     20  CA       -44.4850   93.9200   44.7070 C.3   264  ASN264      0.1653
     21  C        -43.3920   93.1290   45.3980 C.2   264  ASN264      0.2266
     22  O        -43.1090   93.3220   46.5780 O.2   264  ASN264     -0.2867
     23  CB       -45.7350   93.0310   44.6380 C.3   264  ASN264      0.1155
     24  CG       -46.9920   93.8030   44.3400 C.2   264  ASN264      0.2627
     25  OD1      -46.9680   95.0230   44.1710 O.2   264  ASN264     -0.2716
     26  ND2      -48.1100   93.0890   44.2670 N.am  264  ASN264     -0.0877
     27  N        -46.3400  103.5410   43.5650 N.3   277  ASP277     -0.1225
     28  CA       -47.7500  103.1960   43.6850 C.3   277  ASP277      0.1805
     29  C        -48.5900  104.1280   42.8330 C.2   277  ASP277      0.2597
     30  O        -49.5630  103.7110   42.2070 O.2   277  ASP277     -0.2718
     31  CB       -48.2010  103.2630   45.1450 C.3   277  ASP277      0.1424
     32  CG       -47.3940  102.3490   46.0480 C.2   277  ASP277      0.3668
     33  OD1      -46.9630  101.2740   45.5800 O.co2 277  ASP277     -0.2456
     34  OD2      -47.1890  102.7090   47.2280 O.co2 277  ASP277     -0.2456
     35  N        -48.2000  105.3970   42.8150 N.am  278  VAL278     -0.1980
     36  CA       -48.8950  106.4050   42.0320 C.3   278  VAL278      0.1595
     37  C        -48.8040  106.0830   40.5450 C.2   278  VAL278      0.2287
     38  O        -49.8100  106.0920   39.8340 O.2   278  VAL278     -0.2864
     39  CB       -48.3200  107.8110   42.2900 C.3   278  VAL278      0.0276
     40  CG1      -48.8670  108.8040   41.2790 C.3   278  VAL278      0.0022
     41  CG2      -48.6410  108.2620   43.7030 C.3   278  VAL278      0.0022
     42  N        -48.1430  103.2940   39.0970 N.3   280  ILE280     -0.1231
     43  CA       -48.7710  102.0200   38.7650 C.3   280  ILE280      0.1692
     44  C        -50.2790  102.1940   38.6260 C.2   280  ILE280      0.2593
     45  O        -50.8780  101.7440   37.6490 O.2   280  ILE280     -0.2718
     46  CB       -48.4660  100.9420   39.8260 C.3   280  ILE280      0.0266
     47  CG1      -47.1040  100.3040   39.5620 C.3   280  ILE280      0.0019
     48  CG2      -49.5160   99.8530   39.7970 C.3   280  ILE280      0.0020
     49  CD1      -47.0770   99.4590   38.3120 C.3   280  ILE280      0.0001
     50  N        -50.8820  102.8580   39.6090 N.am  281  GLY281     -0.1942
     51  CA       -52.3170  103.0780   39.6270 C.3   281  GLY281      0.2014
     52  C        -52.8110  103.9200   38.4670 C.2   281  GLY281      0.2638
     53  O        -53.9390  103.7530   38.0040 O.2   281  GLY281     -0.2714
     54  N        -51.9670  104.8320   37.9960 N.am  282  ALA282     -0.1977
     55  CA       -52.3310  105.6890   36.8760 C.3   282  ALA282      0.1597
     56  C        -52.3850  104.8940   35.5760 C.2   282  ALA282      0.2287
     57  O        -53.4010  104.9010   34.8790 O.2   282  ALA282     -0.2864
     58  CB       -51.3600  106.8360   36.7530 C.3   282  ALA282      0.0319
     59  N        -52.6040  101.8400   35.2570 N.3   284  MET284     -0.1230
     60  CA       -53.6420  100.8410   35.4380 C.3   284  MET284      0.1702
     61  C        -54.9980  101.4190   35.0520 C.2   284  MET284      0.2593
     62  O        -55.8300  100.7380   34.4550 O.2   284  MET284     -0.2718
     63  CB       -53.6620  100.3610   36.8890 C.3   284  MET284      0.0401
     64  CG       -54.3310   99.0220   37.1070 C.3   284  MET284      0.0596
     65  SD       -53.4060   97.6760   36.3510 S.3   284  MET284     -0.1393
     66  CE       -54.4010   96.2770   36.8580 C.3   284  MET284      0.0692
     67  N        -55.2070  102.6870   35.3920 N.am  285  THR285     -0.1939
     68  CA       -56.4670  103.3660   35.1070 C.3   285  THR285      0.2028
     69  C        -56.6080  103.7090   33.6250 C.2   285  THR285      0.2642
     70  O        -57.6450  103.4410   33.0200 O.2   285  THR285     -0.2714
     71  CB       -56.6120  104.6570   35.9340 C.3   285  THR285      0.1808
     72  OG1      -56.5570  104.3420   37.3300 O.3   285  THR285     -0.2208
     73  CG2      -57.9360  105.3400   35.6250 C.3   285  THR285      0.0379
     74  N        -55.5640  104.3010   33.0500 N.am  286  PHE286     -0.1973
     75  CA       -55.5750  104.6960   31.6420 C.3   286  PHE286      0.1639
     76  C        -55.9040  103.5350   30.7110 C.2   286  PHE286      0.2290
     77  O        -56.6310  103.7000   29.7310 O.2   286  PHE286     -0.2864
     78  CB       -54.2250  105.2960   31.2380 C.3   286  PHE286      0.0560
     79  CG       -54.0910  106.7590   31.5390 C.ar  286  PHE286     -0.0200
     80  CD1      -53.7240  107.1930   32.8000 C.ar  286  PHE286     -0.0042
     81  CD2      -54.3310  107.7030   30.5550 C.ar  286  PHE286     -0.0042
     82  CE1      -53.5980  108.5420   33.0730 C.ar  286  PHE286     -0.0003
     83  CE2      -54.2090  109.0520   30.8220 C.ar  286  PHE286     -0.0003
     84  CZ       -53.8420  109.4730   32.0830 C.ar  286  PHE286     -0.0000
     85  N        -57.5060  100.7640   31.6750 N.3   288  PHE288     -0.1227
     86  CA       -58.8540  100.3270   32.0120 C.3   288  PHE288      0.1736
     87  C        -59.9020  101.1970   31.3200 C.2   288  PHE288      0.2595
     88  O        -60.9170  100.6930   30.8380 O.2   288  PHE288     -0.2718
     89  CB       -59.0610  100.3520   33.5270 C.3   288  PHE288      0.0547
     90  CG       -60.2350   99.5410   33.9920 C.ar  288  PHE288     -0.0202
     91  CD1      -61.5210  100.0510   33.9280 C.ar  288  PHE288     -0.0042
     92  CD2      -60.0500   98.2650   34.4960 C.ar  288  PHE288     -0.0042
     93  CE1      -62.6010   99.3030   34.3560 C.ar  288  PHE288     -0.0003
     94  CE2      -61.1240   97.5120   34.9270 C.ar  288  PHE288     -0.0003
     95  CZ       -62.4020   98.0310   34.8560 C.ar  288  PHE288     -0.0000
     96  N        -59.6540  102.5030   31.2770 N.am  289  CYS289     -0.1970
     97  CA       -60.5850  103.4410   30.6570 C.3   289  CYS289      0.1712
     98  C        -60.6060  103.2800   29.1440 C.2   289  CYS289      0.2296
     99  O        -61.6410  103.4780   28.5080 O.2   289  CYS289     -0.2864
    100  CB       -60.2280  104.8830   31.0210 C.3   289  CYS289      0.0983
    101  SG       -60.5980  105.3430   32.7290 S.3   289  CYS289     -0.0798
    102  N        -62.8370  100.4880   28.6570 N.3   292  LEU292     -0.1245
    103  CA       -64.1810  100.9520   28.9740 C.3   292  LEU292      0.1561
    104  C        -64.7470  101.8100   27.8460 C.2   292  LEU292      0.2260
    105  O        -65.9390  101.7450   27.5380 O.2   292  LEU292     -0.2867
    106  CB       -64.1710  101.7390   30.2880 C.3   292  LEU292      0.0270
    107  CG       -65.4810  102.3960   30.7290 C.3   292  LEU292      0.0019
    108  CD1      -66.5040  101.3540   31.1460 C.3   292  LEU292      0.0001
    109  CD2      -65.2250  103.3810   31.8600 C.3   292  LEU292      0.0001
    110  N        -56.8790  111.0980   25.5610 N.3   323  PHE323     -0.1241
    111  CA       -56.0010  110.1450   26.2430 C.3   323  PHE323      0.1605
    112  C        -54.5070  110.4790   26.1080 C.2   323  PHE323      0.2264
    113  O        -53.7930  110.4740   27.1120 O.2   323  PHE323     -0.2867
    114  CB       -56.2620  108.7170   25.7420 C.3   323  PHE323      0.0534
    115  CG       -57.4720  108.0700   26.3530 C.ar  323  PHE323     -0.0203
    116  CD1      -58.7470  108.4080   25.9270 C.ar  323  PHE323     -0.0042
    117  CD2      -57.3330  107.1170   27.3500 C.ar  323  PHE323     -0.0042
    118  CE1      -59.8620  107.8120   26.4870 C.ar  323  PHE323     -0.0003
    119  CE2      -58.4430  106.5170   27.9150 C.ar  323  PHE323     -0.0003
    120  CZ       -59.7090  106.8650   27.4820 C.ar  323  PHE323     -0.0000
    121  N        -53.9670  113.7790   28.1820 N.3   326  LEU326     -0.1245
    122  CA       -54.0970  113.5380   29.6150 C.3   326  LEU326      0.1561
    123  C        -52.9090  112.7570   30.1680 C.2   326  LEU326      0.2260
    124  O        -52.4320  113.0380   31.2680 O.2   326  LEU326     -0.2867
    125  CB       -55.3950  112.7890   29.9190 C.3   326  LEU326      0.0270
    126  CG       -56.6810  113.6110   29.8540 C.3   326  LEU326      0.0019
    127  CD1      -57.8770  112.7610   30.2460 C.3   326  LEU326      0.0001
    128  CD2      -56.5720  114.8320   30.7510 C.3   326  LEU326      0.0001
    129  N        -50.1080  114.0160   32.8210 N.3   330  PHE330     -0.1241
    130  CA       -49.7740  113.2150   33.9910 C.3   330  PHE330      0.1605
    131  C        -48.2650  113.0750   34.1810 C.2   330  PHE330      0.2264
    132  O        -47.7570  113.2520   35.2870 O.2   330  PHE330     -0.2867
    133  CB       -50.4070  111.8260   33.8940 C.3   330  PHE330      0.0534
    134  CG       -49.8760  110.8580   34.9080 C.ar  330  PHE330     -0.0203
    135  CD1      -50.2830  110.9290   36.2300 C.ar  330  PHE330     -0.0042
    136  CD2      -48.9500  109.8920   34.5460 C.ar  330  PHE330     -0.0042
    137  CE1      -49.7850  110.0470   37.1700 C.ar  330  PHE330     -0.0003
    138  CE2      -48.4470  109.0070   35.4810 C.ar  330  PHE330     -0.0003
    139  CZ       -48.8620  109.0870   36.7960 C.ar  330  PHE330     -0.0000
@<TRIPOS>BOND
     1   110   111    1
     2   114   111    1
     3   114   115    1
     4   116   115   ar
     5   116   118   ar
     6   112   111    1
     7   112   113    2
     8   115   117   ar
     9   118   120   ar
    10   117   119   ar
    11   120   119   ar
    12   105   104    2
    13   104   103    1
    14   121   122    1
    15    99    98    2
    16   102   103    1
    17   103   106    1
    18    98    97    1
    19   122   125    1
    20   122   123    1
    21    77    76    2
    22   126   125    1
    23   126   127    1
    24   126   128    1
    25   123   124    2
    26   106   107    1
    27    81    83   ar
    28    81    79   ar
    29    97   100    1
    30    97    96    1
    31    76    75    1
    32   107   108    1
    33   107   109    1
    34    83    84   ar
    35    88    87    2
    36   100   101    1
    37    78    79    1
    38    78    75    1
    39    96    87   am
    40    87    86    1
    41    79    80   ar
    42    75    74    1
    43    85    86    1
    44    86    89    1
    45    84    82   ar
    46    80    82   ar
    47   129   130    1
    48    70    69    2
    49    74    69   am
    50    89    90    1
    51    69    68    1
    52   133   130    1
    53   133   134    1
    54    91    90   ar
    55    91    93   ar
    56   130   131    1
    57    90    92   ar
    58   131   132    2
    59    93    95   ar
    60    62    61    2
    61    92    94   ar
    62   136   134   ar
    63   136   138   ar
    64     1     2    1
    65    95    94   ar
    66    57    56    2
    67   134   135   ar
    68    61    67   am
    69    61    60    1
    70    68    67    1
    71    68    71    1
    72    59    60    1
    73    60    63    1
    74   138   139   ar
    75    56    55    1
    76    73    71    1
    77     6     5    1
    78    71    72    1
    79     2     5    1
    80     2     3    1
    81     5     7    1
    82   135   137   ar
    83    65    66    1
    84    65    64    1
    85     3     4    2
    86    58    55    1
    87   139   137   ar
    88    55    54    1
    89    63    64    1
    90    45    44    2
    91     8     9    1
    92    54    52   am
    93    53    52    2
    94    49    47    1
    95    52    51    1
    96    44    43    1
    97    44    50   am
    98    43    42    1
    99    43    46    1
   100     9    12    1
   101     9    10    1
   102    12    13    1
   103    47    46    1
   104    50    51    1
   105    48    46    1
   106    14    10   am
   107    14    15    1
   108    38    37    2
   109    18    15    1
   110    10    11    2
   111    37    36    1
   112    15    16    1
   113    16    17    2
   114    40    39    1
   115    36    39    1
   116    36    35    1
   117    30    29    2
   118    39    41    1
   119    35    29   am
   120    29    28    1
   121    19    20    1
   122    27    28    1
   123    28    31    1
   124    25    24    2
   125    26    24   am
   126    24    23    1
   127    23    20    1
   128    20    21    1
   129    31    32    1
   130    21    22    2
   131    33    32   ar
   132    32    34   ar
