@<TRIPOS>MOLECULE
tmp/4tnwO02.pdb
 99 93 0 0 0
SMALL
GASTEIGER

@<TRIPOS>ATOM
      1  N        -58.5700   79.8130   46.4840 N.3   260  SER260     -0.1202
      2  CA       -57.5260   78.8650   46.8440 C.3   260  SER260      0.2020
      3  C        -56.1940   79.5640   47.1230 C.2   260  SER260      0.2618
      4  O        -55.4610   79.1740   48.0340 O.2   260  SER260     -0.2717
      5  CB       -57.3470   77.8280   45.7330 C.3   260  SER260      0.2103
      6  OG       -56.3320   76.8970   46.0630 O.3   260  SER260     -0.2182
      7  N        -55.8850   80.5930   46.3390 N.am  261  ALA261     -0.1979
      8  CA       -54.6400   81.3410   46.5070 C.3   261  ALA261      0.1597
      9  C        -54.5740   82.0910   47.8400 C.2   261  ALA261      0.2287
     10  O        -53.5220   82.1450   48.4770 O.2   261  ALA261     -0.2864
     11  CB       -54.4580   82.3140   45.3520 C.3   261  ALA261      0.0319
     12  N        -56.0870   81.2740   50.5960 N.3   263  ILE263     -0.1231
     13  CA       -55.9740   80.2650   51.6400 C.3   263  ILE263      0.1692
     14  C        -54.5170   79.8480   51.8630 C.2   263  ILE263      0.2592
     15  O        -54.1240   79.5060   52.9810 O.2   263  ILE263     -0.2718
     16  CB       -56.8360   79.0320   51.3000 C.3   263  ILE263      0.0266
     17  CG1      -58.3030   79.4420   51.1640 C.3   263  ILE263      0.0019
     18  CG2      -56.7120   77.9740   52.3690 C.3   263  ILE263      0.0020
     19  CD1      -58.8190   80.2730   52.3220 C.3   263  ILE263      0.0001
     20  N        -53.7190   79.8970   50.8000 N.am  264  ASN264     -0.1974
     21  CA       -52.3120   79.5020   50.8580 C.3   264  ASN264      0.1688
     22  C        -51.5370   80.2990   51.9070 C.2   264  ASN264      0.2292
     23  O        -50.6880   79.7530   52.6120 O.2   264  ASN264     -0.2864
     24  CB       -51.6620   79.6800   49.4770 C.3   264  ASN264      0.1181
     25  CG       -50.2480   79.1140   49.4040 C.2   264  ASN264      0.2629
     26  OD1      -49.9940   78.1520   48.6800 O.2   264  ASN264     -0.2716
     27  ND2      -49.3180   79.7230   50.1330 N.am  264  ASN264     -0.0877
     28  N        -57.6270   70.7810   52.2120 N.3   277  ASP277     -0.1225
     29  CA       -57.1710   70.4100   50.8790 C.3   277  ASP277      0.1805
     30  C        -58.2700   69.6280   50.1820 C.2   277  ASP277      0.2597
     31  O        -58.4940   69.7780   48.9820 O.2   277  ASP277     -0.2718
     32  CB       -55.8850   69.5830   50.9420 C.3   277  ASP277      0.1424
     33  CG       -54.7510   70.3100   51.6470 C.2   277  ASP277      0.3668
     34  OD1      -54.6830   71.5540   51.5510 O.co2 277  ASP277     -0.2456
     35  OD2      -53.9210   69.6320   52.2890 O.co2 277  ASP277     -0.2456
     36  N        -58.9440   68.7820   50.9520 N.am  278  VAL278     -0.1980
     37  CA       -60.0520   67.9880   50.4460 C.3   278  VAL278      0.1595
     38  C        -61.2080   68.8830   50.0110 C.2   278  VAL278      0.2287
     39  O        -61.7460   68.7340   48.9130 O.2   278  VAL278     -0.2864
     40  CB       -60.5540   66.9850   51.5060 C.3   278  VAL278      0.0276
     41  CG1      -61.8780   66.3710   51.0790 C.3   278  VAL278      0.0022
     42  CG2      -59.5130   65.9060   51.7470 C.3   278  VAL278      0.0022
     43  N        -61.2190   71.9900   49.2730 N.3   280  ILE280     -0.1231
     44  CA       -60.8610   72.8820   48.1760 C.3   280  ILE280      0.1692
     45  C        -60.9880   72.1420   46.8530 C.2   280  ILE280      0.2593
     46  O        -61.5950   72.6410   45.9050 O.2   280  ILE280     -0.2718
     47  CB       -59.4280   73.4310   48.3270 C.3   280  ILE280      0.0266
     48  CG1      -59.4230   74.6490   49.2460 C.3   280  ILE280      0.0019
     49  CG2      -58.8660   73.8490   46.9780 C.3   280  ILE280      0.0020
     50  CD1      -60.1050   75.8470   48.6400 C.3   280  ILE280      0.0001
     51  N        -60.4170   70.9440   46.8020 N.am  281  GLY281     -0.1942
     52  CA       -60.4390   70.1330   45.6010 C.3   281  GLY281      0.2014
     53  C        -61.8270   69.7080   45.1670 C.2   281  GLY281      0.2638
     54  O        -62.0870   69.5250   43.9770 O.2   281  GLY281     -0.2714
     55  N        -62.7210   69.5500   46.1360 N.am  282  ALA282     -0.1977
     56  CA       -64.0880   69.1420   45.8480 C.3   282  ALA282      0.1597
     57  C        -64.8480   70.2550   45.1410 C.2   282  ALA282      0.2287
     58  O        -65.3950   70.0460   44.0580 O.2   282  ALA282     -0.2864
     59  CB       -64.7990   68.7440   47.1220 C.3   282  ALA282      0.0319
     60  N        -63.6380   72.6830   43.6950 N.3   284  MET284     -0.1230
     61  CA       -62.9250   72.9090   42.4490 C.3   284  MET284      0.1702
     62  C        -63.4000   71.9470   41.3640 C.2   284  MET284      0.2593
     63  O        -63.5200   72.3220   40.1980 O.2   284  MET284     -0.2718
     64  CB       -61.4190   72.7580   42.6680 C.3   284  MET284      0.0401
     65  CG       -60.5740   73.4180   41.6000 C.3   284  MET284      0.0596
     66  SD       -60.7440   75.2110   41.6250 S.3   284  MET284     -0.1393
     67  CE       -59.5990   75.6660   40.3260 C.3   284  MET284      0.0692
     68  N        -63.6760   70.7090   41.7580 N.am  285  THR285     -0.1953
     69  CA       -64.1140   69.6830   40.8170 C.3   285  THR285      0.1897
     70  C        -65.5550   69.9100   40.3620 C.2   285  THR285      0.2313
     71  O        -65.8490   69.8580   39.1670 O.2   285  THR285     -0.2863
     72  CB       -63.9890   68.2740   41.4260 C.3   285  THR285      0.1794
     73  OG1      -62.6230   68.0290   41.7870 O.3   285  THR285     -0.2208
     74  CG2      -64.4430   67.2180   40.4280 C.3   285  THR285      0.0378
     75  N        -65.7030   72.5890   37.9300 N.3   288  PHE288     -0.1227
     76  CA       -65.0690   72.1530   36.6910 C.3   288  PHE288      0.1736
     77  C        -65.9930   71.2260   35.9050 C.2   288  PHE288      0.2595
     78  O        -66.0940   71.3280   34.6830 O.2   288  PHE288     -0.2718
     79  CB       -63.7410   71.4490   36.9850 C.3   288  PHE288      0.0547
     80  CG       -62.8400   71.3290   35.7890 C.ar  288  PHE288     -0.0202
     81  CD1      -63.0290   70.3200   34.8580 C.ar  288  PHE288     -0.0042
     82  CD2      -61.8000   72.2230   35.5960 C.ar  288  PHE288     -0.0042
     83  CE1      -62.2010   70.2070   33.7550 C.ar  288  PHE288     -0.0003
     84  CE2      -60.9670   72.1150   34.4970 C.ar  288  PHE288     -0.0003
     85  CZ       -61.1680   71.1060   33.5750 C.ar  288  PHE288     -0.0000
     86  N        -66.6660   70.3240   36.6150 N.am  289  CYS289     -0.1970
     87  CA       -67.5650   69.3680   35.9790 C.3   289  CYS289      0.1712
     88  C        -68.8250   70.0470   35.4610 C.2   289  CYS289      0.2296
     89  O        -69.3760   69.6470   34.4350 O.2   289  CYS289     -0.2864
     90  CB       -67.9360   68.2500   36.9530 C.3   289  CYS289      0.0983
     91  SG       -66.5930   67.0890   37.2860 S.3   289  CYS289     -0.0798
     92  N        -67.7060   71.4120   32.3530 N.3   292  LEU292     -0.1245
     93  CA       -67.4650   70.3130   31.4250 C.3   292  LEU292      0.1561
     94  C        -68.7640   69.8350   30.7920 C.2   292  LEU292      0.2260
     95  O        -68.8070   69.4950   29.6090 O.2   292  LEU292     -0.2867
     96  CB       -66.7840   69.1500   32.1520 C.3   292  LEU292      0.0270
     97  CG       -66.5400   67.8560   31.3730 C.3   292  LEU292      0.0019
     98  CD1      -65.4630   68.0480   30.3260 C.3   292  LEU292      0.0001
     99  CD2      -66.1770   66.7220   32.3180 C.3   292  LEU292      0.0001
@<TRIPOS>BOND
     1    95    94    2
     2    98    97    1
     3    94    93    1
     4    97    96    1
     5    97    99    1
     6    93    96    1
     7    93    92    1
     8    85    83   ar
     9    85    84   ar
    10    83    81   ar
    11    89    88    2
    12    84    82   ar
    13    78    77    2
    14    81    80   ar
    15    88    87    1
    16    82    80   ar
    17    80    79    1
    18    77    86   am
    19    77    76    1
    20    87    86    1
    21    87    90    1
    22    76    79    1
    23    76    75    1
    24    90    91    1
    25    71    70    2
    26    63    62    2
    27    67    66    1
    28    70    69    1
    29    74    72    1
    30    69    72    1
    31    69    68    1
    32    62    68   am
    33    62    61    1
    34    72    73    1
    35    65    66    1
    36    65    64    1
    37    61    64    1
    38    61    60    1
    39    54    53    2
    40    58    57    2
    41    57    56    1
    42    53    52    1
    43    53    55   am
    44    11     8    1
    45    52    51    1
    46     5     6    1
    47     5     2    1
    48    56    55    1
    49    56    59    1
    50    46    45    2
    51     7     8    1
    52     7     3   am
    53     1     2    1
    54     8     9    1
    55    51    45   am
    56     2     3    1
    57    45    44    1
    58    49    47    1
    59     3     4    2
    60     9    10    2
    61    44    47    1
    62    44    43    1
    63    47    48    1
    64    50    48    1
    65    26    25    2
    66    39    38    2
    67    31    30    2
    68    25    24    1
    69    25    27   am
    70    24    21    1
    71    38    37    1
    72    30    29    1
    73    30    36   am
    74    37    36    1
    75    37    40    1
    76    12    13    1
    77    20    21    1
    78    20    14   am
    79    21    22    1
    80    29    32    1
    81    29    28    1
    82    32    33    1
    83    41    40    1
    84    17    16    1
    85    17    19    1
    86    16    13    1
    87    16    18    1
    88    40    42    1
    89    34    33   ar
    90    13    14    1
    91    33    35   ar
    92    14    15    2
    93    22    23    2
