@<TRIPOS>MOLECULE
tmp/4tnwP00.pdb
 108 101 0 0 0
SMALL
GASTEIGER

@<TRIPOS>ATOM
      1  N        -52.5510   62.8490   45.6080 N.3   218  LEU218     -0.1231
      2  CA       -53.8960   63.4080   45.5690 C.3   218  LEU218      0.1693
      3  C        -53.8780   64.9180   45.3480 C.2   218  LEU218      0.2591
      4  O        -54.9220   65.5160   45.1150 O.2   218  LEU218     -0.2718
      5  CB       -54.6670   63.0880   46.8580 C.3   218  LEU218      0.0284
      6  CG       -55.2200   61.6720   47.0790 C.3   218  LEU218      0.0019
      7  CD1      -54.1300   60.6500   47.3790 C.3   218  LEU218      0.0001
      8  CD2      -56.2600   61.6840   48.1900 C.3   218  LEU218      0.0001
      9  N        -52.7090   65.5440   45.4550 N.am  219  GLN219     -0.1979
     10  CA       -52.6390   66.9940   45.2810 C.3   219  GLN219      0.1601
     11  C        -52.1770   67.4570   43.9030 C.2   219  GLN219      0.2287
     12  O        -52.5640   68.5370   43.4580 O.2   219  GLN219     -0.2864
     13  CB       -51.7290   67.6150   46.3420 C.3   219  GLN219      0.0394
     14  CG       -52.3540   67.6370   47.7190 C.3   219  GLN219      0.0908
     15  CD       -53.6520   68.4100   47.7630 C.2   219  GLN219      0.2608
     16  OE1      -54.7360   67.8260   47.7540 O.2   219  GLN219     -0.2717
     17  NE2      -53.5520   69.7300   47.8030 N.am  219  GLN219     -0.0878
     18  N        -52.8220   62.9500   40.6600 N.3   222  ILE222     -0.1231
     19  CA       -54.1850   62.5410   40.3250 C.3   222  ILE222      0.1678
     20  C        -54.9780   63.6240   39.5720 C.2   222  ILE222      0.2434
     21  O        -55.5650   63.3280   38.5320 O.2   222  ILE222     -0.2733
     22  CB       -54.9780   62.1110   41.5820 C.3   222  ILE222      0.0265
     23  CG1      -54.4110   60.8090   42.1490 C.3   222  ILE222      0.0019
     24  CG2      -56.4490   61.9210   41.2470 C.3   222  ILE222      0.0020
     25  CD1      -54.5310   59.6310   41.2070 C.3   222  ILE222      0.0001
     26  N        -55.0010   64.8760   40.0760 N.am  223  PRO223     -0.2729
     27  CA       -55.8130   65.8550   39.3410 C.3   223  PRO223      0.1401
     28  C        -55.2640   66.2090   37.9590 C.2   223  PRO223      0.2269
     29  O        -56.0490   66.4750   37.0490 O.2   223  PRO223     -0.2865
     30  CB       -55.7930   67.0840   40.2580 C.3   223  PRO223      0.0296
     31  CG       -54.5520   66.9380   41.0540 C.3   223  PRO223      0.0237
     32  CD       -54.4180   65.4680   41.2950 C.3   223  PRO223      0.0939
     33  N        -56.1580   63.4550   35.3740 N.3   226  MET226     -0.1230
     34  CA       -57.5490   63.6260   34.9900 C.3   226  MET226      0.1702
     35  C        -57.6850   64.8510   34.0910 C.2   226  MET226      0.2592
     36  O        -58.5190   64.8790   33.1880 O.2   226  MET226     -0.2718
     37  CB       -58.4340   63.7470   36.2300 C.3   226  MET226      0.0401
     38  CG       -58.4880   62.4610   37.0450 C.3   226  MET226      0.0596
     39  SD       -59.4990   62.5600   38.5340 S.3   226  MET226     -0.1393
     40  CE       -61.1110   62.1400   37.8740 C.3   226  MET226      0.0692
     41  N        -56.8520   65.8570   34.3420 N.am  227  LEU227     -0.1980
     42  CA       -56.8530   67.0810   33.5430 C.3   227  LEU227      0.1596
     43  C        -56.3820   66.8320   32.1130 C.2   227  LEU227      0.2287
     44  O        -56.9730   67.3410   31.1600 O.2   227  LEU227     -0.2864
     45  CB       -55.9710   68.1460   34.1960 C.3   227  LEU227      0.0297
     46  CG       -56.5960   69.5280   34.3860 C.3   227  LEU227      0.0022
     47  CD1      -57.9770   69.4210   35.0060 C.3   227  LEU227      0.0001
     48  CD2      -55.6880   70.4020   35.2360 C.3   227  LEU227      0.0001
     49  N        -59.1170   65.0530   30.2560 N.3   230  VAL230     -0.1245
     50  CA       -60.2050   65.9520   29.8730 C.3   230  VAL230      0.1561
     51  C        -59.8520   66.7220   28.5990 C.2   230  VAL230      0.2260
     52  O        -60.7130   66.9810   27.7580 O.2   230  VAL230     -0.2867
     53  CB       -60.5440   66.9440   31.0110 C.3   230  VAL230      0.0252
     54  CG1      -61.4330   68.0750   30.5110 C.3   230  VAL230      0.0019
     55  CG2      -61.2200   66.2140   32.1580 C.3   230  VAL230      0.0019
     56  N        -56.3070   75.7790   34.5390 N.3   255  THR255     -0.1218
     57  CA       -56.3300   75.0020   35.7720 C.3   255  THR255      0.1862
     58  C        -54.9720   74.3730   36.0640 C.2   255  THR255      0.2287
     59  O        -54.5330   74.3240   37.2150 O.2   255  THR255     -0.2866
     60  CB       -57.3930   73.8910   35.7130 C.3   255  THR255      0.1770
     61  OG1      -58.6730   74.4670   35.4270 O.3   255  THR255     -0.2211
     62  CG2      -57.4610   73.1550   37.0350 C.3   255  THR255      0.0375
     63  N        -52.6210   76.8800   37.5780 N.3   258  ALA258     -0.1231
     64  CA       -52.8760   77.1260   38.9920 C.3   258  ALA258      0.1694
     65  C        -52.1440   76.0950   39.8360 C.2   258  ALA258      0.2591
     66  O        -51.6090   76.4080   40.9010 O.2   258  ALA258     -0.2718
     67  CB       -54.3670   77.0930   39.2800 C.3   258  ALA258      0.0304
     68  N        -52.1340   74.8610   39.3470 N.am  259  GLN259     -0.1979
     69  CA       -51.4460   73.7660   40.0110 C.3   259  GLN259      0.1601
     70  C        -49.9470   74.0300   40.1030 C.2   259  GLN259      0.2287
     71  O        -49.3210   73.7470   41.1230 O.2   259  GLN259     -0.2864
     72  CB       -51.7120   72.4520   39.2810 C.3   259  GLN259      0.0394
     73  CG       -53.1560   72.0180   39.3850 C.3   259  GLN259      0.0908
     74  CD       -53.5790   71.7770   40.8170 C.2   259  GLN259      0.2608
     75  OE1      -52.9050   71.0730   41.5690 O.2   259  GLN259     -0.2717
     76  NE2      -54.6910   72.3890   41.2110 N.am  259  GLN259     -0.0878
     77  N        -48.3640   76.8440   40.2880 N.3   261  ALA261     -0.1231
     78  CA       -48.0770   77.8480   41.3080 C.3   261  ALA261      0.1694
     79  C        -48.0770   77.2320   42.7030 C.2   261  ALA261      0.2593
     80  O        -47.2490   77.5780   43.5460 O.2   261  ALA261     -0.2718
     81  CB       -49.0850   78.9820   41.2320 C.3   261  ALA261      0.0304
     82  N        -49.0120   76.3190   42.9400 N.am  262  GLY262     -0.1942
     83  CA       -49.1050   75.6430   44.2200 C.3   262  GLY262      0.2014
     84  C        -47.9090   74.7630   44.5180 C.2   262  GLY262      0.2638
     85  O        -47.4450   74.7020   45.6560 O.2   262  GLY262     -0.2714
     86  N        -47.4120   74.0760   43.4950 N.am  263  ILE263     -0.1977
     87  CA       -46.2470   73.2140   43.6530 C.3   263  ILE263      0.1596
     88  C        -44.9750   74.0250   43.9300 C.2   263  ILE263      0.2287
     89  O        -44.1090   73.5900   44.6910 O.2   263  ILE263     -0.2864
     90  CB       -46.0450   72.3300   42.4030 C.3   263  ILE263      0.0276
     91  CG1      -47.2950   71.4840   42.1450 C.3   263  ILE263      0.0022
     92  CG2      -44.8340   71.4340   42.5680 C.3   263  ILE263      0.0022
     93  CD1      -47.7960   70.7290   43.3630 C.3   263  ILE263      0.0001
     94  N        -44.6240   76.8670   45.5790 N.3   265  SER265     -0.1202
     95  CA       -44.6170   77.3970   46.9410 C.3   265  SER265      0.2020
     96  C        -44.1740   76.4460   48.0540 C.2   265  SER265      0.2618
     97  O        -43.3540   76.8200   48.8930 O.2   265  SER265     -0.2717
     98  CB       -46.0140   77.9220   47.2860 C.3   265  SER265      0.2103
     99  OG       -46.0870   78.2980   48.6500 O.3   265  SER265     -0.2182
    100  N        -44.7120   75.2290   48.0620 N.am  266  GLN266     -0.1979
    101  CA       -44.4700   74.2980   49.1660 C.3   266  GLN266      0.1601
    102  C        -42.9920   73.9520   49.3670 C.2   266  GLN266      0.2287
    103  O        -42.5080   73.9130   50.4990 O.2   266  GLN266     -0.2864
    104  CB       -45.2900   73.0200   48.9580 C.3   266  GLN266      0.0394
    105  CG       -45.1680   72.0040   50.0870 C.3   266  GLN266      0.0908
    106  CD       -46.3020   70.9950   50.0950 C.2   266  GLN266      0.2608
    107  OE1      -47.3050   71.1660   49.4020 O.2   266  GLN266     -0.2717
    108  NE2      -46.1490   69.9360   50.8840 N.am  266  GLN266     -0.0878
@<TRIPOS>BOND
     1    52    51    2
     2    51    50    1
     3    50    49    1
     4    50    53    1
     5    54    53    1
     6    53    55    1
     7    44    43    2
     8    43    42    1
     9    36    35    2
    10    42    45    1
    11    42    41    1
    12    35    41   am
    13    35    34    1
    14    45    46    1
    15    46    47    1
    16    46    48    1
    17    56    57    1
    18    34    33    1
    19    34    37    1
    20    61    60    1
    21    60    57    1
    22    60    62    1
    23    57    58    1
    24    58    59    2
    25    37    38    1
    26    38    39    1
    27    29    28    2
    28    63    64    1
    29    40    39    1
    30    28    27    1
    31    21    20    2
    32    64    67    1
    33    64    65    1
    34    72    73    1
    35    72    69    1
    36    27    26    1
    37    27    30    1
    38    68    65   am
    39    68    69    1
    40    73    74    1
    41    20    26   am
    42    20    19    1
    43    65    66    2
    44    69    70    1
    45    26    32    1
    46    70    71    2
    47    30    31    1
    48    77    78    1
    49    19    18    1
    50    19    22    1
    51    74    76   am
    52    74    75    2
    53    31    32    1
    54    25    23    1
    55    81    78    1
    56    24    22    1
    57    78    79    1
    58    22    23    1
    59    91    90    1
    60    91    93    1
    61    90    92    1
    62    90    87    1
    63    79    82   am
    64    79    80    2
    65    82    83    1
    66    12    11    2
    67    86    87    1
    68    86    84   am
    69    87    88    1
    70    11    10    1
    71    88    89    2
    72    83    84    1
    73    84    85    2
    74     4     3    2
    75    10     9    1
    76    10    13    1
    77     3     9   am
    78     3     2    1
    79     2     1    1
    80     2     5    1
    81    94    95    1
    82    13    14    1
    83     5     6    1
    84    95    98    1
    85    95    96    1
    86     6     7    1
    87     6     8    1
    88    98    99    1
    89    14    15    1
    90    16    15    2
    91    15    17   am
    92    96   100   am
    93    96    97    2
    94   100   101    1
    95   104   101    1
    96   104   105    1
    97   101   102    1
    98   102   103    2
    99   107   106    2
   100   105   106    1
   101   106   108   am
