@<TRIPOS>MOLECULE
tmp/4tnwA01.pdb
 100 93 0 0 0
SMALL
GASTEIGER

@<TRIPOS>ATOM
      1  N        -49.7900  -22.6720   21.9840 N.3   215  PHE215     -0.1241
      2  CA       -50.1350  -21.5870   22.9010 C.3   215  PHE215      0.1605
      3  C        -50.2640  -22.0780   24.3320 C.2   215  PHE215      0.2264
      4  O        -49.5680  -21.6000   25.2260 O.2   215  PHE215     -0.2867
      5  CB       -51.4390  -20.9120   22.4770 C.3   215  PHE215      0.0534
      6  CG       -51.9440  -19.8860   23.4600 C.ar  215  PHE215     -0.0203
      7  CD1      -51.4440  -18.5950   23.4520 C.ar  215  PHE215     -0.0042
      8  CD2      -52.9310  -20.2090   24.3800 C.ar  215  PHE215     -0.0042
      9  CE1      -51.9040  -17.6470   24.3530 C.ar  215  PHE215     -0.0003
     10  CE2      -53.3950  -19.2650   25.2840 C.ar  215  PHE215     -0.0003
     11  CZ       -52.8800  -17.9830   25.2690 C.ar  215  PHE215     -0.0000
     12  N        -46.9580  -22.9050   25.8770 N.3   218  LEU218     -0.1231
     13  CA       -46.0940  -21.8420   26.3770 C.3   218  LEU218      0.1693
     14  C        -46.8130  -20.9020   27.3400 C.2   218  LEU218      0.2591
     15  O        -46.1640  -20.1920   28.1100 O.2   218  LEU218     -0.2718
     16  CB       -45.5040  -21.0480   25.1990 C.3   218  LEU218      0.0284
     17  CG       -44.4790  -19.9200   25.4100 C.3   218  LEU218      0.0019
     18  CD1      -43.5540  -19.8310   24.2030 C.3   218  LEU218      0.0001
     19  CD2      -45.1650  -18.5720   25.6180 C.3   218  LEU218      0.0001
     20  N        -48.1410  -20.9330   27.3550 N.am  219  GLN219     -0.1979
     21  CA       -48.8730  -20.0110   28.2170 C.3   219  GLN219      0.1601
     22  C        -49.3190  -20.6630   29.5190 C.2   219  GLN219      0.2287
     23  O        -49.4520  -19.9890   30.5400 O.2   219  GLN219     -0.2864
     24  CB       -50.0780  -19.4100   27.4890 C.3   219  GLN219      0.0394
     25  CG       -50.7650  -18.3430   28.3190 C.3   219  GLN219      0.0908
     26  CD       -49.8610  -17.1450   28.5290 C.2   219  GLN219      0.2608
     27  OE1      -49.3970  -16.5280   27.5700 O.2   219  GLN219     -0.2717
     28  NE2      -49.5600  -16.8430   29.7870 N.am  219  GLN219     -0.0878
     29  N        -45.0610  -22.5360   31.7980 N.3   223  PRO223     -0.2116
     30  CA       -44.8190  -21.7230   32.9980 C.3   223  PRO223      0.1372
     31  C        -45.1880  -22.4380   34.2930 C.2   223  PRO223      0.2244
     32  O        -44.5510  -22.2160   35.3220 O.2   223  PRO223     -0.2868
     33  CB       -45.7200  -20.5040   32.7850 C.3   223  PRO223      0.0268
     34  CG       -46.7930  -20.9900   31.8960 C.3   223  PRO223      0.0207
     35  CD       -46.1280  -21.9530   30.9650 C.3   223  PRO223      0.0892
     36  N        -42.4030  -25.0090   35.2880 N.3   226  MET226     -0.1230
     37  CA       -41.2960  -24.2750   35.8800 C.3   226  MET226      0.1702
     38  C        -41.6910  -23.7660   37.2600 C.2   226  MET226      0.2592
     39  O        -40.8590  -23.6790   38.1600 O.2   226  MET226     -0.2718
     40  CB       -40.8710  -23.1150   34.9790 C.3   226  MET226      0.0401
     41  CG       -40.2430  -23.5570   33.6680 C.3   226  MET226      0.0596
     42  SD       -39.7700  -22.1730   32.6140 S.3   226  MET226     -0.1393
     43  CE       -38.1320  -21.8130   33.2430 C.3   226  MET226      0.0692
     44  N        -42.9680  -23.4340   37.4160 N.am  227  LEU227     -0.1980
     45  CA       -43.4890  -22.9380   38.6860 C.3   227  LEU227      0.1596
     46  C        -43.4600  -24.0240   39.7620 C.2   227  LEU227      0.2287
     47  O        -43.0950  -23.7600   40.9070 O.2   227  LEU227     -0.2864
     48  CB       -44.9120  -22.4030   38.5070 C.3   227  LEU227      0.0297
     49  CG       -45.1650  -20.9850   39.0270 C.3   227  LEU227      0.0022
     50  CD1      -44.0820  -20.0370   38.5440 C.3   227  LEU227      0.0001
     51  CD2      -46.5370  -20.4860   38.5980 C.3   227  LEU227      0.0001
     52  N        -39.9050  -24.5710   40.9000 N.3   230  VAL230     -0.1245
     53  CA       -39.4890  -23.4870   41.7860 C.3   230  VAL230      0.1561
     54  C        -40.0020  -23.7260   43.2060 C.2   230  VAL230      0.2260
     55  O        -39.3210  -23.4140   44.1830 O.2   230  VAL230     -0.2867
     56  CB       -39.9850  -22.1140   41.2650 C.3   230  VAL230      0.0252
     57  CG1      -39.8610  -21.0380   42.3340 C.3   230  VAL230      0.0019
     58  CG2      -39.2150  -21.7130   40.0160 C.3   230  VAL230      0.0019
     59  N        -48.8360  -16.7620   42.0510 N.3   255  THR255     -0.1218
     60  CA       -48.5530  -16.6820   40.6240 C.3   255  THR255      0.1862
     61  C        -49.3230  -17.7630   39.8640 C.2   255  THR255      0.2287
     62  O        -49.8290  -17.5220   38.7670 O.2   255  THR255     -0.2866
     63  CB       -47.0430  -16.8230   40.3420 C.3   255  THR255      0.1770
     64  OG1      -46.3230  -15.8330   41.0870 O.3   255  THR255     -0.2211
     65  CG2      -46.7510  -16.6450   38.8600 C.3   255  THR255      0.0375
     66  N        -53.0700  -16.9780   39.2020 N.3   258  ALA258     -0.1231
     67  CA       -53.2300  -16.0670   38.0770 C.3   258  ALA258      0.1694
     68  C        -53.2530  -16.8280   36.7590 C.2   258  ALA258      0.2591
     69  O        -54.0070  -16.4880   35.8460 O.2   258  ALA258     -0.2718
     70  CB       -52.1160  -15.0430   38.0710 C.3   258  ALA258      0.0304
     71  N        -52.4180  -17.8580   36.6670 N.am  259  GLN259     -0.1979
     72  CA       -52.3440  -18.6840   35.4690 C.3   259  GLN259      0.1601
     73  C        -53.6760  -19.3670   35.1740 C.2   259  GLN259      0.2287
     74  O        -54.1300  -19.3940   34.0300 O.2   259  GLN259     -0.2864
     75  CB       -51.2500  -19.7410   35.6260 C.3   259  GLN259      0.0394
     76  CG       -49.8330  -19.1920   35.6440 C.3   259  GLN259      0.0908
     77  CD       -49.4500  -18.5220   34.3430 C.2   259  GLN259      0.2608
     78  OE1      -49.6640  -19.0720   33.2630 O.2   259  GLN259     -0.2717
     79  NE2      -48.8670  -17.3330   34.4390 N.am  259  GLN259     -0.0878
     80  N        -56.5350  -16.8740   33.8900 N.3   262  GLY262     -0.1210
     81  CA       -56.3730  -16.4520   32.5100 C.3   262  GLY262      0.1956
     82  C        -56.8200  -17.4810   31.4900 C.2   262  GLY262      0.2611
     83  O        -57.4240  -17.1380   30.4720 O.2   262  GLY262     -0.2717
     84  N        -56.5200  -18.7460   31.7610 N.am  263  ILE263     -0.1979
     85  CA       -56.9140  -19.8350   30.8740 C.3   263  ILE263      0.1595
     86  C        -58.4290  -20.0460   30.8660 C.2   263  ILE263      0.2287
     87  O        -59.0120  -20.3860   29.8370 O.2   263  ILE263     -0.2864
     88  CB       -56.2030  -21.1510   31.2700 C.3   263  ILE263      0.0276
     89  CG1      -54.6840  -20.9610   31.2360 C.3   263  ILE263      0.0022
     90  CG2      -56.6060  -22.2920   30.3470 C.3   263  ILE263      0.0022
     91  CD1      -54.1730  -20.3350   29.9530 C.3   263  ILE263      0.0001
     92  N        -60.5180  -17.7390   28.3480 N.3   266  GLN266     -0.1245
     93  CA       -60.2780  -18.1340   26.9620 C.3   266  GLN266      0.1566
     94  C        -61.0570  -19.3960   26.5850 C.2   266  GLN266      0.2260
     95  O        -61.5530  -19.5300   25.4720 O.2   266  GLN266     -0.2867
     96  CB       -58.7810  -18.3210   26.7140 C.3   266  GLN266      0.0367
     97  CG       -58.4410  -18.6640   25.2710 C.3   266  GLN266      0.0905
     98  CD       -56.9890  -18.3890   24.9460 C.2   266  GLN266      0.2608
     99  OE1      -56.2870  -17.7300   25.7140 O.2   266  GLN266     -0.2717
    100  NE2      -56.5310  -18.8820   23.8020 N.am  266  GLN266     -0.0878
@<TRIPOS>BOND
     1     1     2    1
     2     5     2    1
     3     5     6    1
     4     2     3    1
     5     7     6   ar
     6     7     9   ar
     7     6     8   ar
     8   100    98   am
     9    18    17    1
    10     3     4    2
    11     9    11   ar
    12     8    10   ar
    13    98    97    1
    14    98    99    2
    15    16    17    1
    16    16    13    1
    17    11    10   ar
    18    97    96    1
    19    17    19    1
    20    95    94    2
    21    12    13    1
    22    13    14    1
    23    94    93    1
    24    96    93    1
    25    93    92    1
    26    14    20   am
    27    14    15    2
    28    20    21    1
    29    24    21    1
    30    24    25    1
    31    27    26    2
    32    21    22    1
    33    25    26    1
    34    26    28   am
    35    22    23    2
    36    87    86    2
    37    91    89    1
    38    90    88    1
    39    83    82    2
    40    86    85    1
    41    85    88    1
    42    85    84    1
    43    35    29    1
    44    35    34    1
    45    89    88    1
    46    82    84   am
    47    82    81    1
    48    29    30    1
    49    34    33    1
    50    81    80    1
    51    42    43    1
    52    42    41    1
    53    33    30    1
    54    30    31    1
    55    78    77    2
    56    41    40    1
    57    74    73    2
    58    31    32    2
    59    77    79   am
    60    77    76    1
    61    40    37    1
    62    73    72    1
    63    36    37    1
    64    72    75    1
    65    72    71    1
    66    75    76    1
    67    69    68    2
    68    37    38    1
    69    71    68   am
    70    68    67    1
    71    38    44   am
    72    38    39    2
    73    44    45    1
    74    70    67    1
    75    67    66    1
    76    48    45    1
    77    48    49    1
    78    50    49    1
    79    51    49    1
    80    45    46    1
    81    62    61    2
    82    65    63    1
    83    46    47    2
    84    61    60    1
    85    58    56    1
    86    63    60    1
    87    63    64    1
    88    60    59    1
    89    52    53    1
    90    56    53    1
    91    56    57    1
    92    53    54    1
    93    54    55    2
