@<TRIPOS>MOLECULE
tmp/4tnwE00.pdb
 78 72 0 0 0
SMALL
GASTEIGER

@<TRIPOS>ATOM
      1  N        -49.2360   -8.7290   37.7150 N.3   257  THR257     -0.1218
      2  CA       -50.3620   -9.6280   37.5010 C.3   257  THR257      0.1862
      3  C        -51.6160   -8.8350   37.1420 C.2   257  THR257      0.2287
      4  O        -52.3780   -9.2200   36.2520 O.2   257  THR257     -0.2866
      5  CB       -50.6340  -10.4950   38.7400 C.3   257  THR257      0.1770
      6  OG1      -49.4200  -11.1390   39.1460 O.3   257  THR257     -0.2211
      7  CG2      -51.6770  -11.5490   38.4260 C.3   257  THR257      0.0375
      8  N        -51.6250   -7.6490   33.4520 N.3   260  SER260     -0.1202
      9  CA       -51.9080   -8.6860   32.4810 C.3   260  SER260      0.2020
     10  C        -53.4100   -8.9060   32.3350 C.2   260  SER260      0.2618
     11  O        -53.8960   -9.1490   31.2320 O.2   260  SER260     -0.2717
     12  CB       -51.2070   -9.9800   32.8830 C.3   260  SER260      0.2103
     13  OG       -51.4480  -10.9970   31.9330 O.3   260  SER260     -0.2182
     14  N        -54.1360   -8.8360   33.4480 N.am  261  ALA261     -0.1979
     15  CA       -55.5860   -9.0150   33.4220 C.3   261  ALA261      0.1597
     16  C        -56.2880   -7.8960   32.6510 C.2   261  ALA261      0.2287
     17  O        -57.2390   -8.1470   31.9070 O.2   261  ALA261     -0.2864
     18  CB       -56.1330   -9.0990   34.8410 C.3   261  ALA261      0.0319
     19  N        -55.6460   -8.3910   29.0930 N.3   264  ASN264     -0.1240
     20  CA       -56.3830   -9.5750   28.6760 C.3   264  ASN264      0.1653
     21  C        -57.7870   -9.2170   28.1840 C.2   264  ASN264      0.2266
     22  O        -58.2490   -9.7410   27.1720 O.2   264  ASN264     -0.2867
     23  CB       -56.4570  -10.5670   29.8490 C.3   264  ASN264      0.1155
     24  CG       -57.0590  -11.9140   29.4660 C.2   264  ASN264      0.2627
     25  OD1      -57.5170  -12.1190   28.3440 O.2   264  ASN264     -0.2716
     26  ND2      -57.0600  -12.8440   30.4170 N.am  264  ASN264     -0.0877
     27  N        -48.3170  -11.6120   24.1510 N.3   277  ASP277     -0.1239
     28  CA       -48.1840  -12.7070   25.1040 C.3   277  ASP277      0.1674
     29  C        -46.7130  -12.9090   25.4310 C.2   277  ASP277      0.2266
     30  O        -46.3520  -13.2050   26.5700 O.2   277  ASP277     -0.2867
     31  CB       -48.7840  -14.0030   24.5530 C.3   277  ASP277      0.1410
     32  CG       -50.2530  -13.8680   24.2040 C.2   277  ASP277      0.3668
     33  OD1      -50.9630  -13.0970   24.8850 O.co2 277  ASP277     -0.2456
     34  OD2      -50.6980  -14.5420   23.2520 O.co2 277  ASP277     -0.2456
     35  N        -45.4610  -10.0870   27.6680 N.3   280  ILE280     -0.1231
     36  CA       -46.0690  -10.2260   28.9830 C.3   280  ILE280      0.1692
     37  C        -45.3600  -11.3150   29.7780 C.2   280  ILE280      0.2592
     38  O        -44.9910  -11.1120   30.9350 O.2   280  ILE280     -0.2718
     39  CB       -47.5740  -10.5460   28.8770 C.3   280  ILE280      0.0266
     40  CG1      -48.3790   -9.2560   28.7380 C.3   280  ILE280      0.0019
     41  CG2      -48.0600  -11.2500   30.1210 C.3   280  ILE280      0.0020
     42  CD1      -48.3750   -8.4180   29.9940 C.3   280  ILE280      0.0001
     43  N        -45.1600  -12.4650   29.1430 N.am  281  GLY281     -0.1957
     44  CA       -44.5320  -13.5990   29.7930 C.3   281  GLY281      0.1869
     45  C        -43.0990  -13.3630   30.2300 C.2   281  GLY281      0.2309
     46  O        -42.6450  -13.9280   31.2250 O.2   281  GLY281     -0.2863
     47  N        -42.9700  -10.9170   33.3260 N.3   284  MET284     -0.1230
     48  CA       -43.4600  -11.6830   34.4600 C.3   284  MET284      0.1702
     49  C        -42.3330  -12.5290   35.0460 C.2   284  MET284      0.2593
     50  O        -42.2310  -12.6960   36.2610 O.2   284  MET284     -0.2718
     51  CB       -44.6310  -12.5720   34.0390 C.3   284  MET284      0.0401
     52  CG       -45.4980  -13.0510   35.1880 C.3   284  MET284      0.0596
     53  SD       -46.4130  -11.7320   36.0050 S.3   284  MET284     -0.1393
     54  CE       -47.3420  -12.6710   37.2130 C.3   284  MET284      0.0692
     55  N        -41.4860  -13.0540   34.1670 N.am  285  THR285     -0.1953
     56  CA       -40.3730  -13.9010   34.5780 C.3   285  THR285      0.1897
     57  C        -39.2560  -13.0980   35.2410 C.2   285  THR285      0.2313
     58  O        -38.7690  -13.4720   36.3090 O.2   285  THR285     -0.2863
     59  CB       -39.7910  -14.6740   33.3810 C.3   285  THR285      0.1794
     60  OG1      -40.8130  -15.4950   32.8010 O.3   285  THR285     -0.2208
     61  CG2      -38.6300  -15.5530   33.8230 C.3   285  THR285      0.0378
     62  N        -40.1690  -12.2100   38.6510 N.3   288  PHE288     -0.1227
     63  CA       -40.2270  -13.4080   39.4810 C.3   288  PHE288      0.1736
     64  C        -38.8220  -13.8630   39.8700 C.2   288  PHE288      0.2595
     65  O        -38.5850  -14.2620   41.0100 O.2   288  PHE288     -0.2718
     66  CB       -40.9660  -14.5310   38.7500 C.3   288  PHE288      0.0547
     67  CG       -41.4380  -15.6380   39.6530 C.ar  288  PHE288     -0.0202
     68  CD1      -40.5690  -16.6370   40.0640 C.ar  288  PHE288     -0.0042
     69  CD2      -42.7530  -15.6830   40.0830 C.ar  288  PHE288     -0.0042
     70  CE1      -41.0020  -17.6550   40.8930 C.ar  288  PHE288     -0.0003
     71  CE2      -43.1920  -16.7000   40.9100 C.ar  288  PHE288     -0.0003
     72  CZ       -42.3150  -17.6870   41.3160 C.ar  288  PHE288     -0.0000
     73  N        -37.8960  -13.8020   38.9180 N.am  289  CYS289     -0.1970
     74  CA       -36.5170  -14.2150   39.1620 C.3   289  CYS289      0.1712
     75  C        -35.7870  -13.2300   40.0690 C.2   289  CYS289      0.2296
     76  O        -34.9190  -13.6230   40.8490 O.2   289  CYS289     -0.2864
     77  CB       -35.7570  -14.3760   37.8440 C.3   289  CYS289      0.0983
     78  SG       -36.2330  -15.8370   36.8880 S.3   289  CYS289     -0.0798
@<TRIPOS>BOND
     1    34    32   ar
     2    27    28    1
     3    32    31    1
     4    32    33   ar
     5    31    28    1
     6    28    29    1
     7    29    30    2
     8    22    21    2
     9    35    36    1
    10    21    20    1
    11    25    24    2
    12    20    19    1
    13    20    23    1
    14    40    39    1
    15    40    42    1
    16    39    36    1
    17    39    41    1
    18    36    37    1
    19    43    37   am
    20    43    44    1
    21    24    23    1
    22    24    26   am
    23    37    38    2
    24    44    45    1
    25    45    46    2
    26    11    10    2
    27    17    16    2
    28    13    12    1
    29    10     9    1
    30    10    14   am
    31     9    12    1
    32     9     8    1
    33    16    15    1
    34    60    59    1
    35    47    48    1
    36    59    61    1
    37    59    56    1
    38    15    14    1
    39    15    18    1
    40    51    48    1
    41    51    52    1
    42    55    56    1
    43    55    49   am
    44    48    49    1
    45    56    57    1
    46    49    50    2
    47    52    53    1
    48    57    58    2
    49    53    54    1
    50     4     3    2
    51    78    77    1
    52     3     2    1
    53     2     1    1
    54     2     5    1
    55    77    74    1
    56     7     5    1
    57    62    63    1
    58     5     6    1
    59    66    63    1
    60    66    67    1
    61    73    74    1
    62    73    64   am
    63    74    75    1
    64    63    64    1
    65    67    68   ar
    66    67    69   ar
    67    64    65    2
    68    68    70   ar
    69    75    76    2
    70    69    71   ar
    71    70    72   ar
    72    71    72   ar
