@<TRIPOS>MOLECULE
tmp/4tnwE01.pdb
 100 93 0 0 0
SMALL
GASTEIGER

@<TRIPOS>ATOM
      1  N        -51.6180    3.4230   22.9470 N.3   215  PHE215     -0.1241
      2  CA       -52.2970    2.9870   24.1650 C.3   215  PHE215      0.1605
      3  C        -51.4740    1.9510   24.9090 C.2   215  PHE215      0.2264
      4  O        -51.0980    2.1400   26.0690 O.2   215  PHE215     -0.2867
      5  CB       -53.6570    2.3960   23.8110 C.3   215  PHE215      0.0534
      6  CG       -54.3960    1.8020   24.9760 C.ar  215  PHE215     -0.0203
      7  CD1      -55.1680    2.6030   25.7990 C.ar  215  PHE215     -0.0042
      8  CD2      -54.3240    0.4450   25.2440 C.ar  215  PHE215     -0.0042
      9  CE1      -55.8580    2.0630   26.8660 C.ar  215  PHE215     -0.0003
     10  CE2      -54.9970   -0.0960   26.3170 C.ar  215  PHE215     -0.0003
     11  CZ       -55.7720    0.7100   27.1260 C.ar  215  PHE215     -0.0000
     12  N        -48.3750    3.1530   26.6650 N.3   218  LEU218     -0.1231
     13  CA       -48.5180    3.8090   27.9610 C.3   218  LEU218      0.1693
     14  C        -49.3170    2.9710   28.9550 C.2   218  LEU218      0.2591
     15  O        -49.2990    3.2440   30.1530 O.2   218  LEU218     -0.2718
     16  CB       -49.1770    5.1840   27.7880 C.3   218  LEU218      0.0284
     17  CG       -48.2800    6.2810   27.2030 C.3   218  LEU218      0.0019
     18  CD1      -49.0670    7.5510   26.9140 C.3   218  LEU218      0.0001
     19  CD2      -47.1210    6.5720   28.1420 C.3   218  LEU218      0.0001
     20  N        -50.0130    1.9510   28.4650 N.am  219  GLN219     -0.1979
     21  CA       -50.8060    1.1000   29.3480 C.3   219  GLN219      0.1601
     22  C        -50.1230   -0.2150   29.7050 C.2   219  GLN219      0.2287
     23  O        -50.3520   -0.7590   30.7860 O.2   219  GLN219     -0.2864
     24  CB       -52.1730    0.8170   28.7320 C.3   219  GLN219      0.0394
     25  CG       -53.0920    2.0140   28.8020 C.3   219  GLN219      0.0908
     26  CD       -53.3410    2.4630   30.2260 C.2   219  GLN219      0.2608
     27  OE1      -52.7340    3.4250   30.7000 O.2   219  GLN219     -0.2717
     28  NE2      -54.2370    1.7680   30.9200 N.am  219  GLN219     -0.0878
     29  N        -44.6740    0.6460   28.6920 N.3   222  ILE222     -0.1231
     30  CA       -44.0050    1.6030   29.5720 C.3   222  ILE222      0.1678
     31  C        -44.1020    1.2310   31.0610 C.2   222  ILE222      0.2434
     32  O        -43.0830    1.2280   31.7520 O.2   222  ILE222     -0.2733
     33  CB       -44.5470    3.0370   29.3640 C.3   222  ILE222      0.0265
     34  CG1      -44.1610    3.5490   27.9750 C.3   222  ILE222      0.0019
     35  CG2      -44.0160    3.9740   30.4370 C.3   222  ILE222      0.0020
     36  CD1      -42.6690    3.6660   27.7570 C.3   222  ILE222      0.0001
     37  N        -45.3130    0.9120   31.5670 N.am  223  PRO223     -0.2729
     38  CA       -45.3630    0.6030   33.0030 C.3   223  PRO223      0.1401
     39  C        -44.6330   -0.6820   33.3840 C.2   223  PRO223      0.2269
     40  O        -44.0560   -0.7630   34.4700 O.2   223  PRO223     -0.2865
     41  CB       -46.8620    0.4560   33.2750 C.3   223  PRO223      0.0296
     42  CG       -47.4490    0.0890   31.9680 C.3   223  PRO223      0.0237
     43  CD       -46.6560    0.8560   30.9610 C.3   223  PRO223      0.0939
     44  N        -40.8140   -0.1110   33.5370 N.3   226  MET226     -0.1230
     45  CA       -40.4960    0.5440   34.7970 C.3   226  MET226      0.1702
     46  C        -40.6180   -0.4410   35.9500 C.2   226  MET226      0.2592
     47  O        -39.8700   -0.3660   36.9220 O.2   226  MET226     -0.2718
     48  CB       -41.4100    1.7470   35.0350 C.3   226  MET226      0.0401
     49  CG       -41.1820    2.9040   34.0790 C.3   226  MET226      0.0596
     50  SD       -42.2980    4.2840   34.3960 S.3   226  MET226     -0.1393
     51  CE       -41.3860    5.1700   35.6580 C.3   226  MET226      0.0692
     52  N        -41.5590   -1.3700   35.8300 N.am  227  LEU227     -0.1980
     53  CA       -41.7770   -2.3690   36.8660 C.3   227  LEU227      0.1596
     54  C        -40.5830   -3.3180   36.9700 C.2   227  LEU227      0.2287
     55  O        -40.1360   -3.6480   38.0690 O.2   227  LEU227     -0.2864
     56  CB       -43.0630   -3.1500   36.5890 C.3   227  LEU227      0.0297
     57  CG       -44.0630   -3.2050   37.7470 C.3   227  LEU227      0.0022
     58  CD1      -44.2870   -1.8150   38.3250 C.3   227  LEU227      0.0001
     59  CD2      -45.3810   -3.8160   37.2990 C.3   227  LEU227      0.0001
     60  N        -37.6940   -1.4740   38.5980 N.3   230  VAL230     -0.1245
     61  CA       -37.8890   -1.3500   40.0410 C.3   230  VAL230      0.1561
     62  C        -37.5020   -2.6430   40.7620 C.2   230  VAL230      0.2260
     63  O        -36.9570   -2.6130   41.8660 O.2   230  VAL230     -0.2867
     64  CB       -39.3520   -0.9730   40.3790 C.3   230  VAL230      0.0252
     65  CG1      -39.6480   -1.1760   41.8590 C.3   230  VAL230      0.0019
     66  CG2      -39.6330    0.4660   39.9730 C.3   230  VAL230      0.0019
     67  N        -48.3930   -6.2870   41.1270 N.3   255  THR255     -0.1218
     68  CA       -48.8210   -5.2300   40.2180 C.3   255  THR255      0.1862
     69  C        -48.7810   -5.7140   38.7730 C.2   255  THR255      0.2287
     70  O        -49.6630   -5.3920   37.9770 O.2   255  THR255     -0.2866
     71  CB       -47.9410   -3.9740   40.3590 C.3   255  THR255      0.1770
     72  OG1      -47.9530   -3.5320   41.7220 O.3   255  THR255     -0.2211
     73  CG2      -48.4560   -2.8550   39.4670 C.3   255  THR255      0.0375
     74  N        -51.8130   -7.7180   37.8350 N.3   258  ALA258     -0.1231
     75  CA       -52.9630   -6.8480   37.6000 C.3   258  ALA258      0.1694
     76  C        -52.9380   -6.2820   36.1840 C.2   258  ALA258      0.2591
     77  O        -53.9780   -6.1270   35.5430 O.2   258  ALA258     -0.2718
     78  CB       -52.9960   -5.7210   38.6190 C.3   258  ALA258      0.0304
     79  N        -51.7410   -5.9520   35.7110 N.am  259  GLN259     -0.1979
     80  CA       -51.5690   -5.4370   34.3550 C.3   259  GLN259      0.1601
     81  C        -52.0140   -6.3950   33.2760 C.2   259  GLN259      0.2287
     82  O        -52.7050   -6.0160   32.3240 O.2   259  GLN259     -0.2864
     83  CB       -50.1070   -5.0960   34.1110 C.3   259  GLN259      0.0394
     84  CG       -49.6870   -3.8770   34.8350 C.3   259  GLN259      0.0908
     85  CD       -50.4420   -2.6860   34.3050 C.2   259  GLN259      0.2608
     86  OE1      -50.4980   -2.4650   33.0900 O.2   259  GLN259     -0.2717
     87  NE2      -51.0630   -1.9350   35.1980 N.am  259  GLN259     -0.0878
     88  N        -55.8210   -6.6640   32.8330 N.3   262  GLY262     -0.1225
     89  CA       -56.3880   -5.5250   32.1320 C.3   262  GLY262      0.1811
     90  C        -56.1430   -5.6110   30.6390 C.2   262  GLY262      0.2280
     91  O        -57.0100   -5.2790   29.8300 O.2   262  GLY262     -0.2866
     92  N        -59.2340   -6.1990   26.9530 N.3   266  GLN266     -0.1245
     93  CA       -59.4010   -5.4240   25.7200 C.3   266  GLN266      0.1566
     94  C        -59.1950   -6.2960   24.4940 C.2   266  GLN266      0.2260
     95  O        -59.9330   -6.1890   23.5160 O.2   266  GLN266     -0.2867
     96  CB       -58.4670   -4.2180   25.6740 C.3   266  GLN266      0.0367
     97  CG       -58.8300   -3.1410   26.6770 C.3   266  GLN266      0.0905
     98  CD       -58.1990   -1.8160   26.3350 C.2   266  GLN266      0.2608
     99  OE1      -57.2250   -1.7620   25.5910 O.2   266  GLN266     -0.2717
    100  NE2      -58.7440   -0.7350   26.8880 N.am  266  GLN266     -0.0878
@<TRIPOS>BOND
     1     1     2    1
     2    95    94    2
     3     5     2    1
     4     5     6    1
     5     2     3    1
     6    94    93    1
     7     3     4    2
     8     6     8   ar
     9     6     7   ar
    10     8    10   ar
    11    99    98    2
    12    96    93    1
    13    96    97    1
    14    93    92    1
    15     7     9   ar
    16    10    11   ar
    17    98    97    1
    18    98   100   am
    19    12    13    1
    20     9    11   ar
    21    18    17    1
    22    17    16    1
    23    17    19    1
    24    36    34    1
    25    16    13    1
    26    13    14    1
    27    34    33    1
    28    20    14   am
    29    20    21    1
    30    29    30    1
    31    24    25    1
    32    24    21    1
    33    25    26    1
    34    14    15    2
    35    21    22    1
    36    33    30    1
    37    33    35    1
    38    30    31    1
    39    22    23    2
    40    91    90    2
    41    26    27    2
    42    26    28   am
    43    90    89    1
    44    43    37    1
    45    43    42    1
    46    31    37   am
    47    31    32    2
    48    37    38    1
    49    42    41    1
    50    89    88    1
    51    82    81    2
    52    38    41    1
    53    38    39    1
    54    86    85    2
    55    81    80    1
    56    39    40    2
    57    44    45    1
    58    49    50    1
    59    49    48    1
    60    83    80    1
    61    83    84    1
    62    85    84    1
    63    85    87   am
    64    80    79    1
    65    50    51    1
    66    45    48    1
    67    45    46    1
    68    77    76    2
    69    79    76   am
    70    52    46   am
    71    52    53    1
    72    46    47    2
    73    76    75    1
    74    56    53    1
    75    56    57    1
    76    53    54    1
    77    54    55    2
    78    59    57    1
    79    75    74    1
    80    75    78    1
    81    57    58    1
    82    70    69    2
    83    60    61    1
    84    69    68    1
    85    73    71    1
    86    66    64    1
    87    61    64    1
    88    61    62    1
    89    68    71    1
    90    68    67    1
    91    71    72    1
    92    64    65    1
    93    62    63    2
