@<TRIPOS>MOLECULE
tmp/4tnwR01.pdb
 91 84 0 0 0
SMALL
GASTEIGER

@<TRIPOS>ATOM
      1  N        -36.4110  100.2260   32.8710 N.3   218  LEU218     -0.1231
      2  CA       -36.5640   99.1790   31.8740 C.3   218  LEU218      0.1693
      3  C        -37.3970   98.0170   32.4060 C.2   218  LEU218      0.2591
      4  O        -37.7870   97.1340   31.6480 O.2   218  LEU218     -0.2718
      5  CB       -35.1930   98.6830   31.4040 C.3   218  LEU218      0.0284
      6  CG       -34.4520   99.6360   30.4610 C.3   218  LEU218      0.0019
      7  CD1      -33.0390   99.1420   30.1870 C.3   218  LEU218      0.0001
      8  CD2      -35.2250   99.8040   29.1610 C.3   218  LEU218      0.0001
      9  N        -37.6590   98.0030   33.7080 N.am  219  GLN219     -0.1979
     10  CA       -38.4360   96.9120   34.2840 C.3   219  GLN219      0.1601
     11  C        -39.9100   97.2750   34.4610 C.2   219  GLN219      0.2287
     12  O        -40.7810   96.4110   34.3420 O.2   219  GLN219     -0.2864
     13  CB       -37.8480   96.4900   35.6310 C.3   219  GLN219      0.0394
     14  CG       -38.5270   95.2820   36.2440 C.3   219  GLN219      0.0908
     15  CD       -38.2880   94.0300   35.4280 C.2   219  GLN219      0.2608
     16  OE1      -39.1960   93.5220   34.7730 O.2   219  GLN219     -0.2717
     17  NE2      -37.0600   93.5320   35.4520 N.am  219  GLN219     -0.0878
     18  N        -40.7240  101.8610   31.2690 N.3   222  ILE222     -0.1231
     19  CA       -40.7130  101.6880   29.8210 C.3   222  ILE222      0.1678
     20  C        -41.8050  100.7230   29.3310 C.2   222  ILE222      0.2434
     21  O        -42.5510  101.0690   28.4150 O.2   222  ILE222     -0.2733
     22  CB       -39.3290  101.2100   29.3190 C.3   222  ILE222      0.0265
     23  CG1      -38.2850  102.3090   29.5230 C.3   222  ILE222      0.0019
     24  CG2      -39.3950  100.8150   27.8530 C.3   222  ILE222      0.0020
     25  CD1      -38.5660  103.5680   28.7340 C.3   222  ILE222      0.0001
     26  N        -41.9220   99.5210   29.9340 N.am  223  PRO223     -0.2729
     27  CA       -42.9570   98.6330   29.3880 C.3   223  PRO223      0.1401
     28  C        -44.3850   99.1270   29.6220 C.2   223  PRO223      0.2269
     29  O        -45.2460   98.8970   28.7730 O.2   223  PRO223     -0.2865
     30  CB       -42.7110   97.3140   30.1280 C.3   223  PRO223      0.0296
     31  CG       -42.0310   97.7060   31.3820 C.3   223  PRO223      0.0237
     32  CD       -41.1530   98.8560   31.0020 C.3   223  PRO223      0.0939
     33  N        -45.2110  101.8490   27.0510 N.3   226  MET226     -0.1230
     34  CA       -45.5530  101.2250   25.7800 C.3   226  MET226      0.1702
     35  C        -46.9160  100.5530   25.8720 C.2   226  MET226      0.2592
     36  O        -47.6690  100.5200   24.9010 O.2   226  MET226     -0.2718
     37  CB       -44.4910  100.2100   25.3550 C.3   226  MET226      0.0401
     38  CG       -43.1580  100.8290   24.9780 C.3   226  MET226      0.0596
     39  SD       -41.9340   99.6030   24.4800 S.3   226  MET226     -0.1393
     40  CE       -41.8690   98.5600   25.9330 C.3   226  MET226      0.0692
     41  N        -47.2330  100.0300   27.0510 N.am  227  LEU227     -0.1980
     42  CA       -48.5040   99.3530   27.2650 C.3   227  LEU227      0.1596
     43  C        -49.6750  100.3300   27.1690 C.2   227  LEU227      0.2287
     44  O        -50.6880  100.0300   26.5390 O.2   227  LEU227     -0.2864
     45  CB       -48.5040   98.6460   28.6210 C.3   227  LEU227      0.0297
     46  CG       -48.8780   97.1620   28.6060 C.3   227  LEU227      0.0022
     47  CD1      -48.1070   96.4190   27.5270 C.3   227  LEU227      0.0001
     48  CD2      -48.6190   96.5390   29.9660 C.3   227  LEU227      0.0001
     49  N        -50.1170  101.3500   23.4960 N.3   230  VAL230     -0.1245
     50  CA       -50.7560  100.2910   22.7160 C.3   230  VAL230      0.1561
     51  C        -52.2700  100.3010   22.9340 C.2   230  VAL230      0.2260
     52  O        -53.0440  100.0400   22.0120 O.2   230  VAL230     -0.2867
     53  CB       -50.1770   98.8970   23.0700 C.3   230  VAL230      0.0252
     54  CG1      -51.0560   97.7770   22.5250 C.3   230  VAL230      0.0019
     55  CG2      -48.7610   98.7620   22.5370 C.3   230  VAL230      0.0019
     56  N        -51.7550   92.2740   31.0500 N.3   255  THR255     -0.1218
     57  CA       -50.3020   92.4030   31.0430 C.3   255  THR255      0.1862
     58  C        -49.8430   93.4500   32.0520 C.2   255  THR255      0.2287
     59  O        -48.8340   93.2660   32.7360 O.2   255  THR255     -0.2866
     60  CB       -49.7770   92.7770   29.6440 C.3   255  THR255      0.1770
     61  OG1      -50.2270   91.8080   28.6900 O.3   255  THR255     -0.2211
     62  CG2      -48.2540   92.8210   29.6320 C.3   255  THR255      0.0375
     63  N        -49.6520   92.1400   35.5210 N.3   258  ALA258     -0.1231
     64  CA       -48.4510   91.3460   35.7520 C.3   258  ALA258      0.1694
     65  C        -47.2810   92.2270   36.1830 C.2   258  ALA258      0.2591
     66  O        -46.4930   91.8390   37.0460 O.2   258  ALA258     -0.2718
     67  CB       -48.0900   90.5590   34.5060 C.3   258  ALA258      0.0304
     68  N        -47.1710   93.4070   35.5800 N.am  259  GLN259     -0.1979
     69  CA       -46.1190   94.3550   35.9340 C.3   259  GLN259      0.1601
     70  C        -46.2430   94.7710   37.3930 C.2   259  GLN259      0.2287
     71  O        -45.2490   94.8630   38.1150 O.2   259  GLN259     -0.2864
     72  CB       -46.1790   95.5990   35.0470 C.3   259  GLN259      0.0394
     73  CG       -45.8200   95.3680   33.5940 C.3   259  GLN259      0.0908
     74  CD       -44.3970   94.8900   33.4100 C.2   259  GLN259      0.2608
     75  OE1      -43.4560   95.4580   33.9660 O.2   259  GLN259     -0.2717
     76  NE2      -44.2310   93.8490   32.6070 N.am  259  GLN259     -0.0878
     77  N        -47.5610   93.1400   39.8250 N.3   261  ALA261     -0.1231
     78  CA       -47.1860   92.0200   40.6770 C.3   261  ALA261      0.1694
     79  C        -45.6700   91.9600   40.8540 C.2   261  ALA261      0.2592
     80  O        -45.1760   91.6150   41.9260 O.2   261  ALA261     -0.2718
     81  CB       -47.7080   90.7140   40.1000 C.3   261  ALA261      0.0304
     82  N        -44.9390   92.2830   39.7920 N.am  262  GLY262     -0.1957
     83  CA       -43.4860   92.2710   39.8220 C.3   262  GLY262      0.1869
     84  C        -42.8180   93.2710   40.7430 C.2   262  GLY262      0.2309
     85  O        -41.8110   92.9630   41.3850 O.2   262  GLY262     -0.2863
     86  N        -42.7880   92.2330   44.6330 N.3   265  SER265     -0.1217
     87  CA       -41.7580   91.3300   45.1200 C.3   265  SER265      0.1889
     88  C        -40.4580   92.0140   45.5420 C.2   265  SER265      0.2288
     89  O        -39.9090   91.7160   46.6020 O.2   265  SER265     -0.2866
     90  CB       -41.4580   90.2790   44.0490 C.3   265  SER265      0.2089
     91  OG       -42.6200   89.5210   43.7640 O.3   265  SER265     -0.2183
@<TRIPOS>BOND
     1    52    51    2
     2    54    53    1
     3    55    53    1
     4    50    51    1
     5    50    53    1
     6    50    49    1
     7    39    38    1
     8    39    40    1
     9    36    35    2
    10    38    37    1
    11    37    34    1
    12    34    35    1
    13    34    33    1
    14    35    41   am
    15    44    43    2
    16    41    42    1
    17    43    42    1
    18    42    45    1
    19    47    46    1
    20    24    22    1
    21    21    20    2
    22    46    45    1
    23    46    48    1
    24    61    60    1
    25    25    23    1
    26    29    28    2
    27     8     6    1
    28    22    23    1
    29    22    19    1
    30    20    19    1
    31    20    26   am
    32    27    28    1
    33    27    26    1
    34    27    30    1
    35    62    60    1
    36    60    57    1
    37    19    18    1
    38    26    32    1
    39    30    31    1
    40     7     6    1
    41     6     5    1
    42    32    31    1
    43    57    56    1
    44    57    58    1
    45     5     2    1
    46     4     3    2
    47     2     3    1
    48     2     1    1
    49    58    59    2
    50     3     9   am
    51    76    74   am
    52    74    73    1
    53    74    75    2
    54    73    72    1
    55     9    10    1
    56    10    11    1
    57    10    13    1
    58    12    11    2
    59    67    64    1
    60    16    15    2
    61    72    69    1
    62    15    17   am
    63    15    14    1
    64    63    64    1
    65    68    69    1
    66    68    65   am
    67    13    14    1
    68    64    65    1
    69    69    70    1
    70    65    66    2
    71    70    71    2
    72    82    83    1
    73    82    79   am
    74    83    84    1
    75    77    78    1
    76    81    78    1
    77    78    79    1
    78    84    85    2
    79    79    80    2
    80    91    90    1
    81    90    87    1
    82    86    87    1
    83    87    88    1
    84    88    89    2
