@<TRIPOS>MOLECULE
tmp/4tnwP01.pdb
 126 120 0 0 0
SMALL
GASTEIGER

@<TRIPOS>ATOM
      1  N        -52.1480   75.5490   35.1720 N.3   257  THR257     -0.1218
      2  CA       -51.2840   76.6560   35.5690 C.3   257  THR257      0.1862
      3  C        -51.3960   76.9360   37.0630 C.2   257  THR257      0.2287
      4  O        -50.3940   77.1910   37.7330 O.2   257  THR257     -0.2866
      5  CB       -51.6260   77.9450   34.8000 C.3   257  THR257      0.1770
      6  OG1      -51.6480   77.6760   33.3940 O.3   257  THR257     -0.2211
      7  CG2      -50.5990   79.0260   35.0890 C.3   257  THR257      0.0375
      8  N        -49.3790   74.5730   39.0300 N.3   260  SER260     -0.1217
      9  CA       -47.9480   74.8440   38.9730 C.3   260  SER260      0.1889
     10  C        -47.5290   75.8370   40.0500 C.2   260  SER260      0.2288
     11  O        -46.4720   75.6860   40.6610 O.2   260  SER260     -0.2866
     12  CB       -47.5560   75.3750   37.5920 C.3   260  SER260      0.2089
     13  OG       -46.1670   75.6500   37.5240 O.3   260  SER260     -0.2183
     14  N        -40.4500   68.6170   38.5390 N.3   277  ASP277     -0.1225
     15  CA       -40.3000   69.5920   37.4680 C.3   277  ASP277      0.1805
     16  C        -40.5930   68.9260   36.1380 C.2   277  ASP277      0.2597
     17  O        -41.2030   69.5200   35.2500 O.2   277  ASP277     -0.2718
     18  CB       -38.8910   70.1910   37.4650 C.3   277  ASP277      0.1424
     19  CG       -38.5320   70.8570   38.7810 C.2   277  ASP277      0.3668
     20  OD1      -39.4380   71.4070   39.4420 O.co2 277  ASP277     -0.2456
     21  OD2      -37.3380   70.8350   39.1490 O.co2 277  ASP277     -0.2456
     22  N        -40.1460   67.6820   36.0160 N.am  278  VAL278     -0.1980
     23  CA       -40.3590   66.8930   34.8130 C.3   278  VAL278      0.1595
     24  C        -41.8450   66.6370   34.5780 C.2   278  VAL278      0.2287
     25  O        -42.3540   66.8360   33.4720 O.2   278  VAL278     -0.2864
     26  CB       -39.6170   65.5440   34.8940 C.3   278  VAL278      0.0276
     27  CG1      -40.0730   64.6140   33.7820 C.3   278  VAL278      0.0022
     28  CG2      -38.1150   65.7630   34.8360 C.3   278  VAL278      0.0022
     29  N        -44.4310   68.1850   35.7760 N.3   280  ILE280     -0.1231
     30  CA       -45.2190   69.4020   35.5940 C.3   280  ILE280      0.1692
     31  C        -45.1210   69.8880   34.1530 C.2   280  ILE280      0.2593
     32  O        -46.1340   70.1790   33.5140 O.2   280  ILE280     -0.2718
     33  CB       -44.7640   70.5250   36.5500 C.3   280  ILE280      0.0266
     34  CG1      -45.4040   70.3460   37.9260 C.3   280  ILE280      0.0019
     35  CG2      -45.1510   71.8900   36.0010 C.3   280  ILE280      0.0020
     36  CD1      -46.9000   70.5840   37.9360 C.3   280  ILE280      0.0001
     37  N        -43.8940   69.9620   33.6460 N.am  281  GLY281     -0.1942
     38  CA       -43.6460   70.4310   32.2960 C.3   281  GLY281      0.2014
     39  C        -44.2720   69.5410   31.2420 C.2   281  GLY281      0.2638
     40  O        -44.6560   70.0040   30.1660 O.2   281  GLY281     -0.2714
     41  N        -44.3710   68.2540   31.5520 N.am  282  ALA282     -0.1977
     42  CA       -44.9620   67.2940   30.6330 C.3   282  ALA282      0.1597
     43  C        -46.4680   67.4960   30.5120 C.2   282  ALA282      0.2287
     44  O        -46.9870   67.6780   29.4100 O.2   282  ALA282     -0.2864
     45  CB       -44.6540   65.8810   31.0820 C.3   282  ALA282      0.0319
     46  N        -48.1920   69.9950   31.2790 N.3   284  MET284     -0.1230
     47  CA       -48.4490   71.3150   30.7260 C.3   284  MET284      0.1702
     48  C        -48.4050   71.2830   29.2040 C.2   284  MET284      0.2593
     49  O        -49.1840   71.9610   28.5350 O.2   284  MET284     -0.2718
     50  CB       -47.4370   72.3250   31.2590 C.3   284  MET284      0.0401
     51  CG       -47.8830   73.7630   31.1180 C.3   284  MET284      0.0596
     52  SD       -49.3030   74.1650   32.1470 S.3   284  MET284     -0.1393
     53  CE       -49.4800   75.9110   31.7890 C.3   284  MET284      0.0692
     54  N        -47.4920   70.4820   28.6660 N.am  285  THR285     -0.1939
     55  CA       -47.3080   70.3790   27.2230 C.3   285  THR285      0.2028
     56  C        -48.4560   69.6280   26.5510 C.2   285  THR285      0.2642
     57  O        -49.0000   70.0880   25.5460 O.2   285  THR285     -0.2714
     58  CB       -45.9800   69.6770   26.8850 C.3   285  THR285      0.1808
     59  OG1      -44.8900   70.4110   27.4560 O.3   285  THR285     -0.2208
     60  CG2      -45.7920   69.5800   25.3790 C.3   285  THR285      0.0379
     61  N        -48.8140   68.4720   27.1060 N.am  286  PHE286     -0.1973
     62  CA       -49.8940   67.6490   26.5640 C.3   286  PHE286      0.1639
     63  C        -51.2060   68.4210   26.4630 C.2   286  PHE286      0.2290
     64  O        -51.9540   68.2720   25.4970 O.2   286  PHE286     -0.2864
     65  CB       -50.1020   66.4010   27.4250 C.3   286  PHE286      0.0560
     66  CG       -49.1670   65.2740   27.1000 C.ar  286  PHE286     -0.0200
     67  CD1      -47.8930   65.2370   27.6420 C.ar  286  PHE286     -0.0042
     68  CD2      -49.5580   64.2540   26.2510 C.ar  286  PHE286     -0.0042
     69  CE1      -47.0290   64.2000   27.3480 C.ar  286  PHE286     -0.0003
     70  CE2      -48.6980   63.2160   25.9490 C.ar  286  PHE286     -0.0003
     71  CZ       -47.4310   63.1890   26.4980 C.ar  286  PHE286     -0.0000
     72  N        -51.3820   71.7850   26.4350 N.3   288  PHE288     -0.1227
     73  CA       -51.1320   72.9020   25.5330 C.3   288  PHE288      0.1736
     74  C        -51.2650   72.4570   24.0790 C.2   288  PHE288      0.2595
     75  O        -51.8090   73.1840   23.2470 O.2   288  PHE288     -0.2718
     76  CB       -49.7440   73.4930   25.7800 C.3   288  PHE288      0.0547
     77  CG       -49.5650   74.8760   25.2210 C.ar  288  PHE288     -0.0202
     78  CD1      -49.2770   75.0680   23.8810 C.ar  288  PHE288     -0.0042
     79  CD2      -49.6820   75.9840   26.0420 C.ar  288  PHE288     -0.0042
     80  CE1      -49.1130   76.3400   23.3700 C.ar  288  PHE288     -0.0003
     81  CE2      -49.5160   77.2580   25.5390 C.ar  288  PHE288     -0.0003
     82  CZ       -49.2320   77.4370   24.2000 C.ar  288  PHE288     -0.0000
     83  N        -50.7640   71.2620   23.7820 N.am  289  CYS289     -0.1970
     84  CA       -50.8110   70.7270   22.4260 C.3   289  CYS289      0.1712
     85  C        -52.2330   70.3640   22.0200 C.2   289  CYS289      0.2296
     86  O        -52.6040   70.4950   20.8540 O.2   289  CYS289     -0.2864
     87  CB       -49.9060   69.5000   22.2960 C.3   289  CYS289      0.0983
     88  SG       -48.1370   69.8630   22.3040 S.3   289  CYS289     -0.0798
     89  N        -53.6390   73.5040   21.0000 N.3   292  LEU292     -0.1245
     90  CA       -52.9670   73.8830   19.7640 C.3   292  LEU292      0.1561
     91  C        -53.4690   73.0460   18.5920 C.2   292  LEU292      0.2260
     92  O        -53.6020   73.5450   17.4740 O.2   292  LEU292     -0.2867
     93  CB       -51.4490   73.7430   19.9200 C.3   292  LEU292      0.0270
     94  CG       -50.5570   74.0250   18.7090 C.3   292  LEU292      0.0019
     95  CD1      -49.3050   74.7600   19.1500 C.3   292  LEU292      0.0001
     96  CD2      -50.1820   72.7370   17.9900 C.3   292  LEU292      0.0001
     97  N        -52.2910   60.9830   21.3290 N.3   323  PHE323     -0.1241
     98  CA       -52.1800   61.5970   22.6530 C.3   323  PHE323      0.1605
     99  C        -52.2650   60.5950   23.8150 C.2   323  PHE323      0.2264
    100  O        -51.4320   60.6470   24.7210 O.2   323  PHE323     -0.2867
    101  CB       -53.2450   62.6880   22.8290 C.3   323  PHE323      0.0534
    102  CG       -52.8980   63.9880   22.1600 C.ar  323  PHE323     -0.0203
    103  CD1      -53.0420   64.1400   20.7900 C.ar  323  PHE323     -0.0042
    104  CD2      -52.4240   65.0590   22.9010 C.ar  323  PHE323     -0.0042
    105  CE1      -52.7250   65.3360   20.1730 C.ar  323  PHE323     -0.0003
    106  CE2      -52.1030   66.2570   22.2900 C.ar  323  PHE323     -0.0003
    107  CZ       -52.2540   66.3950   20.9240 C.ar  323  PHE323     -0.0000
    108  N        -48.9290   58.3950   23.6250 N.3   326  LEU326     -0.1245
    109  CA       -47.7420   59.1590   23.9970 C.3   326  LEU326      0.1561
    110  C        -47.7220   59.4580   25.4940 C.2   326  LEU326      0.2260
    111  O        -46.6650   59.4330   26.1270 O.2   326  LEU326     -0.2867
    112  CB       -47.6630   60.4600   23.1970 C.3   326  LEU326      0.0270
    113  CG       -47.2250   60.3000   21.7410 C.3   326  LEU326      0.0019
    114  CD1      -47.1120   61.6520   21.0580 C.3   326  LEU326      0.0001
    115  CD2      -45.9070   59.5450   21.6650 C.3   326  LEU326      0.0001
    116  N        -45.0560   58.0950   28.1390 N.3   330  PHE330     -0.1241
    117  CA       -44.3690   58.9710   29.0800 C.3   330  PHE330      0.1605
    118  C        -44.3890   58.4190   30.5050 C.2   330  PHE330      0.2264
    119  O        -43.3600   58.4000   31.1800 O.2   330  PHE330     -0.2867
    120  CB       -44.9810   60.3720   29.0680 C.3   330  PHE330      0.0534
    121  CG       -44.5180   61.2350   30.2060 C.ar  330  PHE330     -0.0203
    122  CD1      -43.2520   61.7960   30.1940 C.ar  330  PHE330     -0.0042
    123  CD2      -45.3410   61.4740   31.2950 C.ar  330  PHE330     -0.0042
    124  CE1      -42.8160   62.5830   31.2440 C.ar  330  PHE330     -0.0003
    125  CE2      -44.9120   62.2590   32.3470 C.ar  330  PHE330     -0.0003
    126  CZ       -43.6470   62.8130   32.3230 C.ar  330  PHE330     -0.0000
@<TRIPOS>BOND
     1    92    91    2
     2    96    94    1
     3    91    90    1
     4    94    95    1
     5    94    93    1
     6    90    93    1
     7    90    89    1
     8   105   103   ar
     9   105   107   ar
    10   103   102   ar
    11    86    85    2
    12   107   106   ar
    13   114   113    1
    14    97    98    1
    15   115   113    1
    16   113   112    1
    17    85    84    1
    18   102   101    1
    19   102   104   ar
    20   106   104   ar
    21    87    88    1
    22    87    84    1
    23    84    83    1
    24    98   101    1
    25    98    99    1
    26   112   109    1
    27    75    74    2
    28    80    78   ar
    29    80    82   ar
    30   108   109    1
    31    83    74   am
    32    99   100    2
    33    78    77   ar
    34   109   110    1
    35    74    73    1
    36    82    81   ar
    37    77    76    1
    38    77    79   ar
    39    60    58    1
    40   110   111    2
    41    64    63    2
    42    73    76    1
    43    73    72    1
    44    81    79   ar
    45    57    56    2
    46    70    68   ar
    47    70    71   ar
    48    68    66   ar
    49    63    62    1
    50    71    69   ar
    51    56    61   am
    52    56    55    1
    53    62    61    1
    54    62    65    1
    55    58    55    1
    56    58    59    1
    57    66    65    1
    58    66    67   ar
    59    55    54    1
    60    69    67   ar
    61   116   117    1
    62    49    48    2
    63    54    48   am
    64   120   117    1
    65   120   121    1
    66   117   118    1
    67    48    47    1
    68    44    43    2
    69    40    39    2
    70   122   121   ar
    71   122   124   ar
    72   121   123   ar
    73   118   119    2
    74    43    42    1
    75    42    45    1
    76    42    41    1
    77    47    50    1
    78    47    46    1
    79    51    50    1
    80    51    52    1
    81    39    41   am
    82    39    38    1
    83   124   126   ar
    84   123   125   ar
    85    53    52    1
    86    38    37    1
    87   126   125   ar
    88     6     5    1
    89    25    24    2
    90    32    31    2
    91    37    31   am
    92    27    26    1
    93    31    30    1
    94    24    23    1
    95     5     7    1
    96     5     2    1
    97    23    26    1
    98    23    22    1
    99    28    26    1
   100     1     2    1
   101    17    16    2
   102     2     3    1
   103    30    29    1
   104    30    33    1
   105    35    33    1
   106    22    16   am
   107    16    15    1
   108    33    34    1
   109     3     4    2
   110    18    15    1
   111    18    19    1
   112    15    14    1
   113    13    12    1
   114    12     9    1
   115    34    36    1
   116    19    21   ar
   117    19    20   ar
   118     9     8    1
   119     9    10    1
   120    10    11    2
