@<TRIPOS>MOLECULE
tmp/4tnxA03.pdb
 133 128 0 0 0
SMALL
GASTEIGER

@<TRIPOS>ATOM
      1  N         17.3890   -4.1630    6.3550 N.3    52  ARG52      -0.1245
      2  CA        18.1060   -5.4200    6.3560 C.3    52  ARG52       0.1563
      3  C         17.1890   -6.6180    6.1320 C.2    52  ARG52       0.2260
      4  O         17.6500   -7.6910    5.7180 O.2    52  ARG52      -0.2867
      5  CB        18.8290   -5.5890    7.6830 C.3    52  ARG52       0.0307
      6  CG        20.0700   -4.7410    7.8190 C.3    52  ARG52       0.0489
      7  CD        21.2670   -5.4460    7.2260 C.3    52  ARG52       0.2205
      8  NE        22.2570   -4.4230    6.8880 N.pl3  52  ARG52      -0.0865
      9  CZ        23.3480   -4.6120    6.1750 C.cat  52  ARG52       0.5346
     10  NH1       23.6660   -5.7990    5.7610 N.pl3  52  ARG52       0.1354
     11  NH2       24.1390   -3.5900    5.9100 N.pl3  52  ARG52       0.1354
     12  N         16.8370   -7.4570    2.3880 N.3    55  HIS55      -0.1241
     13  CA        18.1210   -7.9850    1.9670 C.3    55  HIS55       0.1621
     14  C         18.3250   -9.4230    2.4300 C.2    55  HIS55       0.2264
     15  O         18.7720  -10.2610    1.6720 O.2    55  HIS55      -0.2867
     16  CB        19.2090   -7.1180    2.4670 C.3    55  HIS55       0.0745
     17  CG        20.5560   -7.7060    2.2310 C.ar   55  HIS55       0.0817
     18  ND1       21.4240   -8.0170    3.2640 N.ar   55  HIS55      -0.2268
     19  CD2       21.1710   -8.0680    1.0940 C.ar   55  HIS55       0.1154
     20  CE1       22.5300   -8.5220    2.7480 C.ar   55  HIS55       0.1986
     21  NE2       22.3810   -8.5880    1.4330 N.ar   55  HIS55      -0.2212
     22  N         22.0840  -14.5290    8.3140 N.3    94  ARG94      -0.1231
     23  CA        23.4300  -13.9660    8.5190 C.3    94  ARG94       0.1694
     24  C         23.4660  -12.4900    8.7850 C.2    94  ARG94       0.2592
     25  O         24.4950  -11.9500    9.1330 O.2    94  ARG94      -0.2718
     26  CB        24.4270  -14.3170    7.4140 C.3    94  ARG94       0.0321
     27  CG        24.0810  -13.8200    6.0700 C.3    94  ARG94       0.0489
     28  CD        25.3500  -13.7090    5.2240 C.3    94  ARG94       0.2205
     29  NE        26.1750  -12.6130    5.6740 N.pl3  94  ARG94      -0.0865
     30  CZ        27.3530  -12.2810    5.1300 C.cat  94  ARG94       0.5346
     31  NH1       27.8860  -12.9660    4.1320 N.pl3  94  ARG94       0.1354
     32  NH2       28.0350  -11.2680    5.6220 N.pl3  94  ARG94       0.1354
     33  N         22.3480  -11.8280    8.6090 N.am   95  ASN95      -0.1974
     34  CA        22.2520  -10.4210    8.9560 C.3    95  ASN95       0.1688
     35  C         21.5430  -10.1480   10.3120 C.2    95  ASN95       0.2292
     36  O         21.3340   -8.9870   10.6600 O.2    95  ASN95      -0.2864
     37  CB        21.5970   -9.6280    7.7790 C.3    95  ASN95       0.1181
     38  CG        22.5520   -9.4410    6.6190 C.2    95  ASN95       0.2629
     39  OD1       23.2980   -8.4660    6.5490 O.2    95  ASN95      -0.2716
     40  ND2       22.5780  -10.4140    5.7280 N.am   95  ASN95      -0.0877
     41  N         22.9500   -7.4360   13.0630 N.3    98  HIS98      -0.1241
     42  CA        23.1800   -6.0410   12.7540 C.3    98  HIS98       0.1621
     43  C         22.4750   -5.1760   13.7440 C.2    98  HIS98       0.2264
     44  O         21.3610   -5.4920   14.2260 O.2    98  HIS98      -0.2867
     45  CB        22.7140   -5.6450   11.3370 C.3    98  HIS98       0.0745
     46  CG        23.7560   -5.8360   10.3150 C.ar   98  HIS98       0.0817
     47  ND1       24.8850   -5.0540   10.2770 N.ar   98  HIS98      -0.2268
     48  CD2       23.9200   -6.7830    9.3690 C.ar   98  HIS98       0.1154
     49  CE1       25.6830   -5.4810    9.3240 C.ar   98  HIS98       0.1986
     50  NE2       25.1250   -6.5360    8.7690 N.ar   98  HIS98      -0.2212
     51  N         26.3570   -0.9740    9.5880 N.3   103  HIS103     -0.1241
     52  CA        27.8060   -0.9910    9.8140 C.3   103  HIS103      0.1621
     53  C         28.2630    0.1400   10.7180 C.2   103  HIS103      0.2264
     54  O         29.3230    0.0380   11.3330 O.2   103  HIS103     -0.2867
     55  CB        28.5970   -0.9590    8.4610 C.3   103  HIS103      0.0745
     56  CG        28.4330   -2.2080    7.6770 C.ar  103  HIS103      0.0817
     57  ND1       29.0380   -3.3880    8.0470 N.ar  103  HIS103     -0.2268
     58  CD2       27.6450   -2.5060    6.6120 C.ar  103  HIS103      0.1154
     59  CE1       28.6750   -4.3470    7.2110 C.ar  103  HIS103      0.1986
     60  NE2       27.8170   -3.8400    6.3450 N.ar  103  HIS103     -0.2212
     61  N         28.9520   -7.9590   14.0130 N.3   121  HIS121     -0.1226
     62  CA        27.5970   -8.3150   13.6590 C.3   121  HIS121      0.1752
     63  C         27.5030   -9.8270   13.4600 C.2   121  HIS121      0.2595
     64  O         26.4810  -10.4260   13.7940 O.2   121  HIS121     -0.2718
     65  CB        27.0780   -7.4820   12.4200 C.3   121  HIS121      0.0759
     66  CG        27.7270   -7.8230   11.0990 C.ar  121  HIS121      0.0818
     67  ND1       28.6890   -7.0190   10.5110 N.ar  121  HIS121     -0.2268
     68  CD2       27.5680   -8.8830   10.2730 C.ar  121  HIS121      0.1154
     69  CE1       29.1050   -7.5740    9.3900 C.ar  121  HIS121      0.1986
     70  NE2       28.4400   -8.7050    9.2210 N.ar  121  HIS121     -0.2212
     71  N         28.5550  -10.4660   12.9460 N.am  122  GLU122     -0.1979
     72  CA        28.5050  -11.9370   12.7570 C.3   122  GLU122      0.1602
     73  C         28.2950  -12.6770   14.0490 C.2   122  GLU122      0.2287
     74  O         27.4720  -13.5760   14.1120 O.2   122  GLU122     -0.2864
     75  CB        29.7610  -12.4800   12.0940 C.3   122  GLU122      0.0415
     76  CG        29.8980  -12.0940   10.6280 C.3   122  GLU122      0.1163
     77  CD        30.7160  -10.8410   10.4080 C.2   122  GLU122      0.3649
     78  OE1       30.8800   -9.9790   11.3310 O.co2 122  GLU122     -0.2457
     79  OE2       31.2060  -10.7440    9.2680 O.co2 122  GLU122     -0.2457
     80  N         25.5770  -13.1220   -0.3470 N.3   193  ASP193     -0.1225
     81  CA        25.2900  -11.8920    0.3910 C.3   193  ASP193      0.1805
     82  C         25.6690  -10.6570   -0.4360 C.2   193  ASP193      0.2597
     83  O         24.8720   -9.7190   -0.6130 O.2   193  ASP193     -0.2718
     84  CB        26.0250  -11.8800    1.7590 C.3   193  ASP193      0.1424
     85  CG        25.7180  -10.6370    2.5770 C.2   193  ASP193      0.3668
     86  OD1       24.6860  -10.6150    3.3000 O.co2 193  ASP193     -0.2456
     87  OD2       26.5120   -9.6730    2.5250 O.co2 193  ASP193     -0.2456
     88  N         26.8910  -10.6470   -0.9380 N.am  194  LYS194     -0.1979
     89  CA        27.3230   -9.6210   -1.9050 C.3   194  LYS194      0.1596
     90  C         26.4100   -9.5720   -3.1110 C.2   194  LYS194      0.2287
     91  O         26.0160   -8.5190   -3.5570 O.2   194  LYS194     -0.2864
     92  CB        28.6950   -9.9340   -2.4290 C.3   194  LYS194      0.0298
     93  CG        29.8580   -9.6710   -1.4630 C.3   194  LYS194      0.0038
     94  CD        31.1480   -9.9760   -2.2000 C.3   194  LYS194      0.0206
     95  CE        32.3260   -9.5750   -1.3350 C.3   194  LYS194      0.1093
     96  NZ        32.4400  -10.3980   -0.0980 N.3   194  LYS194     -0.1314
     97  N         23.1950   -7.6550   -2.2320 N.3   197  TYR197     -0.1241
     98  CA        23.3580   -6.2450   -1.9760 C.3   197  TYR197      0.1605
     99  C         23.7790   -5.4680   -3.1730 C.2   197  TYR197      0.2264
    100  O         23.3610   -4.3270   -3.3350 O.2   197  TYR197     -0.2867
    101  CB        24.1760   -5.9580   -0.7020 C.3   197  TYR197      0.0534
    102  CG        25.6800   -5.9770   -0.7370 C.ar  197  TYR197     -0.0201
    103  CD1       26.3970   -5.0820   -1.4970 C.ar  197  TYR197     -0.0009
    104  CD2       26.4060   -6.7720    0.1670 C.ar  197  TYR197     -0.0009
    105  CE1       27.8050   -5.0560   -1.4430 C.ar  197  TYR197      0.0417
    106  CE2       27.7930   -6.7630    0.2160 C.ar  197  TYR197      0.0417
    107  CZ        28.4880   -5.9040   -0.5690 C.ar  197  TYR197      0.1957
    108  OH        29.8830   -5.8670   -0.5490 O.3   197  TYR197     -0.2866
    109  N         32.3930   -3.9200   -6.4410 N.3   248  ARG248     -0.1245
    110  CA        32.2980   -3.7710   -4.9900 C.3   248  ARG248      0.1563
    111  C         33.0480   -2.5190   -4.5490 C.2   248  ARG248      0.2260
    112  O         32.5880   -1.7600   -3.7250 O.2   248  ARG248     -0.2867
    113  CB        32.8570   -5.0170   -4.3150 C.3   248  ARG248      0.0307
    114  CG        32.8350   -4.9550   -2.7840 C.3   248  ARG248      0.0489
    115  CD        33.2680   -6.2520   -2.1550 C.3   248  ARG248      0.2205
    116  NE        33.5310   -6.1110   -0.7310 N.pl3 248  ARG248     -0.0865
    117  CZ        34.6730   -5.6630   -0.2280 C.cat 248  ARG248      0.5346
    118  NH1       35.6870   -5.3250   -1.0110 N.pl3 248  ARG248      0.1354
    119  NH2       34.8020   -5.5910    1.0780 N.pl3 248  ARG248      0.1354
    120  N         31.5890    0.9650   -2.8170 N.3   252  HIS252     -0.1241
    121  CA        32.1970    1.5860   -1.6290 C.3   252  HIS252      0.1621
    122  C         32.5890    3.0540   -1.8440 C.2   252  HIS252      0.2264
    123  O         32.2680    3.9190   -1.0500 O.2   252  HIS252     -0.2867
    124  CB        33.3840    0.7330   -1.1440 C.3   252  HIS252      0.0745
    125  CG        32.9580   -0.3670   -0.2360 C.ar  252  HIS252      0.0817
    126  ND1       32.7060   -0.1450    1.1080 N.ar  252  HIS252     -0.2268
    127  CD2       32.6170   -1.6530   -0.4860 C.ar  252  HIS252      0.1154
    128  CE1       32.2890   -1.2750    1.6560 C.ar  252  HIS252      0.1986
    129  NE2       32.2250   -2.2040    0.7100 N.ar  252  HIS252     -0.2212
    130  N         38.6780   -7.3810   -0.3110 N.3   390  GLY390     -0.1225
    131  CA        38.1420   -8.3230    0.6680 C.3   390  GLY390      0.1811
    132  C         39.1780   -9.1060    1.4720 C.2   390  GLY390      0.2280
    133  O         38.8030   -9.7470    2.4530 O.2   390  GLY390     -0.2866
@<TRIPOS>BOND
     1   109   110    1
     2   110   111    1
     3   110   113    1
     4   111   112    2
     5   113   114    1
     6    91    90    2
     7   100    99    2
     8    99    98    1
     9    90    89    1
    10   120   121    1
    11   114   115    1
    12    92    89    1
    13    92    93    1
    14    97    98    1
    15    94    93    1
    16    94    95    1
    17   115   116    1
    18    98   101    1
    19    89    88    1
    20   122   121    1
    21   122   123    2
    22   121   124    1
    23   103   105   ar
    24   103   102   ar
    25   105   107   ar
    26    95    96    1
    27   124   125    1
    28   118   117    1
    29    88    82   am
    30   102   101    1
    31   102   104   ar
    32   116   117    2
    33    83    82    2
    34   107   108    1
    35   107   106   ar
    36   127   125   ar
    37   127   129   ar
    38    82    81    1
    39    80    81    1
    40   130   131    1
    41   125   126   ar
    42   117   119    1
    43   104   106   ar
    44    81    84    1
    45   131   132    1
    46   129   128   ar
    47    19    21   ar
    48    19    17   ar
    49   126   128   ar
    50    21    20   ar
    51   132   133    2
    52    15    14    2
    53    84    85    1
    54    13    12    1
    55    13    14    1
    56    13    16    1
    57    17    16    1
    58    17    18   ar
    59    87    85   ar
    60    85    86   ar
    61    20    18   ar
    62    31    30    1
    63    30    32    1
    64    30    29    2
    65    28    29    1
    66    28    27    1
    67     4     3    2
    68    40    38   am
    69    10     9    1
    70    11     9    1
    71    27    26    1
    72     3     2    1
    73     9     8    2
    74    60    58   ar
    75    60    59   ar
    76     1     2    1
    77     2     5    1
    78    39    38    2
    79    58    56   ar
    80    38    37    1
    81     8     7    1
    82    59    57   ar
    83     7     6    1
    84    26    23    1
    85    56    57   ar
    86    56    55    1
    87     5     6    1
    88    37    34    1
    89    22    23    1
    90    55    52    1
    91    23    24    1
    92    33    24   am
    93    33    34    1
    94    50    49   ar
    95    50    48   ar
    96    24    25    2
    97    34    35    1
    98    70    69   ar
    99    70    68   ar
   100    79    77   ar
   101    49    47   ar
   102    48    46   ar
   103    69    67   ar
   104    51    52    1
   105    52    53    1
   106    68    66   ar
   107    47    46   ar
   108    35    36    2
   109    46    45    1
   110    77    76    1
   111    77    78   ar
   112    67    66   ar
   113    76    75    1
   114    53    54    2
   115    66    65    1
   116    45    42    1
   117    75    72    1
   118    65    62    1
   119    42    41    1
   120    42    43    1
   121    72    71    1
   122    72    73    1
   123    71    63   am
   124    63    62    1
   125    63    64    2
   126    62    61    1
   127    43    44    2
   128    73    74    2
