@<TRIPOS>MOLECULE
tmp/4tnzB00.pdb
 82 81 0 0 0
SMALL
GASTEIGER

@<TRIPOS>ATOM
      1  N         56.1130   15.6110   56.5920 N.3    43  VAL43      -0.1231
      2  CA        55.8310   16.1200   57.9240 C.3    43  VAL43       0.1692
      3  C         56.8080   15.5980   58.9760 C.2    43  VAL43       0.2592
      4  O         57.1430   16.2970   59.9340 O.2    43  VAL43      -0.2718
      5  CB        54.3830   15.7480   58.3120 C.3    43  VAL43       0.0266
      6  CG1       54.0690   16.1440   59.7510 C.3    43  VAL43       0.0020
      7  CG2       53.3810   16.3710   57.3340 C.3    43  VAL43       0.0020
      8  N         57.2000   14.3470   58.8180 N.am   44  PHE44      -0.1963
      9  CA        58.0260   13.6140   59.7720 C.3    44  PHE44       0.1756
     10  C         59.2770   13.2380   58.9810 C.2    44  PHE44       0.2461
     11  O         59.3060   12.2440   58.2810 O.2    44  PHE44      -0.2730
     12  CB        57.3430   12.3260   60.2100 C.3    44  PHE44       0.0574
     13  CG        56.2330   12.4930   61.2030 C.ar   44  PHE44      -0.0200
     14  CD1       54.9320   12.6730   60.7950 C.ar   44  PHE44      -0.0042
     15  CD2       56.4780   12.3640   62.5740 C.ar   44  PHE44      -0.0042
     16  CE1       53.8930   12.7580   61.7280 C.ar   44  PHE44      -0.0003
     17  CE2       55.4650   12.4580   63.5060 C.ar   44  PHE44      -0.0003
     18  CZ        54.1650   12.6910   63.0770 C.ar   44  PHE44      -0.0000
     19  N         60.3160   14.0360   59.0690 N.am   45  PRO45      -0.2727
     20  CA        61.4970   13.8310   58.2350 C.3    45  PRO45       0.1402
     21  C         62.3160   12.5790   58.4750 C.2    45  PRO45       0.2269
     22  O         63.1690   12.2430   57.6370 O.2    45  PRO45      -0.2865
     23  CB        62.3350   15.0570   58.5310 C.3    45  PRO45       0.0296
     24  CG        61.8710   15.4980   59.8660 C.3    45  PRO45       0.0237
     25  CD        60.4040   15.2600   59.8560 C.3    45  PRO45       0.0939
     26  N         59.6030    7.6780   62.9090 N.3   204  LEU204     -0.1231
     27  CA        58.8150    8.8490   63.2070 C.3   204  LEU204      0.1693
     28  C         59.3760    9.5580   64.3960 C.2   204  LEU204      0.2593
     29  O         59.1530   10.7770   64.5730 O.2   204  LEU204     -0.2718
     30  CB        57.3840    8.4590   63.5420 C.3   204  LEU204      0.0284
     31  CG        56.5750    7.9150   62.3570 C.3   204  LEU204      0.0019
     32  CD1       55.2960    7.2210   62.8470 C.3   204  LEU204      0.0001
     33  CD2       56.2320    9.0070   61.3920 C.3   204  LEU204      0.0001
     34  N         60.0610    8.8070   65.2460 N.am  205  GLY205     -0.1942
     35  CA        60.4330    9.3390   66.5550 C.3   205  GLY205      0.2014
     36  C         59.2550    9.4260   67.4910 C.2   205  GLY205      0.2638
     37  O         59.0400   10.4210   68.1830 O.2   205  GLY205     -0.2714
     38  N         58.4700    8.3820   67.4870 N.am  206  ILE206     -0.1977
     39  CA        57.4000    8.1760   68.4390 C.3   206  ILE206      0.1596
     40  C         57.7400    6.8410   69.0530 C.2   206  ILE206      0.2287
     41  O         58.4440    6.0440   68.4500 O.2   206  ILE206     -0.2864
     42  CB        56.0680    8.0280   67.7150 C.3   206  ILE206      0.0276
     43  CG1       55.4500    9.3820   67.4180 C.3   206  ILE206      0.0022
     44  CG2       55.1160    7.1210   68.4680 C.3   206  ILE206      0.0022
     45  CD1       54.3380    9.2440   66.3880 C.3   206  ILE206      0.0001
     46  N         48.2380   10.4540   65.3800 N.3   253  ARG253     -0.1245
     47  CA        49.4340   11.2860   65.4070 C.3   253  ARG253      0.1563
     48  C         50.1170   11.3590   64.0960 C.2   253  ARG253      0.2260
     49  O         50.6410   12.4140   63.7490 O.2   253  ARG253     -0.2867
     50  CB        50.4610   10.7730   66.3730 C.3   253  ARG253      0.0307
     51  CG        49.9780   10.7280   67.7730 C.3   253  ARG253      0.0489
     52  CD        51.0500   10.0530   68.5720 C.3   253  ARG253      0.2205
     53  NE        50.5700    9.9120   69.9240 N.pl3 253  ARG253     -0.0865
     54  CZ        51.2740    9.3800   70.9100 C.cat 253  ARG253      0.5346
     55  NH1       50.7530    9.3000   72.1490 N.pl3 253  ARG253      0.1354
     56  NH2       52.4980    8.9430   70.6680 N.pl3 253  ARG253      0.1354
     57  N         47.8760   12.6340   60.0070 N.3   257  HIS257     -0.1226
     58  CA        48.2540   13.9990   60.2700 C.3   257  HIS257      0.1752
     59  C         47.6150   14.9290   59.2250 C.2   257  HIS257      0.2596
     60  O         47.6840   14.6640   58.0280 O.2   257  HIS257     -0.2718
     61  CB        49.7810   14.1200   60.2590 C.3   257  HIS257      0.0759
     62  CG        50.2740   15.4230   60.7640 C.ar  257  HIS257      0.0818
     63  ND1       50.3780   16.5320   59.9590 N.ar  257  HIS257     -0.2268
     64  CD2       50.6340   15.8120   62.0080 C.ar  257  HIS257      0.1154
     65  CE1       50.8030   17.5530   60.6800 C.ar  257  HIS257      0.1986
     66  NE2       50.9600   17.1420   61.9320 N.ar  257  HIS257     -0.2212
     67  N         46.9650   15.9900   59.7060 N.am  258  LYS258     -0.1966
     68  CA        46.1710   16.8940   58.8710 C.3   258  LYS258      0.1728
     69  C         46.9480   17.4220   57.6690 C.2   258  LYS258      0.2616
     70  O         46.4540   17.4410   56.5450 O.2   258  LYS258     -0.2715
     71  CB        45.6030   18.0380   59.7050 C.3   258  LYS258      0.0311
     72  CG        46.6440   18.9710   60.2920 C.3   258  LYS258      0.0038
     73  CD        46.1330   19.7230   61.5260 C.3   258  LYS258      0.0206
     74  CE        46.9170   21.0180   61.8420 C.3   258  LYS258      0.1093
     75  NZ        48.3750   20.8470   62.1340 N.3   258  LYS258     -0.1314
     76  N         48.1930   17.7910   57.8980 N.am  259  VAL259     -0.1977
     77  CA        49.0510   18.2540   56.8330 C.3   259  VAL259      0.1596
     78  C         49.5380   17.0820   55.9840 C.2   259  VAL259      0.2287
     79  O         49.6530   17.2130   54.7450 O.2   259  VAL259     -0.2864
     80  CB        50.2320   19.0670   57.3870 C.3   259  VAL259      0.0276
     81  CG1       51.0920   19.6190   56.2720 C.3   259  VAL259      0.0022
     82  CG2       49.7420   20.2280   58.2590 C.3   259  VAL259      0.0022
@<TRIPOS>BOND
     1    79    78    2
     2    78    77    1
     3    81    80    1
     4    70    69    2
     5     1     2    1
     6    77    80    1
     7    77    76    1
     8     7     5    1
     9    80    82    1
    10    22    21    2
    11    69    76   am
    12    69    68    1
    13     2     5    1
    14     2     3    1
    15    60    59    2
    16    20    21    1
    17    20    23    1
    18    20    19    1
    19    11    10    2
    20     5     6    1
    21    23    24    1
    22     8     3   am
    23     8     9    1
    24    68    71    1
    25    68    67    1
    26     3     4    2
    27    10    19   am
    28    10     9    1
    29    19    25    1
    30    59    67   am
    31    59    58    1
    32    71    72    1
    33     9    12    1
    34    25    24    1
    35    63    65   ar
    36    63    62   ar
    37    57    58    1
    38    12    13    1
    39    61    58    1
    40    61    62    1
    41    72    73    1
    42    65    66   ar
    43    62    64   ar
    44    14    13   ar
    45    14    16   ar
    46    13    15   ar
    47    33    31    1
    48    73    74    1
    49    16    18   ar
    50    74    75    1
    51    66    64   ar
    52    31    32    1
    53    31    30    1
    54    15    17   ar
    55    26    27    1
    56    18    17   ar
    57    27    30    1
    58    27    28    1
    59    49    48    2
    60    48    47    1
    61    28    29    2
    62    28    34   am
    63    34    35    1
    64    46    47    1
    65    47    50    1
    66    50    51    1
    67    45    43    1
    68    35    36    1
    69    43    42    1
    70    38    36   am
    71    38    39    1
    72    36    37    2
    73    42    39    1
    74    42    44    1
    75    51    52    1
    76    39    40    1
    77    41    40    2
    78    52    53    1
    79    53    54    2
    80    56    54    1
    81    54    55    1
