@<TRIPOS>MOLECULE
tmp/4to8A00.pdb
 100 95 0 0 0
SMALL
GASTEIGER

@<TRIPOS>ATOM
      1  N          7.6800   22.7420   10.9690 N.3    23  ASN23      -0.1240
      2  CA         8.6660   22.5290   12.0330 C.3    23  ASN23       0.1653
      3  C          8.0720   22.7250   13.4120 C.2    23  ASN23       0.2266
      4  O          7.3300   23.6720   13.6390 O.2    23  ASN23      -0.2867
      5  CB         9.8590   23.4750   11.8750 C.3    23  ASN23       0.1155
      6  CG        10.7780   23.0680   10.7400 C.2    23  ASN23       0.2627
      7  OD1       10.4710   23.2960    9.5700 O.2    23  ASN23      -0.2716
      8  ND2       11.9180   22.4570   11.0830 N.am   23  ASN23      -0.0877
      9  N         15.0070   17.3830   10.1370 N.3    84  ASP84      -0.1225
     10  CA        15.2670   18.4150    9.1510 C.3    84  ASP84       0.1805
     11  C         16.7430   18.8170    9.1760 C.2    84  ASP84       0.2597
     12  O         17.3120   19.0250   10.2490 O.2    84  ASP84      -0.2718
     13  CB        14.3680   19.6180    9.4250 C.3    84  ASP84       0.1424
     14  CG        14.3250   20.6020    8.2720 C.2    84  ASP84       0.3668
     15  OD1       14.7450   20.2440    7.1540 O.co2  84  ASP84      -0.2456
     16  OD2       13.8540   21.7380    8.4950 O.co2  84  ASP84      -0.2456
     17  N         17.3500   18.9090    7.9920 N.am   85  HIS85      -0.1975
     18  CA        18.7670   19.2670    7.8520 C.3    85  HIS85       0.1656
     19  C         19.6790   18.4620    8.7920 C.2    85  HIS85       0.2291
     20  O         20.4990   19.0340    9.5120 O.2    85  HIS85      -0.2864
     21  CB        18.9620   20.7680    8.0890 C.3    85  HIS85       0.0771
     22  CG        18.3820   21.6260    7.0060 C.ar   85  HIS85       0.0820
     23  ND1       18.9820   21.7710    5.7740 N.ar   85  HIS85      -0.2267
     24  CD2       17.2530   22.3730    6.9680 C.ar   85  HIS85       0.1154
     25  CE1       18.2440   22.5680    5.0190 C.ar   85  HIS85       0.1986
     26  NE2       17.1940   22.9530    5.7210 N.ar   85  HIS85      -0.2212
     27  N         19.9120   16.7660   -0.2810 N.3   136  GLU136     -0.1245
     28  CA        19.8930   18.0930   -0.9140 C.3   136  GLU136      0.1567
     29  C         21.0810   18.3530   -1.8630 C.2   136  GLU136      0.2260
     30  O         22.2100   17.9480   -1.5950 O.2   136  GLU136     -0.2867
     31  CB        19.8640   19.1900    0.1530 C.3   136  GLU136      0.0388
     32  CG        19.6530   20.5980   -0.3930 C.3   136  GLU136      0.1160
     33  CD        19.4870   21.6450    0.7020 C.2   136  GLU136      0.3649
     34  OE1       19.8100   21.3540    1.8730 O.co2 136  GLU136     -0.2457
     35  OE2       19.0140   22.7590    0.4020 O.co2 136  GLU136     -0.2457
     36  N         20.6880   27.2880   -1.1760 N.3   140  VAL140     -0.1245
     37  CA        19.6570   28.3070   -1.0090 C.3   140  VAL140      0.1561
     38  C         20.3440   29.6250   -0.7040 C.2   140  VAL140      0.2260
     39  O         21.2070   29.6890    0.1710 O.2   140  VAL140     -0.2867
     40  CB        18.6760   27.9510    0.1300 C.3   140  VAL140      0.0252
     41  CG1       17.6910   29.0870    0.3640 C.3   140  VAL140      0.0019
     42  CG2       17.9540   26.6400   -0.1740 C.3   140  VAL140      0.0019
     43  N         16.8710   32.4820    1.5420 N.3   178  HIS178     -0.1241
     44  CA        16.4290   32.5290    2.9320 C.3   178  HIS178      0.1621
     45  C         17.0370   33.6810    3.7160 C.2   178  HIS178      0.2264
     46  O         18.2560   33.7540    3.8700 O.2   178  HIS178     -0.2867
     47  CB        16.7540   31.2250    3.6590 C.3   178  HIS178      0.0745
     48  CG        16.4790   31.2890    5.1310 C.ar  178  HIS178      0.0817
     49  ND1       15.2000   31.3290    5.6490 N.ar  178  HIS178     -0.2268
     50  CD2       17.3190   31.3470    6.1930 C.ar  178  HIS178      0.1154
     51  CE1       15.2650   31.3960    6.9680 C.ar  178  HIS178      0.1986
     52  NE2       16.5390   31.4070    7.3230 N.ar  178  HIS178     -0.2212
     53  N         12.9100   23.9840   -0.1860 N.3   201  HIS201     -0.1226
     54  CA        13.3900   24.7420    0.9630 C.3   201  HIS201      0.1752
     55  C         13.3900   26.2180    0.6060 C.2   201  HIS201      0.2597
     56  O         13.4600   26.5640   -0.5690 O.2   201  HIS201     -0.2718
     57  CB        14.8050   24.3070    1.3690 C.3   201  HIS201      0.0759
     58  CG        14.8770   22.9360    1.9700 C.ar  201  HIS201      0.0818
     59  ND1       15.3020   22.7130    3.2640 N.ar  201  HIS201     -0.2268
     60  CD2       14.6070   21.7170    1.4480 C.ar  201  HIS201      0.1154
     61  CE1       15.2860   21.4150    3.5130 C.ar  201  HIS201      0.1986
     62  NE2       14.8670   20.7890    2.4280 N.ar  201  HIS201     -0.2212
     63  N         13.3430   27.0830    1.6130 N.am  202  GLY202     -0.1942
     64  CA        13.3660   28.5210    1.3980 C.3   202  GLY202      0.2014
     65  C         12.0400   29.0230    0.8580 C.2   202  GLY202      0.2639
     66  O         11.9880   30.0260    0.1470 O.2   202  GLY202     -0.2714
     67  N         10.9670   28.3160    1.2000 N.am  203  GLY203     -0.1939
     68  CA         9.6390   28.6310    0.7060 C.3   203  GLY203      0.2014
     69  C          9.0590   29.9210    1.2600 C.2   203  GLY203      0.2639
     70  O          8.2100   30.5380    0.6210 O.2   203  GLY203     -0.2714
     71  N          9.5110   30.3290    2.4410 N.am  204  THR204     -0.1950
     72  CA         8.9860   31.5300    3.0750 C.3   204  THR204      0.1897
     73  C          9.0920   32.7220    2.1410 C.2   204  THR204      0.2313
     74  O         10.1590   33.0000    1.5830 O.2   204  THR204     -0.2863
     75  CB         9.7140   31.8680    4.3650 C.3   204  THR204      0.1794
     76  OG1        9.7130   30.7250    5.2260 O.3   204  THR204     -0.2208
     77  CG2        9.0300   33.0300    5.0550 C.3   204  THR204      0.0378
     78  N          8.6730   23.1220    2.9360 N.3   223  ASN223     -0.1240
     79  CA         9.0260   23.3400    4.3350 C.3   223  ASN223      0.1653
     80  C          8.5580   24.6900    4.8550 C.2   223  ASN223      0.2266
     81  O          8.6930   25.7180    4.1900 O.2   223  ASN223     -0.2867
     82  CB        10.5390   23.1790    4.5220 C.3   223  ASN223      0.1155
     83  CG        10.9900   21.7480    4.2960 C.2   223  ASN223      0.2627
     84  OD1       10.1900   20.8980    3.8770 O.2   223  ASN223     -0.2716
     85  ND2       12.2690   21.4680    4.5650 N.am  223  ASN223     -0.0877
     86  N          8.3520   27.1240    8.4380 N.3   225  ASN225     -0.1225
     87  CA         8.9060   27.3100    9.7760 C.3   225  ASN225      0.1785
     88  C          8.7720   28.7530   10.2770 C.2   225  ASN225      0.2597
     89  O          7.9820   29.0350   11.1780 O.2   225  ASN225     -0.2718
     90  CB        10.3750   26.8520    9.7790 C.3   225  ASN225      0.1169
     91  CG        11.0200   26.9350   11.1620 C.2   225  ASN225      0.2627
     92  OD1       10.3560   26.7960   12.1840 O.2   225  ASN225     -0.2716
     93  ND2       12.3250   27.1770   11.1870 N.am  225  ASN225     -0.0877
     94  N          9.5250   29.6740    9.6840 N.am  226  THR226     -0.1953
     95  CA         9.5070   31.0680   10.1310 C.3   226  THR226      0.1897
     96  C          8.1020   31.7010   10.1070 C.2   226  THR226      0.2313
     97  O          7.7750   32.5040   10.9740 O.2   226  THR226     -0.2863
     98  CB        10.4650   31.9280    9.2780 C.3   226  THR226      0.1794
     99  OG1       10.0060   31.9410    7.9270 O.3   226  THR226     -0.2208
    100  CG2       11.8790   31.3460    9.3200 C.3   226  THR226      0.0378
@<TRIPOS>BOND
     1    29    30    2
     2    29    28    1
     3    36    37    1
     4    37    38    1
     5    37    40    1
     6    28    27    1
     7    28    31    1
     8    38    39    2
     9    56    55    2
    10    32    31    1
    11    32    33    1
    12    53    54    1
    13    42    40    1
    14    40    41    1
    15    66    65    2
    16    35    33   ar
    17    55    54    1
    18    55    63   am
    19    70    69    2
    20    33    34   ar
    21    68    67    1
    22    68    69    1
    23    65    67   am
    24    65    64    1
    25    54    57    1
    26    69    71   am
    27    57    58    1
    28    64    63    1
    29    60    58   ar
    30    60    62   ar
    31    43    44    1
    32    74    73    2
    33    58    59   ar
    34    73    72    1
    35    62    61   ar
    36    71    72    1
    37    44    47    1
    38    44    45    1
    39    78    79    1
    40    72    75    1
    41    59    61   ar
    42    47    48    1
    43    45    46    2
    44    84    83    2
    45    81    80    2
    46    83    82    1
    47    83    85   am
    48    79    82    1
    49    79    80    1
    50    75    77    1
    51    75    76    1
    52    25    26   ar
    53    25    23   ar
    54    48    49   ar
    55    48    50   ar
    56    49    51   ar
    57    26    24   ar
    58    23    22   ar
    59    50    52   ar
    60    51    52   ar
    61    24    22   ar
    62    22    21    1
    63    15    14   ar
    64    18    17    1
    65    18    21    1
    66    18    19    1
    67    99    98    1
    68    17    11   am
    69    14    16   ar
    70    14    13    1
    71    86    87    1
    72    19    20    2
    73    10    11    1
    74    10    13    1
    75    10     9    1
    76    11    12    2
    77    98   100    1
    78    98    95    1
    79     7     6    2
    80    94    95    1
    81    94    88   am
    82    87    90    1
    83    87    88    1
    84    90    91    1
    85    96    95    1
    86    96    97    2
    87    88    89    2
    88     6     8   am
    89     6     5    1
    90     1     2    1
    91    91    93   am
    92    91    92    2
    93     5     2    1
    94     2     3    1
    95     3     4    2
