@<TRIPOS>MOLECULE
tmp/4tofC00.pdb
 112 104 0 0 0
SMALL
GASTEIGER

@<TRIPOS>ATOM
      1  N         40.5530  -60.4860  -40.4450 N.3    19  LEU19      -0.1245
      2  CA        41.4010  -61.4310  -39.7390 C.3    19  LEU19       0.1561
      3  C         41.7030  -60.9380  -38.3240 C.2    19  LEU19       0.2260
      4  O         41.7280  -61.7330  -37.3840 O.2    19  LEU19      -0.2867
      5  CB        42.6810  -61.6770  -40.5320 C.3    19  LEU19       0.0270
      6  CG        42.4170  -62.3550  -41.8920 C.3    19  LEU19       0.0019
      7  CD1       43.6790  -62.3730  -42.7310 C.3    19  LEU19       0.0001
      8  CD2       41.8780  -63.7560  -41.7490 C.3    19  LEU19       0.0001
      9  N         38.3530  -61.5040  -36.3550 N.3    22  ILE22      -0.1231
     10  CA        38.1430  -62.9170  -36.0310 C.3    22  ILE22       0.1692
     11  C         38.8700  -63.2800  -34.7450 C.2    22  ILE22       0.2592
     12  O         38.2820  -63.8540  -33.8130 O.2    22  ILE22      -0.2718
     13  CB        38.5980  -63.8090  -37.1990 C.3    22  ILE22       0.0266
     14  CG1       37.6310  -63.6390  -38.3510 C.3    22  ILE22       0.0019
     15  CG2       38.6760  -65.2890  -36.7740 C.3    22  ILE22       0.0020
     16  CD1       38.1930  -64.1700  -39.6650 C.3    22  ILE22       0.0001
     17  N         40.1690  -62.9590  -34.6820 N.am   23  ASN23      -0.1974
     18  CA        40.9860  -63.4010  -33.5620 C.3    23  ASN23       0.1688
     19  C         40.6630  -62.6170  -32.2950 C.2    23  ASN23       0.2292
     20  O         40.5460  -63.2060  -31.2060 O.2    23  ASN23      -0.2864
     21  CB        42.4690  -63.2970  -33.9200 C.3    23  ASN23       0.1181
     22  CG        42.9110  -64.4000  -34.8560 C.2    23  ASN23       0.2629
     23  OD1       42.0920  -64.9610  -35.5850 O.2    23  ASN23      -0.2716
     24  ND2       44.2050  -64.7040  -34.8610 N.am   23  ASN23      -0.0877
     25  N         37.2410  -63.8370  -31.0600 N.3    26  PHE26      -0.1241
     26  CA        37.2910  -65.1900  -30.5290 C.3    26  PHE26       0.1605
     27  C         37.9300  -65.2110  -29.1540 C.2    26  PHE26       0.2264
     28  O         37.4300  -65.8810  -28.2370 O.2    26  PHE26      -0.2867
     29  CB        38.0400  -66.1360  -31.4610 C.3    26  PHE26       0.0534
     30  CG        37.6380  -67.5530  -31.2520 C.ar   26  PHE26      -0.0203
     31  CD1       38.2410  -68.3500  -30.2950 C.ar   26  PHE26      -0.0042
     32  CD2       36.5580  -68.0700  -31.9520 C.ar   26  PHE26      -0.0042
     33  CE1       37.8020  -69.6570  -30.0800 C.ar   26  PHE26      -0.0003
     34  CE2       36.1190  -69.3660  -31.7300 C.ar   26  PHE26      -0.0003
     35  CZ        36.7270  -70.1520  -30.7990 C.ar   26  PHE26      -0.0000
     36  N         36.2110  -66.1730  -25.4260 N.3    30  ARG30      -0.1245
     37  CA        36.6740  -67.2180  -24.5360 C.3    30  ARG30       0.1563
     38  C         37.0840  -66.6460  -23.1830 C.2    30  ARG30       0.2260
     39  O         36.9910  -67.3510  -22.1670 O.2    30  ARG30      -0.2867
     40  CB        37.8060  -67.9960  -25.2090 C.3    30  ARG30       0.0307
     41  CG        37.3010  -69.2030  -26.0330 C.3    30  ARG30       0.0489
     42  CD        36.1170  -68.8820  -26.9580 C.3    30  ARG30       0.2205
     43  NE        35.5710  -70.1350  -27.4940 N.pl3  30  ARG30      -0.0865
     44  CZ        34.2860  -70.3550  -27.7490 C.cat  30  ARG30       0.5346
     45  NH1       33.3780  -69.4040  -27.5870 N.pl3  30  ARG30       0.1354
     46  NH2       33.9160  -71.5330  -28.2180 N.pl3  30  ARG30       0.1354
     47  N         31.2480  -64.9070  -29.6280 N.3    45  TYR45      -0.1241
     48  CA        31.5320  -66.0430  -30.5030 C.3    45  TYR45       0.1605
     49  C         30.8050  -65.8920  -31.8320 C.2    45  TYR45       0.2264
     50  O         31.3990  -66.0960  -32.9070 O.2    45  TYR45      -0.2867
     51  CB        31.1350  -67.3510  -29.8060 C.3    45  TYR45       0.0534
     52  CG        31.1700  -68.5690  -30.6970 C.ar   45  TYR45      -0.0201
     53  CD1       32.3530  -69.2530  -30.9370 C.ar   45  TYR45      -0.0009
     54  CD2       30.0170  -69.0160  -31.3260 C.ar   45  TYR45      -0.0009
     55  CE1       32.3790  -70.3770  -31.7620 C.ar   45  TYR45       0.0417
     56  CE2       30.0400  -70.1340  -32.1530 C.ar   45  TYR45       0.0417
     57  CZ        31.2210  -70.8060  -32.3630 C.ar   45  TYR45       0.1957
     58  OH        31.2520  -71.9090  -33.1890 O.3    45  TYR45      -0.2866
     59  N         32.3080  -65.6790  -35.6650 N.3    49  ILE49      -0.1245
     60  CA        31.8750  -66.5310  -36.7770 C.3    49  ILE49       0.1561
     61  C         31.4100  -65.6750  -37.9470 C.2    49  ILE49       0.2260
     62  O         31.6810  -65.9940  -39.1150 O.2    49  ILE49      -0.2867
     63  CB        30.7610  -67.4950  -36.3070 C.3    49  ILE49       0.0252
     64  CG1       31.2940  -68.5150  -35.3010 C.3    49  ILE49       0.0019
     65  CG2       30.0890  -68.1880  -37.5140 C.3    49  ILE49       0.0019
     66  CD1       32.2180  -69.5380  -35.8320 C.3    49  ILE49       0.0001
     67  N         34.3690  -64.5300  -39.8120 N.3    52  MET52      -0.1230
     68  CA        34.9120  -65.6500  -40.5760 C.3    52  MET52       0.1702
     69  C         34.1700  -65.8260  -41.8980 C.2    52  MET52       0.2592
     70  O         34.7930  -66.0600  -42.9400 O.2    52  MET52      -0.2718
     71  CB        34.8280  -66.9400  -39.7500 C.3    52  MET52       0.0401
     72  CG        35.7370  -66.9930  -38.5330 C.3    52  MET52       0.0596
     73  SD        35.3550  -68.4510  -37.5680 S.3    52  MET52      -0.1393
     74  CE        35.8960  -67.9440  -35.9250 C.3    52  MET52       0.0692
     75  N         32.8410  -65.6850  -41.8830 N.am   53  LYS53      -0.1980
     76  CA        32.0640  -65.8140  -43.1160 C.3    53  LYS53       0.1596
     77  C         32.3700  -64.6730  -44.0820 C.2    53  LYS53       0.2287
     78  O         32.4620  -64.8950  -45.3040 O.2    53  LYS53      -0.2864
     79  CB        30.5780  -65.8830  -42.7780 C.3    53  LYS53       0.0298
     80  CG        30.1960  -67.1530  -42.0320 C.3    53  LYS53       0.0038
     81  CD        28.7920  -66.9430  -41.4770 C.3    53  LYS53       0.0206
     82  CE        28.0430  -68.2040  -41.1950 C.3    53  LYS53       0.1093
     83  NZ        26.6100  -67.8310  -40.9280 N.3    53  LYS53      -0.1314
     84  N         35.2550  -63.0720  -44.2260 N.3    55  ALA55      -0.1231
     85  CA        36.5870  -63.3560  -44.7560 C.3    55  ALA55       0.1694
     86  C         36.5140  -64.3620  -45.9000 C.2    55  ALA55       0.2592
     87  O         37.1670  -64.1970  -46.9410 O.2    55  ALA55      -0.2718
     88  CB        37.4980  -63.8770  -43.6560 C.3    55  ALA55       0.0304
     89  N         35.7080  -65.4050  -45.7290 N.am   56  ASP56      -0.1974
     90  CA        35.5240  -66.4060  -46.7840 C.3    56  ASP56       0.1709
     91  C         35.0470  -65.7530  -48.0830 C.2    56  ASP56       0.2293
     92  O         35.6060  -65.9980  -49.1650 O.2    56  ASP56      -0.2864
     93  CB        34.5310  -67.4620  -46.2730 C.3    56  ASP56       0.1436
     94  CG        34.3960  -68.6740  -47.1880 C.2    56  ASP56       0.3671
     95  OD1       35.2570  -68.8970  -48.0730 O.co2  56  ASP56      -0.2456
     96  OD2       33.4100  -69.4210  -46.9930 O.co2  56  ASP56      -0.2456
     97  N         37.8910  -63.8230  -49.7150 N.3    59  ILE59      -0.1245
     98  CA        38.8770  -64.7170  -50.3170 C.3    59  ILE59       0.1561
     99  C         38.3450  -65.2420  -51.6410 C.2    59  ILE59       0.2260
    100  O         39.0670  -65.2760  -52.6480 O.2    59  ILE59      -0.2867
    101  CB        39.2180  -65.8640  -49.3490 C.3    59  ILE59       0.0252
    102  CG1       40.0270  -65.3310  -48.1640 C.3    59  ILE59       0.0019
    103  CG2       39.9870  -66.9890  -50.0390 C.3    59  ILE59       0.0019
    104  CD1       39.9370  -66.2040  -46.9430 C.3    59  ILE59       0.0001
    105  N         46.4350  -63.9160  -46.3000 N.3    71  LEU71      -0.1245
    106  CA        46.1130  -64.4100  -44.9680 C.3    71  LEU71       0.1561
    107  C         47.3410  -64.4300  -44.0670 C.2    71  LEU71       0.2260
    108  O         47.3030  -65.0160  -42.9830 O.2    71  LEU71      -0.2867
    109  CB        45.5100  -65.8070  -45.0500 C.3    71  LEU71       0.0270
    110  CG        44.0530  -65.9020  -45.5280 C.3    71  LEU71       0.0019
    111  CD1       43.9000  -65.6630  -47.0090 C.3    71  LEU71       0.0001
    112  CD2       43.5120  -67.2840  -45.1590 C.3    71  LEU71       0.0001
@<TRIPOS>BOND
     1   100    99    2
     2    99    98    1
     3    98    97    1
     4    98   101    1
     5   103   101    1
     6   101   102    1
     7    92    91    2
     8   102   104    1
     9    91    90    1
    10    95    94   ar
    11    94    96   ar
    12    94    93    1
    13   111   110    1
    14    87    86    2
    15    90    93    1
    16    90    89    1
    17   105   106    1
    18    86    89   am
    19    86    85    1
    20   110   112    1
    21   110   109    1
    22    78    77    2
    23   109   106    1
    24   106   107    1
    25    85    84    1
    26    85    88    1
    27    77    76    1
    28   107   108    2
    29    76    79    1
    30    76    75    1
    31    70    69    2
    32    79    80    1
    33     7     6    1
    34    80    81    1
    35    69    75   am
    36    69    68    1
    37     6     8    1
    38     6     5    1
    39    81    82    1
    40    82    83    1
    41    68    67    1
    42    68    71    1
    43     5     2    1
    44     1     2    1
    45    71    72    1
    46     2     3    1
    47    16    14    1
    48    62    61    2
    49    72    73    1
    50    14    13    1
    51     3     4    2
    52    61    60    1
    53    73    74    1
    54    65    63    1
    55    13    15    1
    56    13    10    1
    57    60    63    1
    58    60    59    1
    59     9    10    1
    60    63    64    1
    61    10    11    1
    62    66    64    1
    63    23    22    2
    64    24    22   am
    65    22    21    1
    66    11    17   am
    67    11    12    2
    68    17    18    1
    69    21    18    1
    70    18    19    1
    71    58    57    1
    72    50    49    2
    73    57    56   ar
    74    57    55   ar
    75    19    20    2
    76    56    54   ar
    77    32    34   ar
    78    32    30   ar
    79    49    48    1
    80    55    53   ar
    81    34    35   ar
    82    29    30    1
    83    29    26    1
    84    54    52   ar
    85    30    31   ar
    86    25    26    1
    87    53    52   ar
    88    35    33   ar
    89    52    51    1
    90    26    27    1
    91    48    51    1
    92    48    47    1
    93    31    33   ar
    94    27    28    2
    95    46    44    1
    96    44    45    1
    97    44    43    2
    98    43    42    1
    99    42    41    1
   100    41    40    1
   101    36    37    1
   102    40    37    1
   103    37    38    1
   104    38    39    2
