@<TRIPOS>MOLECULE
tmp/4topA00.pdb
 185 182 0 0 0
SMALL
GASTEIGER

@<TRIPOS>ATOM
      1  N        -57.5190  -16.5330  -12.8390 N.3     9  PHE9       -0.1241
      2  CA       -56.2850  -17.3190  -12.8490 C.3     9  PHE9        0.1605
      3  C        -56.2970  -18.1570  -11.5670 C.2     9  PHE9        0.2264
      4  O        -56.4200  -17.6050  -10.4790 O.2     9  PHE9       -0.2867
      5  CB       -55.0710  -16.4030  -12.9330 C.3     9  PHE9        0.0534
      6  CG       -53.7460  -17.0910  -12.7070 C.ar    9  PHE9       -0.0203
      7  CD1      -53.4550  -18.3020  -13.3140 C.ar    9  PHE9       -0.0042
      8  CD2      -52.7660  -16.4820  -11.9260 C.ar    9  PHE9       -0.0042
      9  CE1      -52.2300  -18.9020  -13.1250 C.ar    9  PHE9       -0.0003
     10  CE2      -51.5340  -17.0790  -11.7260 C.ar    9  PHE9       -0.0003
     11  CZ       -51.2650  -18.2880  -12.3300 C.ar    9  PHE9       -0.0000
     12  N        -55.3000  -17.3700   -7.7770 N.3    12  SER12      -0.1203
     13  CA       -55.5290  -16.0000   -7.3240 C.3    12  SER12       0.2005
     14  C        -56.5310  -15.9300   -6.2060 C.2    12  SER12       0.2461
     15  O        -57.6780  -16.3460   -6.3730 O.2    12  SER12      -0.2732
     16  CB       -56.0200  -15.1200   -8.4710 C.3    12  SER12       0.2103
     17  OG       -56.1630  -13.7780   -8.0310 O.3    12  SER12      -0.2182
     18  N        -56.1130  -15.3790   -5.0650 N.am   13  PRO13      -0.2717
     19  CA       -57.0220  -15.1780   -3.9310 C.3    13  PRO13       0.1535
     20  C        -58.1260  -14.2080   -4.3010 C.2    13  PRO13       0.2598
     21  O        -59.2810  -14.3560   -3.8950 O.2    13  PRO13      -0.2715
     22  CB       -56.1200  -14.5880   -2.8360 C.3    13  PRO13       0.0310
     23  CG       -54.7180  -14.8180   -3.2840 C.3    13  PRO13       0.0237
     24  CD       -54.7460  -14.9210   -4.7840 C.3    13  PRO13       0.0939
     25  N        -57.7680  -13.2070   -5.0870 N.am   14  PHE14      -0.1974
     26  CA       -58.7290  -12.2010   -5.5250 C.3    14  PHE14       0.1639
     27  C        -59.7860  -12.8280   -6.4280 C.2    14  PHE14       0.2290
     28  O        -60.9760  -12.5790   -6.2530 O.2    14  PHE14      -0.2864
     29  CB       -57.9960  -11.0770   -6.2300 C.3    14  PHE14       0.0560
     30  CG       -56.8630  -10.5260   -5.4310 C.ar   14  PHE14      -0.0200
     31  CD1      -57.1040   -9.7650   -4.2980 C.ar   14  PHE14      -0.0042
     32  CD2      -55.5530  -10.7740   -5.7980 C.ar   14  PHE14      -0.0042
     33  CE1      -56.0470   -9.2410   -3.5480 C.ar   14  PHE14      -0.0003
     34  CE2      -54.4920  -10.2800   -5.0470 C.ar   14  PHE14      -0.0003
     35  CZ       -54.7370   -9.5070   -3.9270 C.ar   14  PHE14      -0.0000
     36  N        -62.3770  -14.9180   -4.5140 N.3    17  ARG17      -0.1245
     37  CA       -63.4400  -14.1080   -3.9270 C.3    17  ARG17       0.1563
     38  C        -64.6710  -14.1060   -4.8030 C.2    17  ARG17       0.2260
     39  O        -65.8060  -14.3040   -4.3390 O.2    17  ARG17      -0.2867
     40  CB       -62.9570  -12.6740   -3.7260 C.3    17  ARG17       0.0307
     41  CG       -61.8560  -12.5400   -2.7290 C.3    17  ARG17       0.0489
     42  CD       -61.3630  -11.1100   -2.7130 C.3    17  ARG17       0.2205
     43  NE       -60.5300  -10.7810   -1.5600 N.pl3  17  ARG17      -0.0865
     44  CZ       -59.8480   -9.6480   -1.4500 C.cat  17  ARG17       0.5346
     45  NH1      -59.9090   -8.7650   -2.4290 N.pl3  17  ARG17       0.1354
     46  NH2      -59.1110   -9.3920   -0.3760 N.pl3  17  ARG17       0.1354
     47  N        -51.2340  -14.9700  -17.0830 N.3    36  LEU36      -0.1231
     48  CA       -50.8590  -13.6000  -16.7810 C.3    36  LEU36       0.1693
     49  C        -49.5050  -13.2120  -17.3690 C.2    36  LEU36       0.2591
     50  O        -49.1040  -12.0510  -17.3130 O.2    36  LEU36      -0.2718
     51  CB       -50.8550  -13.3760  -15.2750 C.3    36  LEU36       0.0284
     52  CG       -52.1970  -13.6050  -14.5860 C.3    36  LEU36       0.0019
     53  CD1      -52.0780  -13.2700  -13.1040 C.3    36  LEU36       0.0001
     54  CD2      -53.3240  -12.7890  -15.2590 C.3    36  LEU36       0.0001
     55  N        -48.7850  -14.1690  -17.9400 N.am   37  ARG37      -0.1980
     56  CA       -47.5350  -13.7980  -18.5870 C.3    37  ARG37       0.1597
     57  C        -47.7690  -13.6050  -20.0760 C.2    37  ARG37       0.2287
     58  O        -46.8970  -13.1000  -20.7840 O.2    37  ARG37      -0.2864
     59  CB       -46.4400  -14.8280  -18.3220 C.3    37  ARG37       0.0334
     60  CG       -45.9720  -14.8160  -16.8690 C.3    37  ARG37       0.0492
     61  CD       -44.4390  -14.7080  -16.7590 C.3    37  ARG37       0.2205
     62  NE       -43.8870  -13.5570  -17.4960 N.pl3  37  ARG37      -0.0865
     63  CZ       -44.0440  -12.2740  -17.1550 C.cat  37  ARG37       0.5346
     64  NH1      -44.7510  -11.9430  -16.0750 N.pl3  37  ARG37       0.1354
     65  NH2      -43.4960  -11.3160  -17.9000 N.pl3  37  ARG37       0.1354
     66  N        -51.1880  -12.1130  -21.4390 N.3    39  LYS39      -0.1245
     67  CA       -52.5620  -11.7120  -21.1850 C.3    39  LYS39       0.1561
     68  C        -53.3390  -11.6850  -22.4850 C.2    39  LYS39       0.2260
     69  O        -52.8320  -11.2210  -23.4940 O.2    39  LYS39      -0.2867
     70  CB       -52.5970  -10.3510  -20.4930 C.3    39  LYS39       0.0271
     71  CG       -52.1160  -10.4010  -19.0530 C.3    39  LYS39       0.0035
     72  CD       -51.7400   -9.0330  -18.5310 C.3    39  LYS39       0.0206
     73  CE       -51.2590   -9.1520  -17.0930 C.3    39  LYS39       0.1093
     74  NZ       -50.9060   -7.8290  -16.5310 N.3    39  LYS39      -0.1314
     75  N        -55.9050   -1.6110  -15.2010 N.3    50  HIS50      -0.1226
     76  CA       -55.0510   -2.3760  -14.2920 C.3    50  HIS50       0.1752
     77  C        -54.4330   -3.6100  -14.9510 C.2    50  HIS50       0.2596
     78  O        -53.3670   -4.0570  -14.5420 O.2    50  HIS50      -0.2718
     79  CB       -55.8210   -2.7960  -13.0390 C.3    50  HIS50       0.0759
     80  CG       -56.2990   -1.6490  -12.2000 C.ar   50  HIS50       0.0818
     81  ND1      -55.4510   -0.6940  -11.6840 N.ar   50  HIS50      -0.2268
     82  CD2      -57.5410   -1.3190  -11.7690 C.ar   50  HIS50       0.1154
     83  CE1      -56.1470    0.1700  -10.9650 C.ar   50  HIS50       0.1986
     84  NE2      -57.4210   -0.1810  -11.0100 N.ar   50  HIS50      -0.2212
     85  N        -55.1000   -4.1360  -15.9730 N.am   51  LYS51      -0.1966
     86  CA       -54.6670   -5.3380  -16.6880 C.3    51  LYS51       0.1728
     87  C        -54.5130   -6.5390  -15.7720 C.2    51  LYS51       0.2616
     88  O        -53.5490   -7.3090  -15.8890 O.2    51  LYS51      -0.2715
     89  CB       -53.3550   -5.0840  -17.4420 C.3    51  LYS51       0.0311
     90  CG       -53.4800   -3.9400  -18.4360 C.3    51  LYS51       0.0038
     91  CD       -52.4400   -3.9880  -19.5140 C.3    51  LYS51       0.0206
     92  CE       -51.7490   -2.6420  -19.6890 C.3    51  LYS51       0.1093
     93  NZ       -52.6980   -1.5100  -19.8380 N.3    51  LYS51      -0.1314
     94  N        -55.4870   -6.7050  -14.8840 N.am   52  LYS52      -0.1963
     95  CA       -55.4600   -7.7610  -13.8770 C.3    52  LYS52       0.1728
     96  C        -56.7240   -8.6010  -13.8610 C.2    52  LYS52       0.2616
     97  O        -57.7610   -8.2040  -14.3800 O.2    52  LYS52      -0.2715
     98  CB       -55.2630   -7.1670  -12.4880 C.3    52  LYS52       0.0311
     99  CG       -53.8810   -6.6090  -12.2490 C.3    52  LYS52       0.0038
    100  CD       -53.8910   -5.8250  -10.9900 C.3    52  LYS52       0.0206
    101  CE       -52.5180   -5.7330  -10.4020 C.3    52  LYS52       0.1093
    102  NZ       -52.6780   -5.1270   -9.0670 N.3    52  LYS52      -0.1314
    103  N        -56.6310   -9.7670  -13.2390 N.am   53  ILE53      -0.1964
    104  CA       -57.8210  -10.5440  -12.9460 C.3    53  ILE53       0.1712
    105  C        -58.0750  -10.4060  -11.4450 C.2    53  ILE53       0.2458
    106  O        -57.1710  -10.0100  -10.6890 O.2    53  ILE53      -0.2730
    107  CB       -57.6690  -12.0340  -13.4080 C.3    53  ILE53       0.0289
    108  CG1      -56.4700  -12.7170  -12.7390 C.3    53  ILE53       0.0022
    109  CG2      -57.5620  -12.1060  -14.9380 C.3    53  ILE53       0.0023
    110  CD1      -56.7780  -13.3360  -11.3940 C.3    53  ILE53       0.0001
    111  N        -59.2970  -10.7140  -10.9950 N.am   54  PRO54      -0.2727
    112  CA       -60.4400  -11.1760  -11.7820 C.3    54  PRO54       0.1402
    113  C        -61.0790  -10.0330  -12.5650 C.2    54  PRO54       0.2269
    114  O        -60.9180   -8.8580  -12.1830 O.2    54  PRO54      -0.2865
    115  CB       -61.4020  -11.7050  -10.7180 C.3    54  PRO54       0.0296
    116  CG       -61.0980  -10.8420   -9.4930 C.3    54  PRO54       0.0237
    117  CD       -59.6030  -10.6430   -9.5580 C.3    54  PRO54       0.0939
    118  N        -61.6950   -5.2930  -10.1030 N.3    65  GLU65      -0.1231
    119  CA       -61.4440   -5.2160   -8.6530 C.3    65  GLU65       0.1699
    120  C        -62.4200   -6.0990   -7.8880 C.2    65  GLU65       0.2593
    121  O        -63.6310   -5.7900   -7.8040 O.2    65  GLU65      -0.2718
    122  CB       -61.5140   -3.7800   -8.1210 C.3    65  GLU65       0.0402
    123  CG       -60.4470   -2.9020   -8.6660 C.3    65  GLU65       0.1161
    124  CD       -59.0930   -3.3210   -8.1930 C.2    65  GLU65       0.3649
    125  OE1      -58.9350   -3.4710   -6.9480 O.co2  65  GLU65      -0.2457
    126  OE2      -58.1970   -3.5010   -9.0640 O.co2  65  GLU65      -0.2457
    127  N        -61.8730   -7.1730   -7.3060 N.am   66  SER66      -0.1938
    128  CA       -62.6820   -8.2850   -6.7840 C.3    66  SER66       0.2055
    129  C        -63.7770   -7.8670   -5.8020 C.2    66  SER66       0.2642
    130  O        -64.9450   -8.2050   -5.9990 O.2    66  SER66      -0.2714
    131  CB       -61.7800   -9.3470   -6.1300 C.3    66  SER66       0.2130
    132  OG       -60.8780   -8.8050   -5.1760 O.3    66  SER66      -0.2179
    133  N        -63.4320   -7.1330   -4.7530 N.am   67  LEU67      -0.1977
    134  CA       -64.4620   -6.7640   -3.7760 C.3    67  LEU67       0.1596
    135  C        -65.4980   -5.7910   -4.3620 C.2    67  LEU67       0.2287
    136  O        -66.6470   -5.7760   -3.9390 O.2    67  LEU67      -0.2864
    137  CB       -63.8210   -6.1690   -2.5330 C.3    67  LEU67       0.0297
    138  CG       -62.8780   -7.0800   -1.7480 C.3    67  LEU67       0.0022
    139  CD1      -62.2780   -6.3210   -0.5870 C.3    67  LEU67       0.0001
    140  CD2      -63.6260   -8.3050   -1.2490 C.3    67  LEU67       0.0001
    141  N        -57.6250   -6.3660    2.2680 N.3   102  ASP102     -0.1239
    142  CA       -56.9990   -5.8560    1.0400 C.3   102  ASP102      0.1674
    143  C        -55.7020   -5.1240    1.3410 C.2   102  ASP102      0.2266
    144  O        -54.7210   -5.2690    0.6280 O.2   102  ASP102     -0.2867
    145  CB       -57.9480   -4.9200    0.2710 C.3   102  ASP102      0.1410
    146  CG       -58.7110   -5.6350   -0.8210 C.2   102  ASP102      0.3668
    147  OD1      -58.4330   -6.8260   -1.0210 O.co2 102  ASP102     -0.2456
    148  OD2      -59.5990   -5.0290   -1.4680 O.co2 102  ASP102     -0.2456
    149  N        -52.3490   -9.9670    1.3280 N.3   106  TYR106     -0.1241
    150  CA       -51.5910  -10.3550    0.1370 C.3   106  TYR106      0.1605
    151  C        -50.1650   -9.8130    0.1320 C.2   106  TYR106      0.2264
    152  O        -49.2290  -10.5130   -0.2670 O.2   106  TYR106     -0.2867
    153  CB       -52.2840   -9.9070   -1.1580 C.3   106  TYR106      0.0534
    154  CG       -51.5490  -10.4350   -2.3820 C.ar  106  TYR106     -0.0201
    155  CD1      -51.7970  -11.7270   -2.8620 C.ar  106  TYR106     -0.0009
    156  CD2      -50.5660   -9.6800   -3.0190 C.ar  106  TYR106     -0.0009
    157  CE1      -51.1050  -12.2430   -3.9610 C.ar  106  TYR106      0.0417
    158  CE2      -49.8650  -10.1910   -4.1250 C.ar  106  TYR106      0.0417
    159  CZ       -50.1420  -11.4730   -4.5890 C.ar  106  TYR106      0.1957
    160  OH       -49.4700  -11.9850   -5.6770 O.3   106  TYR106     -0.2866
    161  N        -46.6780  -11.6270    0.3080 N.3   110  ARG110     -0.1245
    162  CA       -45.6740  -11.6370   -0.7480 C.3   110  ARG110      0.1563
    163  C        -44.2960  -11.3540   -0.1620 C.2   110  ARG110      0.2260
    164  O        -43.3040  -11.9610   -0.5600 O.2   110  ARG110     -0.2867
    165  CB       -46.0230  -10.6140   -1.8380 C.3   110  ARG110      0.0307
    166  CG       -45.3300  -10.8690   -3.1800 C.3   110  ARG110      0.0489
    167  CD       -45.9290  -10.0580   -4.3350 C.3   110  ARG110      0.2205
    168  NE       -45.5770  -10.6450   -5.6330 N.pl3 110  ARG110     -0.0865
    169  CZ       -46.4280  -10.8640   -6.6390 C.cat 110  ARG110      0.5346
    170  NH1      -47.7110  -10.5300   -6.5350 N.pl3 110  ARG110      0.1354
    171  NH2      -45.9840  -11.4130   -7.7670 N.pl3 110  ARG110      0.1354
    172  N        -53.1110  -20.1000    0.6560 N.3   162  TRP162     -0.1241
    173  CA       -51.7360  -19.6100    0.5140 C.3   162  TRP162      0.1605
    174  C        -50.9200  -19.8690    1.7900 C.2   162  TRP162      0.2264
    175  O        -49.7090  -19.6240    1.8380 O.2   162  TRP162     -0.2867
    176  CB       -51.7430  -18.1030    0.1430 C.3   162  TRP162      0.0550
    177  CG       -51.9520  -17.8770   -1.3260 C.ar  162  TRP162      0.0003
    178  CD1      -52.9780  -18.3700   -2.0980 C.ar  162  TRP162      0.0946
    179  CD2      -51.1220  -17.1100   -2.2040 C.ar  162  TRP162      0.0152
    180  NE1      -52.8140  -17.9700   -3.4070 N.ar  162  TRP162     -0.2442
    181  CE2      -51.6850  -17.1950   -3.4960 C.ar  162  TRP162      0.0810
    182  CE3      -49.9410  -16.3800   -2.0260 C.ar  162  TRP162      0.0012
    183  CZ2      -51.1120  -16.5700   -4.6070 C.ar  162  TRP162      0.0191
    184  CZ3      -49.3740  -15.7570   -3.1240 C.ar  162  TRP162      0.0001
    185  CH2      -49.9630  -15.8550   -4.4030 C.ar  162  TRP162      0.0015
@<TRIPOS>BOND
     1    69    68    2
     2    68    67    1
     3    66    67    1
     4    67    70    1
     5    58    57    2
     6    70    71    1
     7    57    56    1
     8    93    92    1
     9    92    91    1
    10    91    90    1
    11    71    72    1
    12    56    59    1
    13    56    55    1
    14    72    73    1
    15    90    89    1
    16    59    60    1
    17    55    49   am
    18    65    63    1
    19    62    63    2
    20    62    61    1
    21    89    86    1
    22    49    50    2
    23    49    48    1
    24    63    64    1
    25    73    74    1
    26    47    48    1
    27    60    61    1
    28    48    51    1
    29    86    85    1
    30    86    87    1
    31    85    77   am
    32    88    87    2
    33    87    94   am
    34    51    52    1
    35    54    52    1
    36    75    76    1
    37    77    78    2
    38    77    76    1
    39   109   107    1
    40    94    95    1
    41    52    53    1
    42    97    96    2
    43    76    79    1
    44    95    96    1
    45    95    98    1
    46    96   103   am
    47   107   104    1
    48   107   108    1
    49     7     9   ar
    50     7     6   ar
    51   103   104    1
    52     9    11   ar
    53    79    80    1
    54   104   105    1
    55     5     2    1
    56     5     6    1
    57     2     1    1
    58     2     3    1
    59   108   110    1
    60     6     8   ar
    61   113   114    2
    62   113   112    1
    63    98    99    1
    64    11    10   ar
    65    99   100    1
    66    80    82   ar
    67    80    81   ar
    68     8    10   ar
    69   112   111    1
    70   112   115    1
    71    82    84   ar
    72    81    83   ar
    73     3     4    2
    74   105   111   am
    75   105   106    2
    76    84    83   ar
    77   111   117    1
    78   100   101    1
    79   115   116    1
    80   101   102    1
    81   118   119    1
    82   117   116    1
    83   126   124   ar
    84   123   124    1
    85   123   122    1
    86   119   122    1
    87   119   120    1
    88    16    17    1
    89    16    13    1
    90   124   125   ar
    91   120   121    2
    92   120   127   am
    93    12    13    1
    94   171   169    1
    95    13    14    1
    96   127   128    1
    97   128   131    1
    98   128   129    1
    99   169   170    1
   100   169   168    2
   101    27    28    2
   102    27    26    1
   103    15    14    2
   104    29    26    1
   105    29    30    1
   106    14    18   am
   107   131   132    1
   108   130   129    2
   109   129   133   am
   110    32    30   ar
   111    32    34   ar
   112   160   159    1
   113   168   167    1
   114    26    25    1
   115    30    31   ar
   116    25    20   am
   117    18    24    1
   118    18    19    1
   119    34    35   ar
   120    38    39    2
   121    38    37    1
   122    24    23    1
   123   133   134    1
   124   183   185   ar
   125   183   181   ar
   126   159   158   ar
   127   159   157   ar
   128    36    37    1
   129   185   184   ar
   130   135   136    2
   131   135   134    1
   132   167   166    1
   133    20    19    1
   134    20    21    2
   135    31    33   ar
   136   158   156   ar
   137   157   155   ar
   138    19    22    1
   139    37    40    1
   140    35    33   ar
   141   134   137    1
   142    40    41    1
   143   181   180   ar
   144   181   179   ar
   145   180   178   ar
   146    23    22    1
   147   166   165    1
   148   184   182   ar
   149   156   154   ar
   150   155   154   ar
   151    41    42    1
   152    42    43    1
   153   137   138    1
   154    45    44    1
   155   154   153    1
   156   179   182   ar
   157   179   177   ar
   158   178   177   ar
   159   165   162    1
   160   138   140    1
   161   138   139    1
   162    43    44    2
   163   148   146   ar
   164    44    46    1
   165   177   176    1
   166   153   150    1
   167   147   146   ar
   168   146   145    1
   169   162   163    1
   170   162   161    1
   171   164   163    2
   172   152   151    2
   173   151   150    1
   174   150   149    1
   175   176   173    1
   176   145   142    1
   177   173   172    1
   178   173   174    1
   179   144   143    2
   180   142   143    1
   181   142   141    1
   182   174   175    2
