@<TRIPOS>MOLECULE
tmp/4torA00.pdb
 149 150 0 0 0
SMALL
GASTEIGER

@<TRIPOS>ATOM
      1  N        -85.7340  126.2400   -0.9860 N.3    80  HIS80      -0.1226
      2  CA       -84.5980  126.6040   -0.1450 C.3    80  HIS80       0.1752
      3  C        -84.7680  128.0110    0.3980 C.2    80  HIS80       0.2597
      4  O        -85.1090  128.9200   -0.3460 O.2    80  HIS80      -0.2718
      5  CB       -83.2680  126.5290   -0.9110 C.3    80  HIS80       0.0759
      6  CG       -82.1120  127.0520   -0.1190 C.ar   80  HIS80       0.0818
      7  ND1      -81.4290  126.2700    0.7870 N.ar   80  HIS80      -0.2268
      8  CD2      -81.5620  128.2910   -0.0410 C.ar   80  HIS80       0.1154
      9  CE1      -80.4800  126.9980    1.3590 C.ar   80  HIS80       0.1986
     10  NE2      -80.5550  128.2310    0.8890 N.ar   80  HIS80      -0.2212
     11  N        -84.5230  128.1780    1.6920 N.am   81  GLY81      -0.1942
     12  CA       -84.4390  129.4890    2.2960 C.3    81  GLY81       0.2014
     13  C        -83.1570  129.6690    3.0850 C.2    81  GLY81       0.2640
     14  O        -82.7170  128.7810    3.7970 O.2    81  GLY81      -0.2714
     15  N        -82.5560  130.8400    2.9280 N.am   82  SER82      -0.1936
     16  CA       -81.3830  131.2340    3.7020 C.3    82  SER82       0.2040
     17  C        -81.1220  132.6930    3.4190 C.2    82  SER82       0.2485
     18  O        -81.6540  133.2360    2.4570 O.2    82  SER82      -0.2729
     19  CB       -80.1280  130.4150    3.3590 C.3    82  SER82       0.2129
     20  OG       -79.6860  130.6880    2.0570 O.3    82  SER82      -0.2179
     21  N        -80.2650  133.3160    4.2400 N.am   83  PRO83      -0.2715
     22  CA       -79.8270  134.6940    3.9810 C.3    83  PRO83       0.1536
     23  C        -78.8950  134.8830    2.7830 C.2    83  PRO83       0.2598
     24  O        -78.3920  135.9820    2.6010 O.2    83  PRO83      -0.2715
     25  CB       -79.0760  135.0660    5.2580 C.3    83  PRO83       0.0310
     26  CG       -79.6000  134.1690    6.3080 C.3    83  PRO83       0.0237
     27  CD       -79.9000  132.8740    5.5970 C.3    83  PRO83       0.0939
     28  N        -78.6540  133.8410    1.9880 N.am   84  PHE84      -0.1974
     29  CA       -77.5760  133.8590    1.0060 C.3    84  PHE84       0.1639
     30  C        -78.0590  133.7730   -0.4370 C.2    84  PHE84       0.2290
     31  O        -77.2950  133.4750   -1.3370 O.2    84  PHE84      -0.2864
     32  CB       -76.6110  132.7280    1.3390 C.3    84  PHE84       0.0560
     33  CG       -76.0900  132.8310    2.7310 C.ar   84  PHE84      -0.0200
     34  CD1      -75.2110  133.8360    3.0600 C.ar   84  PHE84      -0.0042
     35  CD2      -76.5700  132.0080    3.7280 C.ar   84  PHE84      -0.0042
     36  CE1      -74.7680  133.9960    4.3600 C.ar   84  PHE84      -0.0003
     37  CE2      -76.1010  132.1490    5.0240 C.ar   84  PHE84      -0.0003
     38  CZ       -75.2210  133.1440    5.3340 C.ar   84  PHE84      -0.0000
     39  N        -76.0560  135.4540   -3.3150 N.3    87  ALA87      -0.1231
     40  CA       -74.8370  134.7620   -3.6910 C.3    87  ALA87       0.1694
     41  C        -75.1490  133.4880   -4.4740 C.2    87  ALA87       0.2591
     42  O        -74.4770  133.1720   -5.4500 O.2    87  ALA87      -0.2718
     43  CB       -74.0240  134.4330   -2.4750 C.3    87  ALA87       0.0304
     44  N        -76.1730  132.7590   -4.0350 N.am   88  ILE88      -0.1980
     45  CA       -76.5480  131.4840   -4.6630 C.3    88  ILE88       0.1595
     46  C        -76.9270  131.6680   -6.1320 C.2    88  ILE88       0.2287
     47  O        -76.5220  130.8750   -6.9770 O.2    88  ILE88      -0.2864
     48  CB       -77.7220  130.8170   -3.8930 C.3    88  ILE88       0.0276
     49  CG1      -77.2720  130.3670   -2.5040 C.3    88  ILE88       0.0022
     50  CG2      -78.2700  129.5970   -4.6340 C.3    88  ILE88       0.0022
     51  CD1      -78.4320  130.2340   -1.5090 C.3    88  ILE88       0.0001
     52  N        -73.9640  129.8610   -7.3510 N.3    92  GLY92      -0.1210
     53  CA       -74.4860  128.5730   -6.9690 C.3    92  GLY92       0.1956
     54  C        -74.3320  128.2570   -5.4970 C.2    92  GLY92       0.2612
     55  O        -73.7350  129.0110   -4.7240 O.2    92  GLY92      -0.2717
     56  N        -74.8890  127.1260   -5.0980 N.am   93  PHE93      -0.1962
     57  CA       -74.6830  126.6200   -3.7600 C.3    93  PHE93       0.1771
     58  C        -73.2280  126.1730   -3.6140 C.2    93  PHE93       0.2619
     59  O        -72.6400  125.6650   -4.5730 O.2    93  PHE93      -0.2715
     60  CB       -75.6300  125.4580   -3.4860 C.3    93  PHE93       0.0574
     61  CG       -77.0810  125.8410   -3.4760 C.ar   93  PHE93      -0.0200
     62  CD1      -77.6350  126.4240   -2.3530 C.ar   93  PHE93      -0.0042
     63  CD2      -77.8950  125.6260   -4.5810 C.ar   93  PHE93      -0.0042
     64  CE1      -78.9750  126.7620   -2.3260 C.ar   93  PHE93      -0.0003
     65  CE2      -79.2390  125.9750   -4.5490 C.ar   93  PHE93      -0.0003
     66  CZ       -79.7640  126.5410   -3.4260 C.ar   93  PHE93      -0.0000
     67  N        -72.6720  126.3470   -2.4200 N.am   94  ASP94      -0.1971
     68  CA       -71.2520  126.0690   -2.1580 C.3    94  ASP94       0.1709
     69  C        -71.1160  125.4550   -0.7690 C.2    94  ASP94       0.2293
     70  O        -71.1860  126.1590    0.2380 O.2    94  ASP94      -0.2864
     71  CB       -70.4310  127.3560   -2.2730 C.3    94  ASP94       0.1436
     72  CG       -68.9260  127.1320   -2.1520 C.2    94  ASP94       0.3671
     73  OD1      -68.4910  125.9990   -1.8400 O.co2  94  ASP94      -0.2456
     74  OD2      -68.1790  128.1140   -2.3740 O.co2  94  ASP94      -0.2456
     75  N        -69.3140  126.5500    2.5670 N.3    97  HIS97      -0.1226
     76  CA       -69.9410  127.4090    3.5710 C.3    97  HIS97       0.1752
     77  C        -70.8450  126.6580    4.5300 C.2    97  HIS97       0.2596
     78  O        -71.4550  127.2660    5.3990 O.2    97  HIS97      -0.2718
     79  CB       -70.7560  128.5070    2.9060 C.3    97  HIS97       0.0759
     80  CG       -69.9320  129.5700    2.2570 C.ar   97  HIS97       0.0818
     81  ND1      -69.2100  130.4990    2.9750 N.ar   97  HIS97      -0.2268
     82  CD2      -69.7380  129.8730    0.9510 C.ar   97  HIS97       0.1154
     83  CE1      -68.5980  131.3200    2.1420 C.ar   97  HIS97       0.1986
     84  NE2      -68.9120  130.9680    0.9070 N.ar   97  HIS97      -0.2212
     85  N        -70.9510  125.3420    4.3660 N.am   98  ALA98      -0.1966
     86  CA       -71.7580  124.5280    5.2550 C.3    98  ALA98       0.1728
     87  C        -70.8820  123.9570    6.3550 C.2    98  ALA98       0.2616
     88  O        -69.8250  123.3890    6.0640 O.2    98  ALA98      -0.2715
     89  CB       -72.4350  123.4100    4.4810 C.3    98  ALA98       0.0334
     90  N        -71.3200  124.0780    7.6050 N.am   99  TYR99      -0.1974
     91  CA       -70.5160  123.5960    8.7290 C.3    99  TYR99       0.1639
     92  C        -71.2240  122.5030    9.5400 C.2    99  TYR99       0.2290
     93  O        -72.4410  122.3080    9.4650 O.2    99  TYR99      -0.2864
     94  CB       -70.1030  124.7790    9.6150 C.3    99  TYR99       0.0560
     95  CG       -69.2830  125.7790    8.8320 C.ar   99  TYR99      -0.0198
     96  CD1      -67.9160  125.5990    8.6560 C.ar   99  TYR99      -0.0009
     97  CD2      -69.8830  126.8790    8.2270 C.ar   99  TYR99      -0.0009
     98  CE1      -67.1660  126.4950    7.9190 C.ar   99  TYR99       0.0417
     99  CE2      -69.1420  127.7780    7.4910 C.ar   99  TYR99       0.0417
    100  CZ       -67.7860  127.5820    7.3420 C.ar   99  TYR99       0.1957
    101  OH       -67.0470  128.4730    6.6050 O.3    99  TYR99      -0.2866
    102  N        -74.1280  120.2620    5.2200 N.3   107  GLY107     -0.1210
    103  CA       -74.7920  120.1980    3.9340 C.3   107  GLY107      0.1956
    104  C        -75.6050  121.4360    3.6380 C.2   107  GLY107      0.2612
    105  O        -75.6190  122.4030    4.4060 O.2   107  GLY107     -0.2717
    106  N        -76.2750  121.3940    2.4910 N.am  108  ILE108     -0.1965
    107  CA       -77.1810  122.4380    2.0360 C.3   108  ILE108      0.1727
    108  C        -78.5950  121.8500    2.1430 C.2   108  ILE108      0.2616
    109  O        -78.8540  120.7430    1.6470 O.2   108  ILE108     -0.2715
    110  CB       -76.8530  122.8800    0.6020 C.3   108  ILE108      0.0290
    111  CG1      -75.3890  123.3530    0.5060 C.3   108  ILE108      0.0022
    112  CG2      -77.7790  123.9920    0.1570 C.3   108  ILE108      0.0023
    113  CD1      -74.6800  122.8530   -0.7270 C.3   108  ILE108      0.0001
    114  N        -79.4880  122.5790    2.8130 N.am  109  TYR109     -0.1974
    115  CA       -80.7690  122.0460    3.2470 C.3   109  TYR109      0.1639
    116  C        -81.8920  122.5720    2.4120 C.2   109  TYR109      0.2290
    117  O        -81.9690  123.7540    2.1260 O.2   109  TYR109     -0.2864
    118  CB       -81.0520  122.3810    4.7130 C.3   109  TYR109      0.0560
    119  CG       -80.1570  121.6760    5.7000 C.ar  109  TYR109     -0.0198
    120  CD1      -78.7800  121.8340    5.6500 C.ar  109  TYR109     -0.0009
    121  CD2      -80.6790  120.8660    6.6840 C.ar  109  TYR109     -0.0009
    122  CE1      -77.9550  121.1910    6.5460 C.ar  109  TYR109      0.0417
    123  CE2      -79.8630  120.2250    7.5830 C.ar  109  TYR109      0.0417
    124  CZ       -78.4950  120.3970    7.5130 C.ar  109  TYR109      0.1957
    125  OH       -77.6810  119.7520    8.4150 O.3   109  TYR109     -0.2866
    126  N        -85.9930  129.6980    7.5310 N.3   120  TYR120     -0.1241
    127  CA       -84.5370  129.8710    7.4230 C.3   120  TYR120      0.1605
    128  C        -84.1580  131.1750    6.7290 C.2   120  TYR120      0.2264
    129  O        -82.9870  131.5200    6.6570 O.2   120  TYR120     -0.2867
    130  CB       -83.9080  128.7230    6.6310 C.3   120  TYR120      0.0534
    131  CG       -83.8680  127.3730    7.2980 C.ar  120  TYR120     -0.0201
    132  CD1      -82.8790  127.0670    8.2160 C.ar  120  TYR120     -0.0009
    133  CD2      -84.7790  126.3790    6.9550 C.ar  120  TYR120     -0.0009
    134  CE1      -82.8150  125.8210    8.8060 C.ar  120  TYR120      0.0417
    135  CE2      -84.7220  125.1320    7.5380 C.ar  120  TYR120      0.0417
    136  CZ       -83.7360  124.8570    8.4630 C.ar  120  TYR120      0.1957
    137  OH       -83.6620  123.6110    9.0510 O.3   120  TYR120     -0.2866
    138  N        -82.3510  133.4370    8.7940 N.3   123  GLY123     -0.1210
    139  CA       -81.3270  132.7500    9.5710 C.3   123  GLY123      0.1956
    140  C        -81.8400  131.4550   10.1720 C.2   123  GLY123      0.2611
    141  O        -83.0260  131.1790   10.1000 O.2   123  GLY123     -0.2717
    142  N        -80.9580  130.6490   10.7600 N.am  124  ILE124     -0.1979
    143  CA       -81.3860  129.4480   11.4640 C.3   124  ILE124      0.1595
    144  C        -82.4010  129.8270   12.5400 C.2   124  ILE124      0.2287
    145  O        -82.2010  130.7790   13.3050 O.2   124  ILE124     -0.2864
    146  CB       -80.1910  128.7000   12.1120 C.3   124  ILE124      0.0276
    147  CG1      -79.2390  128.1730   11.0350 C.3   124  ILE124      0.0022
    148  CG2      -80.6780  127.5510   13.0070 C.3   124  ILE124      0.0022
    149  CD1      -79.8500  127.1170   10.1320 C.3   124  ILE124      0.0001
@<TRIPOS>BOND
     1    52    53    1
     2    47    46    2
     3    53    54    1
     4    46    45    1
     5    54    56   am
     6    54    55    2
     7    42    41    2
     8    56    57    1
     9    45    44    1
    10    45    48    1
    11    50    48    1
    12    63    65   ar
    13    63    61   ar
    14    59    58    2
    15    65    66   ar
    16    41    44   am
    17    41    40    1
    18    48    49    1
    19    57    58    1
    20    57    60    1
    21    40    39    1
    22    40    43    1
    23    58    67   am
    24    60    61    1
    25    61    62   ar
    26    66    64   ar
    27    49    51    1
    28    67    68    1
    29    74    72   ar
    30    62    64   ar
    31    71    68    1
    32    71    72    1
    33    68    69    1
    34    72    73   ar
    35    31    30    2
    36     1     2    1
    37     5     2    1
    38     5     6    1
    39    69    70    2
    40   113   111    1
    41    30    29    1
    42     4     3    2
    43     2     3    1
    44     6     8   ar
    45     6     7   ar
    46     8    10   ar
    47   112   110    1
    48     3    11   am
    49   111   110    1
    50   110   107    1
    51     7     9   ar
    52    10     9   ar
    53    84    82   ar
    54    84    83   ar
    55    82    80   ar
    56    29    32    1
    57    29    28    1
    58    32    33    1
    59   109   108    2
    60    11    12    1
    61    28    23   am
    62   107   108    1
    63   107   106    1
    64    20    19    1
    65   117   116    2
    66    83    81   ar
    67   108   114   am
    68    80    79    1
    69    80    81   ar
    70    12    13    1
    71   116   115    1
    72    18    17    2
    73   106   104   am
    74    75    76    1
    75    24    23    2
    76    33    34   ar
    77    33    35   ar
    78    23    22    1
    79   114   115    1
    80    79    76    1
    81    15    13   am
    82    15    16    1
    83    34    36   ar
    84    13    14    2
    85   115   118    1
    86    19    16    1
    87    17    16    1
    88    17    21   am
    89    76    77    1
    90   104   103    1
    91   104   105    2
    92    35    37   ar
    93   103   102    1
    94    22    21    1
    95    22    25    1
    96    21    27    1
    97    36    38   ar
    98    85    77   am
    99    85    86    1
   100    89    86    1
   101    77    78    2
   102   118   119    1
   103    37    38   ar
   104    86    87    1
   105    25    26    1
   106    27    26    1
   107   120   119   ar
   108   120   122   ar
   109   119   121   ar
   110    88    87    2
   111    87    90   am
   112   122   124   ar
   113   101   100    1
   114   130   131    1
   115   130   127    1
   116   129   128    2
   117   121   123   ar
   118   128   127    1
   119   133   131   ar
   120   133   135   ar
   121   131   132   ar
   122   100    99   ar
   123   100    98   ar
   124   127   126    1
   125    99    97   ar
   126   124   123   ar
   127   124   125    1
   128   135   136   ar
   129    90    91    1
   130    98    96   ar
   131   132   134   ar
   132    97    95   ar
   133   136   134   ar
   134   136   137    1
   135    96    95   ar
   136    91    92    1
   137    91    94    1
   138   138   139    1
   139    95    94    1
   140    93    92    2
   141   139   140    1
   142   141   140    2
   143   149   147    1
   144   140   142   am
   145   142   143    1
   146   147   146    1
   147   143   146    1
   148   143   144    1
   149   146   148    1
   150   144   145    2
