@<TRIPOS>MOLECULE
tmp/4tosA00.pdb
 214 210 0 0 0
SMALL
GASTEIGER

@<TRIPOS>ATOM
      1  N         -8.4940   15.6570  -10.2890 N.3    81  HIS81      -0.1226
      2  CA        -9.8420   16.1570  -10.4900 C.3    81  HIS81       0.1752
      3  C        -10.7880   14.9830  -10.7110 C.2    81  HIS81       0.2597
      4  O        -10.5640   14.1510  -11.5890 O.2    81  HIS81      -0.2718
      5  CB        -9.9300   17.0930  -11.7010 C.3    81  HIS81       0.0759
      6  CG       -11.3240   17.5640  -11.9890 C.ar   81  HIS81       0.0818
      7  ND1      -11.8920   18.6640  -11.3740 N.ar   81  HIS81      -0.2268
      8  CD2      -12.2770   17.0600  -12.8100 C.ar   81  HIS81       0.1154
      9  CE1      -13.1330   18.8120  -11.8020 C.ar   81  HIS81       0.1986
     10  NE2      -13.3890   17.8550  -12.6810 N.ar   81  HIS81      -0.2212
     11  N        -11.8650   14.9460   -9.9390 N.am   82  GLY82      -0.1942
     12  CA       -12.8800   13.9290  -10.1380 C.3    82  GLY82       0.2014
     13  C        -14.2190   14.6030  -10.2840 C.2    82  GLY82       0.2640
     14  O        -14.5860   15.4390   -9.4590 O.2    82  GLY82      -0.2714
     15  N        -14.9400   14.2590  -11.3420 N.am   83  SER83      -0.1936
     16  CA       -16.2850   14.7810  -11.5320 C.3    83  SER83       0.2040
     17  C        -16.9560   13.9620  -12.6180 C.2    83  SER83       0.2485
     18  O        -16.2910   13.2090  -13.3280 O.2    83  SER83      -0.2729
     19  CB       -16.2530   16.2650  -11.9360 C.3    83  SER83       0.2129
     20  OG       -15.9440   16.3830  -13.3100 O.3    83  SER83      -0.2179
     21  N        -18.2780   14.0880  -12.7560 N.am   84  PRO84      -0.2715
     22  CA       -18.9330   13.3160  -13.8170 C.3    84  PRO84       0.1536
     23  C        -18.6620   13.8540  -15.2230 C.2    84  PRO84       0.2598
     24  O        -19.2550   13.3440  -16.1710 O.2    84  PRO84      -0.2715
     25  CB       -20.4230   13.4900  -13.5020 C.3    84  PRO84       0.0310
     26  CG       -20.4730   13.9380  -12.0590 C.3    84  PRO84       0.0237
     27  CD       -19.2530   14.7630  -11.8850 C.3    84  PRO84       0.0939
     28  N        -17.7940   14.8510  -15.3600 N.am   85  PHE85      -0.1974
     29  CA       -17.6080   15.5200  -16.6460 C.3    85  PHE85       0.1639
     30  C        -16.2760   15.2140  -17.3220 C.2    85  PHE85       0.2290
     31  O        -15.8530   15.9250  -18.2380 O.2    85  PHE85      -0.2864
     32  CB       -17.8140   17.0160  -16.4520 C.3    85  PHE85       0.0560
     33  CG       -19.0350   17.3210  -15.6450 C.ar   85  PHE85      -0.0200
     34  CD1      -20.2890   16.9390  -16.1050 C.ar   85  PHE85      -0.0042
     35  CD2      -18.9350   17.9250  -14.4050 C.ar   85  PHE85      -0.0042
     36  CE1      -21.4230   17.1910  -15.3570 C.ar   85  PHE85      -0.0003
     37  CE2      -20.0690   18.1780  -13.6460 C.ar   85  PHE85      -0.0003
     38  CZ       -21.3130   17.8140  -14.1230 C.ar   85  PHE85      -0.0000
     39  N        -16.2900   15.0810  -21.1970 N.3    88  ALA88      -0.1231
     40  CA       -16.3170   16.4210  -21.7850 C.3    88  ALA88       0.1694
     41  C        -14.9620   17.1280  -21.6400 C.2    88  ALA88       0.2591
     42  O        -14.4720   17.7750  -22.5830 O.2    88  ALA88      -0.2718
     43  CB       -17.4320   17.2600  -21.1680 C.3    88  ALA88       0.0304
     44  N        -14.3540   17.0140  -20.4620 N.am   89  ILE89      -0.1980
     45  CA       -13.1010   17.7330  -20.2030 C.3    89  ILE89       0.1595
     46  C        -11.9410   17.3260  -21.1250 C.2    89  ILE89       0.2287
     47  O        -11.1870   18.1780  -21.5920 O.2    89  ILE89      -0.2864
     48  CB       -12.6550   17.5830  -18.7360 C.3    89  ILE89       0.0276
     49  CG1      -13.6660   18.2830  -17.8210 C.3    89  ILE89       0.0022
     50  CG2      -11.2750   18.1770  -18.5330 C.3    89  ILE89       0.0022
     51  CD1      -13.5570   17.8480  -16.3890 C.3    89  ILE89       0.0001
     52  N        -12.9400   18.9020  -24.6690 N.3    92  LYS92      -0.1231
     53  CA       -13.2310   20.3300  -24.7990 C.3    92  LYS92       0.1693
     54  C        -12.4300   21.1890  -23.8280 C.2    92  LYS92       0.2593
     55  O        -12.4790   22.4140  -23.9040 O.2    92  LYS92      -0.2718
     56  CB       -14.7200   20.5980  -24.5850 C.3    92  LYS92       0.0285
     57  CG       -15.6490   19.7110  -25.3950 C.3    92  LYS92       0.0035
     58  CD       -16.8690   20.5020  -25.8150 C.3    92  LYS92       0.0206
     59  CE       -18.1130   19.6370  -25.9120 C.3    92  LYS92       0.1093
     60  NZ       -18.6790   19.3450  -24.5640 N.3    92  LYS92      -0.1314
     61  N        -11.7150   20.5520  -22.9080 N.am   93  GLY93      -0.1942
     62  CA       -10.9510   21.2610  -21.8890 C.3    93  GLY93       0.2014
     63  C        -11.8270   21.6940  -20.7260 C.2    93  GLY93       0.2639
     64  O        -13.0430   21.5170  -20.7570 O.2    93  GLY93      -0.2714
     65  N        -11.2110   22.2810  -19.7050 N.am   94  PHE94      -0.1959
     66  CA       -11.9650   22.8150  -18.5830 C.3    94  PHE94       0.1771
     67  C        -12.6510   24.1010  -18.9990 C.2    94  PHE94       0.2620
     68  O        -12.0760   24.8940  -19.7500 O.2    94  PHE94      -0.2715
     69  CB       -11.0540   23.0600  -17.3780 C.3    94  PHE94       0.0574
     70  CG       -10.6520   21.8070  -16.6450 C.ar   94  PHE94      -0.0200
     71  CD1      -11.5260   21.1900  -15.7600 C.ar   94  PHE94      -0.0042
     72  CD2       -9.3900   21.2620  -16.8270 C.ar   94  PHE94      -0.0042
     73  CE1      -11.1340   20.0360  -15.0680 C.ar   94  PHE94      -0.0003
     74  CE2       -8.9960   20.1110  -16.1410 C.ar   94  PHE94      -0.0003
     75  CZ        -9.8700   19.5070  -15.2630 C.ar   94  PHE94      -0.0000
     76  N        -13.8840   24.2910  -18.5350 N.am   95  ASP95      -0.1957
     77  CA       -14.6650   25.4880  -18.8520 C.3    95  ASP95       0.1840
     78  C        -15.3820   25.9180  -17.5890 C.2    95  ASP95       0.2621
     79  O        -16.3600   25.3020  -17.1780 O.2    95  ASP95      -0.2715
     80  CB       -15.6750   25.2010  -19.9740 C.3    95  ASP95       0.1450
     81  CG       -16.3890   26.4570  -20.4800 C.2    95  ASP95       0.3671
     82  OD1      -16.4820   27.4660  -19.7380 O.co2  95  ASP95      -0.2456
     83  OD2      -16.8770   26.4330  -21.6340 O.co2  95  ASP95      -0.2456
     84  N        -14.9070   26.9990  -16.9770 N.am   96  GLU96      -0.1977
     85  CA       -15.4570   27.4420  -15.7060 C.3    96  GLU96       0.1602
     86  C        -16.9340   27.8370  -15.7910 C.2    96  GLU96       0.2287
     87  O        -17.6040   27.9600  -14.7730 O.2    96  GLU96      -0.2864
     88  CB       -14.6270   28.6130  -15.1520 C.3    96  GLU96       0.0415
     89  CG       -14.8710   29.9320  -15.8670 C.3    96  GLU96       0.1163
     90  CD       -14.0860   30.0900  -17.1770 C.2    96  GLU96       0.3649
     91  OE1      -14.1930   31.1760  -17.7780 O.co2  96  GLU96      -0.2457
     92  OE2      -13.3710   29.1480  -17.6090 O.co2  96  GLU96      -0.2457
     93  N        -19.3070   26.1180  -16.6250 N.3    98  HIS98      -0.1226
     94  CA       -20.1280   24.9620  -16.2680 C.3    98  HIS98       0.1752
     95  C        -20.1320   24.6720  -14.7680 C.2    98  HIS98       0.2595
     96  O        -20.6710   23.6640  -14.3350 O.2    98  HIS98      -0.2718
     97  CB       -19.6900   23.7260  -17.0710 C.3    98  HIS98       0.0759
     98  CG       -20.0470   23.8200  -18.5200 C.ar   98  HIS98       0.0818
     99  ND1      -21.1420   23.1790  -19.0580 N.ar   98  HIS98      -0.2268
    100  CD2      -19.4970   24.5390  -19.5270 C.ar   98  HIS98       0.1154
    101  CE1      -21.2320   23.4740  -20.3420 C.ar   98  HIS98       0.1986
    102  NE2      -20.2440   24.2930  -20.6540 N.ar   98  HIS98      -0.2212
    103  N        -19.5580   25.5700  -13.9790 N.am   99  ALA99      -0.1980
    104  CA       -19.4990   25.3750  -12.5260 C.3    99  ALA99       0.1597
    105  C        -20.8670   25.4270  -11.8410 C.2    99  ALA99       0.2287
    106  O        -21.0730   24.7800  -10.8150 O.2    99  ALA99      -0.2864
    107  CB       -18.5400   26.3700  -11.8780 C.3    99  ALA99       0.0319
    108  N        -23.1620   22.2220  -12.7940 N.3   102  GLY102     -0.1225
    109  CA       -22.5230   21.0260  -12.2770 C.3   102  GLY102      0.1811
    110  C        -22.9920   20.6960  -10.8720 C.2   102  GLY102      0.2280
    111  O        -23.1320   19.5230  -10.5110 O.2   102  GLY102     -0.2866
    112  N        -22.1000   23.2230   -8.0780 N.3   104  MET104     -0.1245
    113  CA       -21.3110   24.0080   -7.1300 C.3   104  MET104      0.1570
    114  C        -22.1250   25.1420   -6.5110 C.2   104  MET104      0.2261
    115  O        -23.3020   25.3160   -6.8250 O.2   104  MET104     -0.2867
    116  CB       -20.0430   24.5730   -7.7870 C.3   104  MET104      0.0387
    117  CG       -19.1330   23.5470   -8.4660 C.3   104  MET104      0.0595
    118  SD       -18.6690   22.1100   -7.4540 S.3   104  MET104     -0.1393
    119  CE       -18.2150   22.8880   -5.8980 C.3   104  MET104      0.0692
    120  N        -16.1260   28.0950   -9.7600 N.3   106  GLY106     -0.1210
    121  CA       -14.8010   27.5350   -9.5380 C.3   106  GLY106      0.1956
    122  C        -14.6610   26.0860   -9.9900 C.2   106  GLY106      0.2612
    123  O        -15.6370   25.3280  -10.0060 O.2   106  GLY106     -0.2717
    124  N        -13.4430   25.7130  -10.3790 N.am  107  ILE107     -0.1965
    125  CA       -13.1090   24.3370  -10.7270 C.3   107  ILE107      0.1727
    126  C        -12.2170   23.7870   -9.6280 C.2   107  ILE107      0.2616
    127  O        -11.2110   24.4000   -9.2700 O.2   107  ILE107     -0.2715
    128  CB       -12.3470   24.2800  -12.0570 C.3   107  ILE107      0.0290
    129  CG1      -13.0280   25.2010  -13.0760 C.3   107  ILE107      0.0022
    130  CG2      -12.2520   22.8580  -12.5540 C.3   107  ILE107      0.0023
    131  CD1      -12.2680   25.3490  -14.3800 C.3   107  ILE107      0.0001
    132  N        -12.5800   22.6190   -9.1000 N.am  108  TYR108     -0.1960
    133  CA       -11.9580   22.1110   -7.8780 C.3   108  TYR108      0.1771
    134  C        -11.0370   20.9330   -8.1160 C.2   108  TYR108      0.2620
    135  O        -11.3720   20.0210   -8.8700 O.2   108  TYR108     -0.2715
    136  CB       -13.0330   21.6680   -6.8970 C.3   108  TYR108      0.0574
    137  CG       -13.7290   22.7970   -6.1950 C.ar  108  TYR108     -0.0198
    138  CD1      -14.5810   23.6480   -6.8890 C.ar  108  TYR108     -0.0009
    139  CD2      -13.5560   23.0030   -4.8310 C.ar  108  TYR108     -0.0009
    140  CE1      -15.2200   24.6840   -6.2500 C.ar  108  TYR108      0.0417
    141  CE2      -14.2020   24.0260   -4.1840 C.ar  108  TYR108      0.0417
    142  CZ       -15.0300   24.8680   -4.9000 C.ar  108  TYR108      0.1957
    143  OH       -15.6810   25.9110   -4.2710 O.3   108  TYR108     -0.2866
    144  N         -9.9080   20.9410   -7.4090 N.am  109  PHE109     -0.1960
    145  CA        -8.8770   19.9360   -7.5350 C.3   109  PHE109      0.1771
    146  C         -8.4450   19.5140   -6.1390 C.2   109  PHE109      0.2619
    147  O         -8.6090   20.2570   -5.1660 O.2   109  PHE109     -0.2715
    148  CB        -7.6780   20.4890   -8.3160 C.3   109  PHE109      0.0574
    149  CG        -8.0050   20.8550   -9.7240 C.ar  109  PHE109     -0.0200
    150  CD1       -8.5290   22.1040  -10.0230 C.ar  109  PHE109     -0.0042
    151  CD2       -7.8000   19.9480  -10.7540 C.ar  109  PHE109     -0.0042
    152  CE1       -8.8530   22.4490  -11.3300 C.ar  109  PHE109     -0.0003
    153  CE2       -8.1130   20.2820  -12.0730 C.ar  109  PHE109     -0.0003
    154  CZ        -8.6440   21.5350  -12.3620 C.ar  109  PHE109     -0.0000
    155  N         -7.9160   18.3040   -6.0220 N.am  110  ALA110     -0.1977
    156  CA        -7.4790   17.8450   -4.7170 C.3   110  ALA110      0.1597
    157  C         -6.0700   17.2960   -4.8140 C.2   110  ALA110      0.2287
    158  O         -5.6630   16.7860   -5.8520 O.2   110  ALA110     -0.2864
    159  CB        -8.4450   16.7750   -4.1950 C.3   110  ALA110      0.0319
    160  N         -9.8880   12.0460   -2.1700 N.3   115  LYS115     -0.1231
    161  CA       -10.8050   13.1790   -2.1090 C.3   115  LYS115      0.1693
    162  C        -11.4790   13.3790   -3.4710 C.2   115  LYS115      0.2592
    163  O        -12.6960   13.4890   -3.5460 O.2   115  LYS115     -0.2718
    164  CB       -10.0830   14.4440   -1.6330 C.3   115  LYS115      0.0285
    165  CG       -10.9160   15.7180   -1.7470 C.3   115  LYS115      0.0035
    166  CD       -12.1940   15.7040   -0.9050 C.3   115  LYS115      0.0206
    167  CE       -11.9290   15.7060    0.5870 C.3   115  LYS115      0.1093
    168  NZ       -13.2110   15.6120    1.3780 N.3   115  LYS115     -0.1314
    169  N        -10.6990   13.3690   -4.5520 N.am  116  SER116     -0.1952
    170  CA       -11.2890   13.4470   -5.8820 C.3   116  SER116      0.1924
    171  C        -12.1950   12.2380   -6.1880 C.2   116  SER116      0.2314
    172  O        -13.2410   12.3810   -6.8230 O.2   116  SER116     -0.2863
    173  CB       -10.2150   13.6610   -6.9420 C.3   116  SER116      0.2116
    174  OG        -9.7730   15.0270   -6.8950 O.3   116  SER116     -0.2180
    175  N        -15.9150   12.4420   -5.6210 N.3   119  TYR119     -0.1241
    176  CA       -16.7130   13.3220   -6.4720 C.3   119  TYR119      0.1605
    177  C        -16.9420   12.7770   -7.8710 C.2   119  TYR119      0.2264
    178  O        -17.6510   13.3830   -8.6670 O.2   119  TYR119     -0.2867
    179  CB       -16.0850   14.7280   -6.5430 C.3   119  TYR119      0.0534
    180  CG       -16.2030   15.4740   -5.2260 C.ar  119  TYR119     -0.0201
    181  CD1      -17.3400   16.2170   -4.9240 C.ar  119  TYR119     -0.0009
    182  CD2      -15.1910   15.4150   -4.2770 C.ar  119  TYR119     -0.0009
    183  CE1      -17.4630   16.8800   -3.7140 C.ar  119  TYR119      0.0417
    184  CE2      -15.3080   16.0860   -3.0570 C.ar  119  TYR119      0.0417
    185  CZ       -16.4410   16.8130   -2.7840 C.ar  119  TYR119      0.1957
    186  OH       -16.5560   17.4730   -1.5730 O.3   119  TYR119     -0.2866
    187  N        -20.4990   12.3890   -8.5860 N.3   122  GLY122     -0.1210
    188  CA       -21.3060   13.5620   -8.2750 C.3   122  GLY122      0.1956
    189  C        -20.9560   14.1210   -6.9170 C.2   122  GLY122      0.2611
    190  O        -20.0650   13.6030   -6.2330 O.2   122  GLY122     -0.2717
    191  N        -21.6400   15.1960   -6.5350 N.am  123  ILE123     -0.1979
    192  CA       -21.5090   15.7420   -5.1980 C.3   123  ILE123      0.1595
    193  C        -21.9850   14.7250   -4.1640 C.2   123  ILE123      0.2287
    194  O        -23.1290   14.2680   -4.2130 O.2   123  ILE123     -0.2864
    195  CB       -22.3370   17.0210   -5.0510 C.3   123  ILE123      0.0276
    196  CG1      -21.8590   18.0710   -6.0590 C.3   123  ILE123      0.0022
    197  CG2      -22.2500   17.5520   -3.6310 C.3   123  ILE123      0.0022
    198  CD1      -20.4520   18.5570   -5.8230 C.3   123  ILE123      0.0001
    199  N        -13.8770   26.3310    4.0300 N.3   160  THR160     -0.1218
    200  CA       -14.2540   25.8230    2.7190 C.3   160  THR160      0.1862
    201  C        -14.3310   26.9800    1.7370 C.2   160  THR160      0.2287
    202  O        -14.8430   28.0550    2.0600 O.2   160  THR160     -0.2866
    203  CB       -15.6030   25.0930    2.7430 C.3   160  THR160      0.1770
    204  OG1      -15.5980   24.1150    3.7880 O.3   160  THR160     -0.2211
    205  CG2      -15.8510   24.4020    1.4120 C.3   160  THR160      0.0375
    206  N         -8.1550   21.5570   -0.6320 N.3   186  GLU186     -0.1245
    207  CA        -8.8610   21.6650   -1.8930 C.3   186  GLU186      0.1567
    208  C         -8.3090   22.9010   -2.5830 C.2   186  GLU186      0.2260
    209  O         -7.9590   23.8930   -1.9220 O.2   186  GLU186     -0.2867
    210  CB       -10.3650   21.7930   -1.6540 C.3   186  GLU186      0.0388
    211  CG       -10.7670   22.9730   -0.7680 C.3   186  GLU186      0.1160
    212  CD       -12.1830   22.8360   -0.2240 C.2   186  GLU186      0.3649
    213  OE1      -12.5780   21.6990    0.1210 O.co2 186  GLU186     -0.2457
    214  OE2      -12.9000   23.8600   -0.1460 O.co2 186  GLU186     -0.2457
@<TRIPOS>BOND
     1    59    58    1
     2    59    60    1
     3    58    57    1
     4    57    56    1
     5    53    52    1
     6    53    56    1
     7    53    54    1
     8    55    54    2
     9    54    61   am
    10    61    62    1
    11    42    41    2
    12    62    63    1
    13    40    41    1
    14    40    39    1
    15    40    43    1
    16    41    44   am
    17    83    81   ar
    18    47    46    2
    19    46    45    1
    20    64    63    2
    21    63    65   am
    22   102   101   ar
    23   102   100   ar
    24    81    80    1
    25    81    82   ar
    26    44    45    1
    27   101    99   ar
    28    45    48    1
    29    80    77    1
    30    68    67    2
    31    65    66    1
    32   100    98   ar
    33    99    98   ar
    34    67    66    1
    35    67    76   am
    36    77    76    1
    37    77    78    1
    38    48    50    1
    39    48    49    1
    40    66    69    1
    41    98    97    1
    42    31    30    2
    43    49    51    1
    44    91    90   ar
    45    92    90   ar
    46    78    79    2
    47    78    84   am
    48    69    70    1
    49    30    29    1
    50    90    89    1
    51    97    94    1
    52    84    85    1
    53    72    70   ar
    54    72    74   ar
    55    29    32    1
    56    29    28    1
    57    70    71   ar
    58    93    94    1
    59    32    33    1
    60    94    95    1
    61    24    23    2
    62    74    75   ar
    63    34    33   ar
    64    34    36   ar
    65    89    88    1
    66    86    85    1
    67    86    87    2
    68    71    73   ar
    69    85    88    1
    70    33    35   ar
    71    28    23   am
    72    36    38   ar
    73    75    73   ar
    74    23    22    1
    75    95    96    2
    76    95   103   am
    77    35    37   ar
    78   131   129    1
    79    38    37   ar
    80   103   104    1
    81    22    25    1
    82    22    21    1
    83    25    26    1
    84    18    17    2
    85    20    19    1
    86   129   128    1
    87     8    10   ar
    88     8     6   ar
    89   108   109    1
    90    21    17   am
    91    21    27    1
    92    10     9   ar
    93    17    16    1
    94   130   128    1
    95   104   107    1
    96   104   105    1
    97   154   153   ar
    98   154   152   ar
    99   109   110    1
   100   153   151   ar
   101    26    27    1
   102   128   125    1
   103     6     5    1
   104     6     7   ar
   105    19    16    1
   106   105   106    2
   107     9     7   ar
   108     5     2    1
   109     4     3    2
   110    16    15    1
   111    15    13   am
   112   152   150   ar
   113   110   111    2
   114   151   149   ar
   115   125   124    1
   116   125   126    1
   117     3     2    1
   118     3    11   am
   119     2     1    1
   120   124   122   am
   121    13    12    1
   122    13    14    2
   123    12    11    1
   124   150   149   ar
   125   123   122    2
   126   122   121    1
   127   120   121    1
   128   149   148    1
   129   126   127    2
   130   126   132   am
   131   132   133    1
   132   135   134    2
   133   178   177    2
   134   187   188    1
   135   117   116    1
   136   117   118    1
   137   148   145    1
   138   188   189    1
   139   134   133    1
   140   134   144   am
   141   112   113    1
   142   133   136    1
   143   177   176    1
   144   116   113    1
   145   145   144    1
   146   145   146    1
   147   118   119    1
   148   113   114    1
   149   173   174    1
   150   173   170    1
   151   189   191   am
   152   189   190    2
   153   136   137    1
   154   138   140   ar
   155   138   137   ar
   156   115   114    2
   157   172   171    2
   158   179   176    1
   159   179   180    1
   160   191   192    1
   161   176   175    1
   162   140   142   ar
   163   137   139   ar
   164   171   170    1
   165   146   155   am
   166   146   147    2
   167   196   198    1
   168   196   195    1
   169   155   156    1
   170   170   169    1
   171   158   157    2
   172   180   181   ar
   173   180   182   ar
   174   192   195    1
   175   192   193    1
   176   195   197    1
   177   181   183   ar
   178   142   143    1
   179   142   141   ar
   180   139   141   ar
   181   157   156    1
   182   156   159    1
   183   169   162   am
   184   182   184   ar
   185   194   193    2
   186   183   185   ar
   187   163   162    2
   188   162   161    1
   189   184   185   ar
   190   185   186    1
   191   208   209    2
   192   208   207    1
   193   160   161    1
   194   161   164    1
   195   207   210    1
   196   207   206    1
   197   165   164    1
   198   165   166    1
   199   210   211    1
   200   166   167    1
   201   211   212    1
   202   212   214   ar
   203   212   213   ar
   204   167   168    1
   205   205   203    1
   206   201   202    2
   207   201   200    1
   208   200   203    1
   209   200   199    1
   210   203   204    1
