@<TRIPOS>MOLECULE
tmp/4totD01.pdb
 149 143 0 0 0
SMALL
GASTEIGER

@<TRIPOS>ATOM
      1  N         -5.7920   14.2240   52.5790 N.3    54  ARG54      -0.1245
      2  CA        -6.5810   14.0750   51.3630 C.3    54  ARG54       0.1563
      3  C         -6.3000   12.7040   50.7810 C.2    54  ARG54       0.2260
      4  O         -5.1610   12.4070   50.4420 O.2    54  ARG54      -0.2867
      5  CB        -6.2120   15.2000   50.3710 C.3    54  ARG54       0.0307
      6  CG        -7.0900   15.3140   49.1340 C.3    54  ARG54       0.0489
      7  CD        -6.8650   16.6620   48.4600 C.3    54  ARG54       0.2205
      8  NE        -7.4750   16.7480   47.1300 N.pl3  54  ARG54      -0.0865
      9  CZ        -6.8400   16.4590   45.9930 C.cat  54  ARG54       0.5346
     10  NH1       -5.5760   16.0510   46.0140 N.pl3  54  ARG54       0.1354
     11  NH2       -7.4690   16.5610   44.8280 N.pl3  54  ARG54       0.1354
     12  N         -7.9740   10.0380   47.9130 N.3    56  ILE56      -0.1245
     13  CA        -8.9760    9.8150   46.8700 C.3    56  ILE56       0.1561
     14  C         -8.8290    8.3980   46.3010 C.2    56  ILE56       0.2260
     15  O         -7.8160    8.1150   45.6530 O.2    56  ILE56      -0.2867
     16  CB        -8.9920   10.9220   45.7740 C.3    56  ILE56       0.0252
     17  CG1       -9.2740   12.3060   46.3970 C.3    56  ILE56       0.0019
     18  CG2      -10.0190   10.5890   44.6590 C.3    56  ILE56       0.0019
     19  CD1       -9.0320   13.5010   45.5020 C.3    56  ILE56       0.0001
     20  N         -8.7820    5.1810   43.9540 N.3    58  ALA58      -0.1231
     21  CA        -8.4300    4.9650   42.5420 C.3    58  ALA58       0.1694
     22  C         -7.6110    6.1300   41.9560 C.2    58  ALA58       0.2592
     23  O         -7.6690    6.3830   40.7490 O.2    58  ALA58      -0.2718
     24  CB        -9.6860    4.6910   41.7180 C.3    58  ALA58       0.0304
     25  N         -6.8410    6.8330   42.8250 N.am   59  PHE59      -0.1962
     26  CA        -6.0200    7.9820   42.4380 C.3    59  PHE59       0.1771
     27  C         -4.7120    8.0640   43.2500 C.2    59  PHE59       0.2619
     28  O         -3.6410    7.7090   42.7340 O.2    59  PHE59      -0.2715
     29  CB        -6.8440    9.3050   42.4820 C.3    59  PHE59       0.0574
     30  CG        -6.0940   10.6010   42.2380 C.ar   59  PHE59      -0.0200
     31  CD1       -5.0490   10.6650   41.3110 C.ar   59  PHE59      -0.0042
     32  CD2       -6.4530   11.7710   42.9110 C.ar   59  PHE59      -0.0042
     33  CE1       -4.3290   11.8500   41.1170 C.ar   59  PHE59      -0.0003
     34  CE2       -5.7560   12.9680   42.6890 C.ar   59  PHE59      -0.0003
     35  CZ        -4.6890   12.9930   41.8050 C.ar   59  PHE59      -0.0000
     36  N         -4.7950    8.5760   44.4890 N.am   60  MET60      -0.1977
     37  CA        -3.6370    8.7520   45.3740 C.3    60  MET60       0.1605
     38  C         -4.0320    8.9880   46.8290 C.2    60  MET60       0.2287
     39  O         -5.2010    9.2330   47.1300 O.2    60  MET60      -0.2864
     40  CB        -2.7020    9.8870   44.8670 C.3    60  MET60       0.0413
     41  CG        -3.3560   11.2510   44.8050 C.3    60  MET60       0.0598
     42  SD        -3.4190   12.1540   46.3740 S.3    60  MET60      -0.1393
     43  CE        -5.1120   12.6110   46.4100 C.3    60  MET60       0.0692
     44  N         -2.5860   11.5580   49.8370 N.3    62  GLN62      -0.1245
     45  CA        -1.7720   12.7640   50.0320 C.3    62  GLN62       0.1566
     46  C         -1.5380   13.0910   51.5110 C.2    62  GLN62       0.2260
     47  O         -2.4870   13.1550   52.2950 O.2    62  GLN62      -0.2867
     48  CB        -2.4220   13.9690   49.3130 C.3    62  GLN62       0.0367
     49  CG        -1.6350   15.2740   49.3760 C.3    62  GLN62       0.0905
     50  CD        -2.3730   16.4430   48.7540 C.2    62  GLN62       0.2608
     51  OE1       -3.4030   16.2950   48.0900 O.2    62  GLN62      -0.2717
     52  NE2       -1.7930   17.6290   48.8570 N.am   62  GLN62      -0.0878
     53  N         -2.8640   23.4940   53.3040 N.3    72  THR72      -0.1218
     54  CA        -2.4410   24.8960   53.2410 C.3    72  THR72       0.1862
     55  C         -0.9950   25.1180   53.7060 C.2    72  THR72       0.2287
     56  O         -0.4410   26.1880   53.4300 O.2    72  THR72      -0.2866
     57  CB        -3.4150   25.8340   53.9930 C.3    72  THR72       0.1770
     58  OG1       -3.3540   25.5690   55.3850 O.3    72  THR72      -0.2211
     59  CG2       -4.8430   25.7230   53.5130 C.3    72  THR72       0.0375
     60  N          3.5590   16.8530   45.7460 N.3   100  ALA100     -0.1231
     61  CA         2.3820   17.6890   45.5810 C.3   100  ALA100      0.1694
     62  C          2.9350   19.1160   45.4850 C.2   100  ALA100      0.2592
     63  O          4.0600   19.3550   45.9530 O.2   100  ALA100     -0.2718
     64  CB         1.4970   17.5670   46.8110 C.3   100  ALA100      0.0304
     65  N          2.1900   20.0610   44.8710 N.am  101  ASN101     -0.1960
     66  CA         2.6870   21.4380   44.7360 C.3   101  ASN101      0.1819
     67  C          1.5690   22.4530   44.5250 C.2   101  ASN101      0.2621
     68  O          0.4170   22.0660   44.4700 O.2   101  ASN101     -0.2715
     69  CB         3.7580   21.5290   43.6150 C.3   101  ASN101      0.1195
     70  CG         3.3190   21.0890   42.2420 C.2   101  ASN101      0.2630
     71  OD1        2.2670   21.4790   41.7210 O.2   101  ASN101     -0.2716
     72  ND2        4.1680   20.3250   41.5900 N.am  101  ASN101     -0.0877
     73  N          1.9000   23.7400   44.3980 N.am  102  ALA102     -0.1963
     74  CA         0.9220   24.7820   44.0820 C.3   102  ALA102      0.1728
     75  C          1.3920   25.4910   42.7940 C.2   102  ALA102      0.2616
     76  O          1.3750   26.7190   42.6890 O.2   102  ALA102     -0.2715
     77  CB         0.7880   25.7620   45.2410 C.3   102  ALA102      0.0334
     78  N          1.8290   24.6830   41.8350 N.am  103  GLY103     -0.1955
     79  CA         2.3430   25.1460   40.5510 C.3   103  GLY103      0.1869
     80  C          3.8420   24.9360   40.3930 C.2   103  GLY103      0.2309
     81  O          4.4700   24.3170   41.2610 O.2   103  GLY103     -0.2863
     82  N          7.2430   25.0200   43.4960 N.3   106  THR106     -0.1218
     83  CA         6.6050   25.2750   44.7900 C.3   106  THR106      0.1862
     84  C          6.5770   23.9890   45.6140 C.2   106  THR106      0.2287
     85  O          5.5500   23.6470   46.2040 O.2   106  THR106     -0.2866
     86  CB         5.1900   25.8620   44.6080 C.3   106  THR106      0.1770
     87  OG1        4.3900   24.9200   43.8960 O.3   106  THR106     -0.2211
     88  CG2        5.1780   27.2110   43.9130 C.3   106  THR106      0.0375
     89  N          4.7040   18.4200   51.1500 N.3   110  GLN110     -0.1245
     90  CA         3.5470   17.6420   50.7300 C.3   110  GLN110      0.1566
     91  C          3.8600   16.7190   49.5770 C.2   110  GLN110      0.2260
     92  O          4.4260   17.1250   48.5620 O.2   110  GLN110     -0.2867
     93  CB         2.3430   18.5320   50.4430 C.3   110  GLN110      0.0367
     94  CG         1.6590   18.9830   51.7200 C.3   110  GLN110      0.0905
     95  CD         0.4410   19.8040   51.4260 C.2   110  GLN110      0.2608
     96  OE1       -0.5580   19.3170   50.8810 O.2   110  GLN110     -0.2717
     97  NE2        0.4830   21.0630   51.8150 N.am  110  GLN110     -0.0878
     98  N          2.5430   12.6630   47.7140 N.3   112  PHE112     -0.1241
     99  CA         1.5010   11.6910   47.4750 C.3   112  PHE112      0.1605
    100  C          2.1020   10.3540   47.0370 C.2   112  PHE112      0.2264
    101  O          3.2150   10.3110   46.5020 O.2   112  PHE112     -0.2867
    102  CB         0.4190   12.2140   46.5070 C.3   112  PHE112      0.0534
    103  CG         0.8560   12.5160   45.0940 C.ar  112  PHE112     -0.0203
    104  CD1        1.4430   13.7380   44.7750 C.ar  112  PHE112     -0.0042
    105  CD2        0.6040   11.6130   44.0620 C.ar  112  PHE112     -0.0042
    106  CE1        1.7890   14.0430   43.4550 C.ar  112  PHE112     -0.0003
    107  CE2        0.9650   11.9140   42.7480 C.ar  112  PHE112     -0.0003
    108  CZ         1.5400   13.1320   42.4500 C.ar  112  PHE112     -0.0000
    109  N         -1.0950   11.8000   33.6390 N.3   120  TRP120     -0.1227
    110  CA        -1.5150   13.1670   33.3160 C.3   120  TRP120      0.1737
    111  C         -0.7340   14.1890   34.1760 C.2   120  TRP120      0.2595
    112  O         -0.7730   15.3840   33.8840 O.2   120  TRP120     -0.2718
    113  CB        -3.0310   13.3460   33.4980 C.3   120  TRP120      0.0564
    114  CG        -3.5430   13.0390   34.8740 C.ar  120  TRP120      0.0003
    115  CD1       -3.7400   13.9270   35.8910 C.ar  120  TRP120      0.0946
    116  CD2       -3.9410   11.7560   35.3750 C.ar  120  TRP120      0.0152
    117  NE1       -4.2020   13.2680   37.0120 N.ar  120  TRP120     -0.2442
    118  CE2       -4.3570   11.9370   36.7150 C.ar  120  TRP120      0.0810
    119  CE3       -4.0100   10.4690   34.8150 C.ar  120  TRP120      0.0012
    120  CZ2       -4.8130   10.8770   37.5100 C.ar  120  TRP120      0.0191
    121  CZ3       -4.4660    9.4180   35.6030 C.ar  120  TRP120      0.0001
    122  CH2       -4.8510    9.6250   36.9330 C.ar  120  TRP120      0.0015
    123  N          0.0050   13.7030   35.2110 N.am  121  LEU121     -0.1980
    124  CA         0.8020   14.5280   36.1200 C.3   121  LEU121      0.1596
    125  C          2.2750   14.6420   35.7090 C.2   121  LEU121      0.2287
    126  O          3.0080   15.4420   36.2990 O.2   121  LEU121     -0.2864
    127  CB         0.6700   14.0460   37.5890 C.3   121  LEU121      0.0297
    128  CG        -0.7380   14.0020   38.2000 C.3   121  LEU121      0.0022
    129  CD1       -0.6860   13.4960   39.6180 C.3   121  LEU121      0.0001
    130  CD2       -1.4090   15.3720   38.1600 C.3   121  LEU121      0.0001
    131  N          4.7070   17.9140   35.5290 N.3   124  LYS124     -0.1231
    132  CA         4.1430   18.9050   36.4540 C.3   124  LYS124      0.1693
    133  C          4.5190   18.6120   37.9140 C.2   124  LYS124      0.2592
    134  O          4.7020   19.5460   38.6950 O.2   124  LYS124     -0.2718
    135  CB         2.6120   19.0070   36.3000 C.3   124  LYS124      0.0285
    136  CG         2.1440   19.5490   34.9430 C.3   124  LYS124      0.0035
    137  CD         0.8540   20.3720   35.0590 C.3   124  LYS124      0.0206
    138  CE        -0.4220   19.5460   35.0550 C.3   124  LYS124      0.1093
    139  NZ        -1.6100   20.3500   35.4700 N.3   124  LYS124     -0.1314
    140  N          4.6420   17.3160   38.2690 N.am  125  HIS125     -0.1976
    141  CA         4.9960   16.8610   39.6140 C.3   125  HIS125      0.1656
    142  C          6.2670   16.0440   39.5850 C.2   125  HIS125      0.2291
    143  O          6.4840   15.2970   38.6350 O.2   125  HIS125     -0.2864
    144  CB         3.8310   16.0970   40.2660 C.3   125  HIS125      0.0771
    145  CG         2.6130   16.9570   40.4290 C.ar  125  HIS125      0.0820
    146  ND1        2.4200   17.7280   41.5650 N.ar  125  HIS125     -0.2267
    147  CD2        1.6050   17.2080   39.5590 C.ar  125  HIS125      0.1154
    148  CE1        1.2980   18.4030   41.3580 C.ar  125  HIS125      0.1986
    149  NE2        0.7730   18.1240   40.1640 N.ar  125  HIS125     -0.2212
@<TRIPOS>BOND
     1   110   113    1
     2   110   109    1
     3   110   111    1
     4   113   114    1
     5   112   111    2
     6   111   123   am
     7   119   116   ar
     8   119   121   ar
     9   114   116   ar
    10   114   115   ar
    11   136   137    1
    12   136   135    1
    13   138   137    1
    14   138   139    1
    15   123   124    1
    16   116   118   ar
    17   131   132    1
    18   121   122   ar
    19   125   124    1
    20   125   126    2
    21   115   117   ar
    22   124   127    1
    23   135   132    1
    24   132   133    1
    25   118   117   ar
    26   118   120   ar
    27   122   120   ar
    28   127   128    1
    29   133   140   am
    30   133   134    2
    31   130   128    1
    32   128   129    1
    33   140   141    1
    34   143   142    2
    35   147   149   ar
    36   147   145   ar
    37   142   141    1
    38   141   144    1
    39   149   148   ar
    40   144   145    1
    41    80    79    1
    42    80    81    2
    43   145   146   ar
    44    79    78    1
    45    23    22    2
    46    33    31   ar
    47    33    35   ar
    48    31    30   ar
    49   148   146   ar
    50    72    70   am
    51    24    21    1
    52    71    70    2
    53    35    34   ar
    54    78    75   am
    55    22    21    1
    56    22    25   am
    57    30    29    1
    58    30    32   ar
    59    70    69    1
    60    26    29    1
    61    26    25    1
    62    26    27    1
    63   108   107   ar
    64   108   106   ar
    65    21    20    1
    66    76    75    2
    67    34    32   ar
    68    28    27    2
    69   107   105   ar
    70    75    74    1
    71    27    36   am
    72   106   104   ar
    73    82    83    1
    74    69    66    1
    75    87    86    1
    76    88    86    1
    77   105   103   ar
    78    74    73    1
    79    74    77    1
    80    73    67   am
    81    68    67    2
    82    36    37    1
    83    67    66    1
    84    86    83    1
    85    18    16    1
    86    66    65    1
    87   104   103   ar
    88    83    84    1
    89    41    40    1
    90    41    42    1
    91    11     9    1
    92    40    37    1
    93    65    62   am
    94   103   102    1
    95    37    38    1
    96    62    61    1
    97    62    63    2
    98    19    17    1
    99    61    60    1
   100    61    64    1
   101    84    85    2
   102    15    14    2
   103    16    17    1
   104    16    13    1
   105     9    10    1
   106     9     8    2
   107    14    13    1
   108    42    43    1
   109   101   100    2
   110   102    99    1
   111    38    39    2
   112    13    12    1
   113   100    99    1
   114     8     7    1
   115    99    98    1
   116    51    50    2
   117     7     6    1
   118    92    91    2
   119    50    52   am
   120    50    49    1
   121     6     5    1
   122    48    49    1
   123    48    45    1
   124    91    90    1
   125    44    45    1
   126    45    46    1
   127     5     2    1
   128     4     3    2
   129    93    90    1
   130    93    94    1
   131    90    89    1
   132     3     2    1
   133    96    95    2
   134     2     1    1
   135    95    94    1
   136    95    97   am
   137    46    47    2
   138    54    53    1
   139    54    55    1
   140    54    57    1
   141    56    55    2
   142    59    57    1
   143    57    58    1
