@<TRIPOS>MOLECULE
tmp/4tpgB00.pdb
 116 117 0 0 0
SMALL
GASTEIGER

@<TRIPOS>ATOM
      1  N         51.0490  169.9930  226.6430 N.3   145  THR145     -0.1203
      2  CA        52.0580  169.0820  227.1720 C.3   145  THR145      0.1994
      3  C         53.2850  169.8890  227.5580 C.2   145  THR145      0.2617
      4  O         53.8050  169.7730  228.6750 O.2   145  THR145     -0.2717
      5  CB        52.4560  168.0000  226.1470 C.3   145  THR145      0.1784
      6  OG1       51.4510  166.9820  226.1010 O.3   145  THR145     -0.2211
      7  CG2       53.7910  167.3690  226.5200 C.3   145  THR145      0.0376
      8  N         53.7300  170.7150  226.6150 N.am  146  PHE146     -0.1975
      9  CA        54.9100  171.5470  226.8000 C.3   146  PHE146      0.1639
     10  C         54.7830  172.4240  228.0370 C.2   146  PHE146      0.2290
     11  O         55.7170  172.5320  228.8320 O.2   146  PHE146     -0.2864
     12  CB        55.1410  172.4150  225.5640 C.3   146  PHE146      0.0560
     13  CG        56.4170  173.1960  225.6040 C.ar  146  PHE146     -0.0200
     14  CD1       57.6220  172.5680  225.8670 C.ar  146  PHE146     -0.0042
     15  CD2       56.4130  174.5620  225.3800 C.ar  146  PHE146     -0.0042
     16  CE1       58.8020  173.2910  225.9050 C.ar  146  PHE146     -0.0003
     17  CE2       57.5870  175.2890  225.4160 C.ar  146  PHE146     -0.0003
     18  CZ        58.7830  174.6530  225.6780 C.ar  146  PHE146     -0.0000
     19  N         54.4780  170.5130  231.4350 N.3   149  LEU149     -0.1231
     20  CA        55.7750  169.9670  231.8100 C.3   149  LEU149      0.1693
     21  C         56.7550  171.0700  232.2090 C.2   149  LEU149      0.2591
     22  O         57.6320  170.8540  233.0470 O.2   149  LEU149     -0.2718
     23  CB        56.3490  169.1290  230.6690 C.3   149  LEU149      0.0284
     24  CG        55.9310  167.6580  230.7030 C.3   149  LEU149      0.0019
     25  CD1       56.5250  166.8880  229.5350 C.3   149  LEU149      0.0001
     26  CD2       56.3280  167.0260  232.0270 C.3   149  LEU149      0.0001
     27  N         56.6040  172.2510  231.6120 N.am  150  LEU150     -0.1980
     28  CA        57.5610  173.3340  231.8360 C.3   150  LEU150      0.1596
     29  C         57.2860  174.1600  233.0960 C.2   150  LEU150      0.2287
     30  O         58.1540  174.2870  233.9570 O.2   150  LEU150     -0.2864
     31  CB        57.6000  174.2680  230.6260 C.3   150  LEU150      0.0297
     32  CG        58.7240  175.3050  230.6730 C.3   150  LEU150      0.0022
     33  CD1       60.0760  174.6130  230.6160 C.3   150  LEU150      0.0001
     34  CD2       58.5870  176.3250  229.5530 C.3   150  LEU150      0.0001
     35  N         58.0830  173.2380  236.7880 N.3   153  TRP153     -0.1241
     36  CA        59.5210  173.2060  236.9930 C.3   153  TRP153      0.1605
     37  C         60.0580  174.6080  237.2470 C.2   153  TRP153      0.2264
     38  O         60.9950  174.7880  238.0250 O.2   153  TRP153     -0.2867
     39  CB        60.2310  172.5790  235.7950 C.3   153  TRP153      0.0550
     40  CG        61.7150  172.5520  235.9560 C.ar  153  TRP153      0.0003
     41  CD1       62.4540  171.6060  236.6020 C.ar  153  TRP153      0.0946
     42  CD2       62.6430  173.5300  235.4760 C.ar  153  TRP153      0.0152
     43  NE1       63.7890  171.9300  236.5470 N.ar  153  TRP153     -0.2442
     44  CE2       63.9300  173.1080  235.8610 C.ar  153  TRP153      0.0810
     45  CE3       62.5110  174.7200  234.7550 C.ar  153  TRP153      0.0012
     46  CZ2       65.0770  173.8340  235.5490 C.ar  153  TRP153      0.0191
     47  CZ3       63.6490  175.4380  234.4460 C.ar  153  TRP153      0.0001
     48  CH2       64.9150  174.9940  234.8420 C.ar  153  TRP153      0.0015
     49  N         59.2370  175.3730  240.8880 N.3   156  ASP156     -0.1239
     50  CA        60.1830  174.7320  241.7930 C.3   156  ASP156      0.1674
     51  C         61.5470  175.4080  241.7390 C.2   156  ASP156      0.2266
     52  O         62.1450  175.6930  242.7770 O.2   156  ASP156     -0.2867
     53  CB        60.3290  173.2450  241.4610 C.3   156  ASP156      0.1410
     54  CG        59.1680  172.4130  241.9700 C.2   156  ASP156      0.3668
     55  OD1       58.5330  172.8100  242.9690 O.co2 156  ASP156     -0.2456
     56  OD2       58.8980  171.3520  241.3730 O.co2 156  ASP156     -0.2456
     57  N         66.4130  155.0640  237.9410 N.3   303  HIS303     -0.1241
     58  CA        65.9180  156.1700  238.7680 C.3   303  HIS303      0.1621
     59  C         65.2000  157.3290  238.0630 C.2   303  HIS303      0.2264
     60  O         64.2940  157.9260  238.6410 O.2   303  HIS303     -0.2867
     61  CB        67.0790  156.7490  239.5850 C.3   303  HIS303      0.0745
     62  CG        66.7630  158.0630  240.2300 C.ar  303  HIS303      0.0817
     63  ND1       66.9790  159.2750  239.6020 N.ar  303  HIS303     -0.2268
     64  CD2       66.2220  158.3580  241.4330 C.ar  303  HIS303      0.1154
     65  CE1       66.5990  160.2530  240.3990 C.ar  303  HIS303      0.1986
     66  NE2       66.1340  159.7270  241.5190 N.ar  303  HIS303     -0.2212
     67  N         62.9820  160.0630  236.3360 N.3   305  TRP305     -0.1227
     68  CA        63.6620  161.1310  237.0670 C.3   305  TRP305      0.1737
     69  C         62.9550  161.3800  238.4080 C.2   305  TRP305      0.2596
     70  O         62.7330  160.4370  239.1680 O.2   305  TRP305     -0.2718
     71  CB        63.7600  162.4140  236.2160 C.3   305  TRP305      0.0564
     72  CG        62.4650  163.1060  235.8060 C.ar  305  TRP305      0.0003
     73  CD1       61.9320  164.2370  236.3610 C.ar  305  TRP305      0.0946
     74  CD2       61.5940  162.7490  234.7230 C.ar  305  TRP305      0.0152
     75  NE1       60.7710  164.5830  235.7160 N.ar  305  TRP305     -0.2442
     76  CE2       60.5420  163.6890  234.7050 C.ar  305  TRP305      0.0810
     77  CE3       61.5920  161.7190  233.7770 C.ar  305  TRP305      0.0012
     78  CZ2       59.5020  163.6290  233.7790 C.ar  305  TRP305      0.0191
     79  CZ3       60.5560  161.6630  232.8590 C.ar  305  TRP305      0.0001
     80  CH2       59.5270  162.6110  232.8670 C.ar  305  TRP305      0.0015
     81  N         62.5950  162.6270  238.6990 N.am  306  THR306     -0.1939
     82  CA        61.8440  162.9520  239.9110 C.3   306  THR306      0.2028
     83  C         60.7290  163.9420  239.5930 C.2   306  THR306      0.2642
     84  O         60.9890  165.0850  239.2130 O.2   306  THR306     -0.2714
     85  CB        62.7410  163.5530  241.0110 C.3   306  THR306      0.1808
     86  OG1       63.4360  164.6920  240.4930 O.3   306  THR306     -0.2208
     87  CG2       63.7480  162.5270  241.5180 C.3   306  THR306      0.0379
     88  N         59.4880  163.4960  239.7480 N.am  307  TRP307     -0.1959
     89  CA        58.3280  164.3070  239.3940 C.3   307  TRP307      0.1771
     90  C         58.1620  165.5590  240.2500 C.2   307  TRP307      0.2620
     91  O         58.6440  165.6320  241.3820 O.2   307  TRP307     -0.2715
     92  CB        57.0470  163.4740  239.4940 C.3   307  TRP307      0.0590
     93  CG        56.8720  162.4560  238.4090 C.ar  307  TRP307      0.0006
     94  CD1       57.1190  161.1190  238.4940 C.ar  307  TRP307      0.0946
     95  CD2       56.4140  162.6960  237.0710 C.ar  307  TRP307      0.0152
     96  NE1       56.8350  160.5100  237.2940 N.ar  307  TRP307     -0.2442
     97  CE2       56.4040  161.4570  236.4030 C.ar  307  TRP307      0.0810
     98  CE3       56.0110  163.8390  236.3740 C.ar  307  TRP307      0.0012
     99  CZ2       56.0080  161.3270  235.0740 C.ar  307  TRP307      0.0191
    100  CZ3       55.6180  163.7070  235.0530 C.ar  307  TRP307      0.0001
    101  CH2       55.6200  162.4610  234.4180 C.ar  307  TRP307      0.0015
    102  N         57.4750  166.5430  239.6810 N.am  308  SER308     -0.1950
    103  CA        56.8810  167.6290  240.4420 C.3   308  SER308      0.1924
    104  C         55.3750  167.4850  240.2900 C.2   308  SER308      0.2314
    105  O         54.8650  167.5700  239.1760 O.2   308  SER308     -0.2863
    106  CB        57.3600  168.9910  239.9420 C.3   308  SER308      0.2116
    107  OG        56.6700  170.0470  240.5890 O.3   308  SER308     -0.2180
    108  N         53.0860  168.1300  237.4060 N.3   311  GLN311     -0.1245
    109  CA        53.5100  167.5580  236.1330 C.3   311  GLN311      0.1566
    110  C         52.8230  166.2300  235.8440 C.2   311  GLN311      0.2260
    111  O         52.8450  165.7590  234.7080 O.2   311  GLN311     -0.2867
    112  CB        55.0280  167.3610  236.1060 C.3   311  GLN311      0.0367
    113  CG        55.8340  168.6470  236.1740 C.3   311  GLN311      0.0905
    114  CD        57.3280  168.3920  236.1630 C.2   311  GLN311      0.2608
    115  OE1       57.8370  167.5700  236.9270 O.2   311  GLN311     -0.2717
    116  NE2       58.0410  169.0980  235.2930 N.am  311  GLN311     -0.0878
@<TRIPOS>BOND
     1    15    17   ar
     2    15    13   ar
     3    17    18   ar
     4    12    13    1
     5    12     9    1
     6    13    14   ar
     7    18    16   ar
     8    14    16   ar
     9     6     5    1
    10     5     7    1
    11     5     2    1
    12     8     9    1
    13     8     3   am
    14     1     2    1
    15     9    10    1
    16     2     3    1
    17     3     4    2
    18    10    11    2
    19    25    24    1
    20    34    32    1
    21    33    32    1
    22    31    32    1
    23    31    28    1
    24    23    24    1
    25    23    20    1
    26    24    26    1
    27    19    20    1
    28    27    28    1
    29    27    21   am
    30    20    21    1
    31    28    29    1
    32    21    22    2
    33    79    80   ar
    34    79    77   ar
    35    80    78   ar
    36    29    30    2
    37    77    74   ar
    38    78    76   ar
    39   101   100   ar
    40   101    99   ar
    41    47    45   ar
    42    47    48   ar
    43    76    74   ar
    44    76    75   ar
    45   111   110    2
    46    74    72   ar
    47    45    42   ar
    48    48    46   ar
    49   100    98   ar
    50    99    97   ar
    51   116   114   am
    52    42    44   ar
    53    42    40   ar
    54    46    44   ar
    55    75    73   ar
    56    39    40    1
    57    39    36    1
    58    72    71    1
    59    72    73   ar
    60   110   109    1
    61    44    43   ar
    62    40    41   ar
    63   112   109    1
    64   112   113    1
    65   109   108    1
    66   114   113    1
    67   114   115    2
    68    71    68    1
    69    67    68    1
    70    98    95   ar
    71    97    95   ar
    72    97    96   ar
    73    43    41   ar
    74    35    36    1
    75    36    37    1
    76    68    69    1
    77    95    93   ar
    78    37    38    2
    79    96    94   ar
    80    57    58    1
    81    59    60    2
    82    59    58    1
    83    69    81   am
    84    69    70    2
    85    93    94   ar
    86    93    92    1
    87    81    82    1
    88    58    61    1
    89   105   104    2
    90    84    83    2
    91    89    92    1
    92    89    88    1
    93    89    90    1
    94    61    62    1
    95    83    88   am
    96    83    82    1
    97    63    62   ar
    98    63    65   ar
    99   102    90   am
   100   102   103    1
   101    82    85    1
   102   106   103    1
   103   106   107    1
   104    62    64   ar
   105    90    91    2
   106   104   103    1
   107    65    66   ar
   108    86    85    1
   109    49    50    1
   110    85    87    1
   111    56    54   ar
   112    64    66   ar
   113    53    50    1
   114    53    54    1
   115    51    50    1
   116    51    52    2
   117    54    55   ar
