@<TRIPOS>MOLECULE
tmp/4tpgA00.pdb
 207 198 0 0 0
SMALL
GASTEIGER

@<TRIPOS>ATOM
      1  N         15.1970  118.7440  236.2870 N.3    18  ARG18      -0.1245
      2  CA        15.9030  119.9160  236.7910 C.3    18  ARG18       0.1563
      3  C         15.5360  120.1800  238.2490 C.2    18  ARG18       0.2260
      4  O         16.3700  120.6310  239.0370 O.2    18  ARG18      -0.2867
      5  CB        15.5910  121.1430  235.9320 C.3    18  ARG18       0.0307
      6  CG        16.1330  121.0570  234.5130 C.3    18  ARG18       0.0489
      7  CD        17.6250  121.3290  234.4780 C.3    18  ARG18       0.2205
      8  NE        18.3830  120.0860  234.4100 N.pl3  18  ARG18      -0.0865
      9  CZ        19.7040  120.0170  234.2890 C.cat  18  ARG18       0.5346
     10  NH1       20.4270  121.1260  234.2240 N.pl3  18  ARG18       0.1354
     11  NH2       20.3010  118.8370  234.2360 N.pl3  18  ARG18       0.1354
     12  N         17.7910  117.8020  240.1060 N.3    21  TYR21      -0.1227
     13  CA        19.1850  118.2280  240.0060 C.3    21  TYR21       0.1736
     14  C         19.5050  119.4330  240.8790 C.2    21  TYR21       0.2595
     15  O         20.4120  119.3790  241.7070 O.2    21  TYR21      -0.2718
     16  CB        19.5390  118.5500  238.5550 C.3    21  TYR21       0.0548
     17  CG        20.9400  119.0890  238.3810 C.ar   21  TYR21      -0.0200
     18  CD1       22.0350  118.2370  238.3390 C.ar   21  TYR21      -0.0009
     19  CD2       21.1690  120.4540  238.2730 C.ar   21  TYR21      -0.0009
     20  CE1       23.3180  118.7320  238.1850 C.ar   21  TYR21       0.0417
     21  CE2       22.4450  120.9550  238.1250 C.ar   21  TYR21       0.0417
     22  CZ        23.5160  120.0920  238.0780 C.ar   21  TYR21       0.1957
     23  OH        24.7880  120.5920  237.9260 O.3    21  TYR21      -0.2866
     24  N         18.7720  120.5230  240.6820 N.am   22  TYR22      -0.1976
     25  CA        19.0310  121.7420  241.4370 C.3    22  TYR22       0.1639
     26  C         18.6480  121.5750  242.8970 C.2    22  TYR22       0.2290
     27  O         19.2300  122.2160  243.7810 O.2    22  TYR22      -0.2864
     28  CB        18.3020  122.9280  240.8190 C.3    22  TYR22       0.0560
     29  CG        19.0580  123.5110  239.6580 C.ar   22  TYR22      -0.0198
     30  CD1       20.0880  124.4110  239.8740 C.ar   22  TYR22      -0.0009
     31  CD2       18.7640  123.1480  238.3530 C.ar   22  TYR22      -0.0009
     32  CE1       20.7960  124.9460  238.8300 C.ar   22  TYR22       0.0417
     33  CE2       19.4710  123.6800  237.2970 C.ar   22  TYR22       0.0417
     34  CZ        20.4860  124.5800  237.5450 C.ar   22  TYR22       0.1957
     35  OH        21.2050  125.1260  236.5160 O.3    22  TYR22      -0.2866
     36  N         21.9380  120.3590  243.9700 N.3    25  GLN25      -0.1245
     37  CA        23.0090  121.3530  243.8800 C.3    25  GLN25       0.1566
     38  C         22.8980  122.3960  244.9890 C.2    25  GLN25       0.2260
     39  O         23.9080  122.8390  245.5430 O.2    25  GLN25      -0.2867
     40  CB        23.0010  122.0500  242.5130 C.3    25  GLN25       0.0367
     41  CG        23.7530  123.3840  242.4970 C.3    25  GLN25       0.0905
     42  CD        23.8240  124.0230  241.1210 C.2    25  GLN25       0.2608
     43  OE1       24.1270  123.3600  240.1300 O.2    25  GLN25      -0.2717
     44  NE2       23.5520  125.3230  241.0580 N.am   25  GLN25      -0.0878
     45  N         30.9200  119.4910  238.3840 N.3    51  ALA51      -0.1245
     46  CA        30.1380  120.3570  237.5130 C.3    51  ALA51       0.1562
     47  C         30.6830  120.3080  236.0930 C.2    51  ALA51       0.2260
     48  O         29.9230  120.2070  235.1270 O.2    51  ALA51      -0.2867
     49  CB        30.1380  121.7780  238.0350 C.3    51  ALA51       0.0290
     50  N         29.6520  117.1020  234.5550 N.3    54  ILE54      -0.1231
     51  CA        28.2380  117.1560  234.1910 C.3    54  ILE54       0.1692
     52  C         28.0000  117.9570  232.9110 C.2    54  ILE54       0.2592
     53  O         27.1570  117.5900  232.0940 O.2    54  ILE54      -0.2718
     54  CB        27.3880  117.7470  235.3410 C.3    54  ILE54       0.0266
     55  CG1       27.2610  116.7290  236.4770 C.3    54  ILE54       0.0019
     56  CG2       25.9990  118.1300  234.8580 C.3    54  ILE54       0.0020
     57  CD1       26.4720  117.2330  237.6650 C.3    54  ILE54       0.0001
     58  N         28.7480  119.0400  232.7270 N.am   55  TYR55      -0.1976
     59  CA        28.4970  119.9180  231.5900 C.3    55  TYR55       0.1639
     60  C         29.2340  119.4640  230.3300 C.2    55  TYR55       0.2290
     61  O         28.8870  119.8760  229.2220 O.2    55  TYR55      -0.2864
     62  CB        28.8860  121.3600  231.9310 C.3    55  TYR55       0.0560
     63  CG        28.7830  122.3080  230.7580 C.ar   55  TYR55      -0.0198
     64  CD1       27.5550  122.8120  230.3510 C.ar   55  TYR55      -0.0009
     65  CD2       29.9130  122.6880  230.0480 C.ar   55  TYR55      -0.0009
     66  CE1       27.4550  123.6740  229.2710 C.ar   55  TYR55       0.0417
     67  CE2       29.8240  123.5450  228.9680 C.ar   55  TYR55       0.0417
     68  CZ        28.5940  124.0370  228.5840 C.ar   55  TYR55       0.1957
     69  OH        28.5040  124.8940  227.5110 O.3    55  TYR55      -0.2866
     70  N         20.1280  115.0220  229.4920 N.3   114  LYS114     -0.1245
     71  CA        20.0320  116.4060  229.0210 C.3   114  LYS114      0.1561
     72  C         20.0820  116.5990  227.4960 C.2   114  LYS114      0.2260
     73  O         19.2210  117.2870  226.9450 O.2   114  LYS114     -0.2867
     74  CB        21.1280  117.2560  229.6750 C.3   114  LYS114      0.0271
     75  CG        20.9790  118.7520  229.4400 C.3   114  LYS114      0.0035
     76  CD        21.6580  119.5580  230.5400 C.3   114  LYS114      0.0206
     77  CE        23.1600  119.3280  230.5500 C.3   114  LYS114      0.1093
     78  NZ        23.8530  120.1210  231.6020 N.3   114  LYS114     -0.1314
     79  N         12.8400  126.6990  228.8070 N.3   137  TYR137     -0.1241
     80  CA        13.7330  127.3490  229.7560 C.3   137  TYR137      0.1605
     81  C         12.9700  127.8330  230.9910 C.2   137  TYR137      0.2264
     82  O         13.4300  127.6770  232.1300 O.2   137  TYR137     -0.2867
     83  CB        14.4390  128.5170  229.0630 C.3   137  TYR137      0.0534
     84  CG        15.4750  129.2310  229.8930 C.ar  137  TYR137     -0.0201
     85  CD1       16.6870  128.6260  230.1910 C.ar  137  TYR137     -0.0009
     86  CD2       15.2510  130.5180  230.3600 C.ar  137  TYR137     -0.0009
     87  CE1       17.6460  129.2770  230.9430 C.ar  137  TYR137      0.0417
     88  CE2       16.2040  131.1790  231.1130 C.ar  137  TYR137      0.0417
     89  CZ        17.3990  130.5540  231.4020 C.ar  137  TYR137      0.1957
     90  OH        18.3520  131.2060  232.1520 O.3   137  TYR137     -0.2866
     91  N         11.9990  124.8810  233.1850 N.3   140  VAL140     -0.1231
     92  CA        13.2180  124.5630  233.9220 C.3   140  VAL140      0.1692
     93  C         13.3330  125.4650  235.1480 C.2   140  VAL140      0.2592
     94  O         13.5620  124.9920  236.2660 O.2   140  VAL140     -0.2718
     95  CB        14.4760  124.7250  233.0450 C.3   140  VAL140      0.0266
     96  CG1       15.7290  124.7200  233.9040 C.3   140  VAL140      0.0020
     97  CG2       14.5400  123.6270  232.0000 C.3   140  VAL140      0.0020
     98  N         13.1540  126.7670  234.9310 N.am  141  ASN141     -0.1974
     99  CA        13.3090  127.7410  236.0080 C.3   141  ASN141      0.1688
    100  C         12.2840  127.6130  237.1410 C.2   141  ASN141      0.2292
    101  O         12.6410  127.7750  238.3100 O.2   141  ASN141     -0.2864
    102  CB        13.2600  129.1600  235.4400 C.3   141  ASN141      0.1181
    103  CG        14.6110  129.6310  234.9410 C.2   141  ASN141      0.2629
    104  OD1       15.4930  129.9670  235.7320 O.2   141  ASN141     -0.2716
    105  ND2       14.7780  129.6650  233.6240 N.am  141  ASN141     -0.0877
    106  N         13.1960  124.4170  239.1070 N.3   144  SER144     -0.1217
    107  CA        14.4000  124.6430  239.8980 C.3   144  SER144      0.1889
    108  C         14.1280  125.5800  241.0720 C.2   144  SER144      0.2288
    109  O         14.7480  125.4570  242.1290 O.2   144  SER144     -0.2866
    110  CB        15.5150  125.2080  239.0180 C.3   144  SER144      0.2089
    111  OG        15.1460  126.4670  238.4770 O.3   144  SER144     -0.2183
    112  N         32.7960  134.1920  231.9680 N.3   274  PHE274     -0.1227
    113  CA        31.4040  134.2530  232.3820 C.3   274  PHE274      0.1736
    114  C         31.0160  133.0260  233.1950 C.2   274  PHE274      0.2595
    115  O         30.2600  133.1280  234.1570 O.2   274  PHE274     -0.2718
    116  CB        30.4750  134.3870  231.1810 C.3   274  PHE274      0.0547
    117  CG        29.0250  134.2910  231.5430 C.ar  274  PHE274     -0.0202
    118  CD1       28.2880  133.1640  231.2210 C.ar  274  PHE274     -0.0042
    119  CD2       28.4090  135.3130  232.2480 C.ar  274  PHE274     -0.0042
    120  CE1       26.9530  133.0690  231.5700 C.ar  274  PHE274     -0.0003
    121  CE2       27.0740  135.2270  232.5990 C.ar  274  PHE274     -0.0003
    122  CZ        26.3470  134.1010  232.2660 C.ar  274  PHE274     -0.0000
    123  N         31.5130  131.8620  232.7910 N.am  275  PHE275     -0.1976
    124  CA        31.1810  130.6350  233.5020 C.3   275  PHE275      0.1639
    125  C         31.8760  130.5560  234.8570 C.2   275  PHE275      0.2290
    126  O         31.3540  129.9250  235.7770 O.2   275  PHE275     -0.2864
    127  CB        31.5040  129.4050  232.6570 C.3   275  PHE275      0.0560
    128  CG        30.3110  128.8550  231.9310 C.ar  275  PHE275     -0.0200
    129  CD1       29.2590  128.2990  232.6430 C.ar  275  PHE275     -0.0042
    130  CD2       30.2360  128.8880  230.5480 C.ar  275  PHE275     -0.0042
    131  CE1       28.1500  127.7900  231.9940 C.ar  275  PHE275     -0.0003
    132  CE2       29.1280  128.3770  229.8900 C.ar  275  PHE275     -0.0003
    133  CZ        28.0840  127.8280  230.6160 C.ar  275  PHE275     -0.0000
    134  N         29.5470  132.5250  236.8810 N.3   278  TYR278     -0.1241
    135  CA        28.3920  131.7100  237.2400 C.3   278  TYR278      0.1605
    136  C         28.7350  130.7740  238.3820 C.2   278  TYR278      0.2264
    137  O         27.9890  130.6620  239.3500 O.2   278  TYR278     -0.2867
    138  CB        27.8760  130.8830  236.0570 C.3   278  TYR278      0.0534
    139  CG        26.8420  129.8490  236.4770 C.ar  278  TYR278     -0.0201
    140  CD1       25.4930  130.1700  236.5490 C.ar  278  TYR278     -0.0009
    141  CD2       27.2220  128.5510  236.8160 C.ar  278  TYR278     -0.0009
    142  CE1       24.5520  129.2300  236.9450 C.ar  278  TYR278      0.0417
    143  CE2       26.2910  127.6090  237.2150 C.ar  278  TYR278      0.0417
    144  CZ        24.9580  127.9520  237.2750 C.ar  278  TYR278      0.1957
    145  OH        24.0300  127.0150  237.6670 O.3   278  TYR278     -0.2866
    146  N         18.1550  132.9990  242.1790 N.3   316  ASN316     -0.1226
    147  CA        18.5820  133.0350  240.7800 C.3   316  ASN316      0.1770
    148  C         17.4490  132.7070  239.7970 C.2   316  ASN316      0.2439
    149  O         17.1950  133.4890  238.8820 O.2   316  ASN316     -0.2733
    150  CB        19.7760  132.0980  240.5510 C.3   316  ASN316      0.1168
    151  CG        20.1010  131.9160  239.0790 C.2   316  ASN316      0.2627
    152  OD1       19.7630  130.8960  238.4780 O.2   316  ASN316     -0.2716
    153  ND2       20.7620  132.9080  238.4900 N.am  316  ASN316     -0.0877
    154  N         16.7600  131.5590  239.9710 N.am  317  PRO317     -0.2729
    155  CA        15.6930  131.2970  238.9990 C.3   317  PRO317      0.1401
    156  C         14.4960  132.2360  239.1580 C.2   317  PRO317      0.2269
    157  O         13.9010  132.6250  238.1520 O.2   317  PRO317     -0.2865
    158  CB        15.2910  129.8420  239.2930 C.3   317  PRO317      0.0296
    159  CG        16.3820  129.2830  240.1540 C.3   317  PRO317      0.0237
    160  CD        16.9090  130.4430  240.9230 C.3   317  PRO317      0.0939
    161  N         14.9480  135.3830  237.3890 N.3   320  ILE320     -0.1245
    162  CA        14.9450  135.1090  235.9550 C.3   320  ILE320      0.1561
    163  C         13.5170  135.0990  235.4100 C.2   320  ILE320      0.2260
    164  O         13.2440  135.6650  234.3520 O.2   320  ILE320     -0.2867
    165  CB        15.6330  133.7620  235.6340 C.3   320  ILE320      0.0252
    166  CG1       17.1530  133.8950  235.7410 C.3   320  ILE320      0.0019
    167  CG2       15.2580  133.2770  234.2430 C.3   320  ILE320      0.0019
    168  CD1       17.8970  132.5910  235.5520 C.3   320  ILE320      0.0001
    169  N         22.9690  136.9500  233.6660 N.3   376  GLU376     -0.1245
    170  CA        22.8480  135.6160  233.0880 C.3   376  GLU376      0.1567
    171  C         21.8620  135.6370  231.9210 C.2   376  GLU376      0.2260
    172  O         22.1130  135.0320  230.8790 O.2   376  GLU376     -0.2867
    173  CB        22.4090  134.5930  234.1380 C.3   376  GLU376      0.0388
    174  CG        22.3420  133.1660  233.6030 C.3   376  GLU376      0.1160
    175  CD        21.8250  132.1720  234.6260 C.2   376  GLU376      0.3649
    176  OE1       21.8180  132.5020  235.8300 O.co2 376  GLU376     -0.2457
    177  OE2       21.4260  131.0580  234.2220 O.co2 376  GLU376     -0.2457
    178  N         23.0560  136.9740  228.3030 N.3   379  VAL379     -0.1231
    179  CA        23.9080  136.1930  227.4100 C.3   379  VAL379      0.1692
    180  C         23.2950  134.8430  227.0450 C.2   379  VAL379      0.2592
    181  O         23.9050  133.7950  227.2570 O.2   379  VAL379     -0.2718
    182  CB        25.2970  135.9620  228.0320 C.3   379  VAL379      0.0266
    183  CG1       26.1610  137.2040  227.8790 C.3   379  VAL379      0.0020
    184  CG2       25.1580  135.5870  229.4900 C.3   379  VAL379      0.0020
    185  N         22.0850  134.8730  226.4960 N.am  380  SER380     -0.1952
    186  CA        21.4260  133.6520  226.0520 C.3   380  SER380      0.1924
    187  C         22.1280  133.0890  224.8200 C.2   380  SER380      0.2314
    188  O         22.0400  131.8930  224.5340 O.2   380  SER380     -0.2863
    189  CB        19.9470  133.9080  225.7540 C.3   380  SER380      0.2116
    190  OG        19.7830  134.8630  224.7200 O.3   380  SER380     -0.2180
    191  N         24.9900  131.9510  223.8000 N.3   382  LEU382     -0.1245
    192  CA        26.2680  131.2810  224.0130 C.3   382  LEU382      0.1561
    193  C         26.5280  130.2450  222.9260 C.2   382  LEU382      0.2260
    194  O         27.5960  129.6350  222.8870 O.2   382  LEU382     -0.2867
    195  CB        26.3060  130.6110  225.3880 C.3   382  LEU382      0.0270
    196  CG        26.6220  131.4940  226.5970 C.3   382  LEU382      0.0019
    197  CD1       26.5150  130.6900  227.8820 C.3   382  LEU382      0.0001
    198  CD2       28.0060  132.1090  226.4620 C.3   382  LEU382      0.0001
    199  N         34.2350  125.7790  234.3690 N.3   404  GLN404     -0.1245
    200  CA        33.6220  125.4730  235.6610 C.3   404  GLN404      0.1566
    201  C         34.6680  125.2260  236.7530 C.2   404  GLN404      0.2260
    202  O         34.6400  125.8590  237.8190 O.2   404  GLN404     -0.2867
    203  CB        32.7060  124.2560  235.5260 C.3   404  GLN404      0.0367
    204  CG        31.7370  124.3360  234.3520 C.3   404  GLN404      0.0905
    205  CD        30.5080  125.1710  234.6590 C.2   404  GLN404      0.2608
    206  OE1       30.4820  125.9320  235.6280 O.2   404  GLN404     -0.2717
    207  NE2       29.4760  125.0240  233.8370 N.am  404  GLN404     -0.0878
@<TRIPOS>BOND
     1   194   193    2
     2   193   192    1
     3   191   192    1
     4   192   195    1
     5   188   187    2
     6   190   189    1
     7   187   186    1
     8   195   196    1
     9   189   186    1
    10   186   185    1
    11   198   196    1
    12   185   180   am
    13   196   197    1
    14    73    72    2
    15   180   181    2
    16   180   179    1
    17   179   182    1
    18   179   178    1
    19    72    71    1
    20    69    68    1
    21   183   182    1
    22   182   184    1
    23    68    67   ar
    24    68    66   ar
    25    79    80    1
    26    67    65   ar
    27    71    70    1
    28    71    74    1
    29    83    80    1
    30    83    84    1
    31    61    60    2
    32    66    64   ar
    33    75    74    1
    34    75    76    1
    35    80    81    1
    36   132   130   ar
    37   132   133   ar
    38    84    85   ar
    39    84    86   ar
    40    65    63   ar
    41    85    87   ar
    42    60    59    1
    43    64    63   ar
    44    86    88   ar
    45    76    77    1
    46   130   128   ar
    47    77    78    1
    48   133   131   ar
    49    63    62    1
    50   172   171    2
    51    87    89   ar
    52    81    82    2
    53    88    89   ar
    54   116   117    1
    55   116   113    1
    56   118   117   ar
    57   118   120   ar
    58    89    90    1
    59   117   119   ar
    60   120   122   ar
    61    59    62    1
    62    59    58    1
    63   171   170    1
    64   128   129   ar
    65   128   127    1
    66   112   113    1
    67   131   129   ar
    68    97    95    1
    69    53    52    2
    70   119   121   ar
    71   122   121   ar
    72   113   114    1
    73   127   124    1
    74    58    52   am
    75   123   114   am
    76   123   124    1
    77    52    51    1
    78    95    96    1
    79    95    92    1
    80   170   169    1
    81   170   173    1
    82    91    92    1
    83   114   115    2
    84   124   125    1
    85   174   173    1
    86   174   175    1
    87   105   103   am
    88   207   205   am
    89    92    93    1
    90    51    50    1
    91    51    54    1
    92   177   175   ar
    93    10     9    1
    94    11     9    1
    95   167   165    1
    96     9     8    2
    97   204   205    1
    98   204   203    1
    99   164   163    2
   100   199   200    1
   101     8     7    1
   102     7     6    1
   103     6     5    1
   104   175   176   ar
   105   205   206    2
   106   125   126    2
   107    56    54    1
   108    98    93   am
   109    98    99    1
   110   103   102    1
   111   103   104    2
   112    48    47    2
   113    93    94    2
   114    54    55    1
   115   163   162    1
   116   102    99    1
   117   203   200    1
   118   168   166    1
   119   165   166    1
   120   165   162    1
   121   200   201    1
   122     5     2    1
   123   162   161    1
   124    99   100    1
   125   138   139    1
   126   138   135    1
   127    47    46    1
   128     1     2    1
   129    55    57    1
   130   139   140   ar
   131   139   141   ar
   132    35    34    1
   133   140   142   ar
   134   201   202    2
   135     2     3    1
   136   141   143   ar
   137   134   135    1
   138   142   144   ar
   139   100   101    2
   140   143   144   ar
   141   135   136    1
   142   144   145    1
   143    33    34   ar
   144    33    31   ar
   145    46    49    1
   146    46    45    1
   147    34    32   ar
   148    23    22    1
   149    22    21   ar
   150    22    20   ar
   151    21    19   ar
   152   157   156    2
   153    20    18   ar
   154     3     4    2
   155    19    17   ar
   156    18    17   ar
   157    31    29   ar
   158    17    16    1
   159   136   137    2
   160   111   110    1
   161   152   151    2
   162   153   151   am
   163    16    13    1
   164    32    30   ar
   165   149   148    2
   166   155   156    1
   167   155   158    1
   168   155   154    1
   169   110   107    1
   170   151   150    1
   171   106   107    1
   172   158   159    1
   173    29    30   ar
   174    29    28    1
   175   148   154   am
   176   148   147    1
   177   107   108    1
   178   154   160    1
   179    13    12    1
   180    13    14    1
   181    43    42    2
   182   159   160    1
   183   150   147    1
   184    24    14   am
   185    24    25    1
   186   147   146    1
   187    28    25    1
   188    14    15    2
   189    44    42   am
   190   108   109    2
   191    42    41    1
   192    25    26    1
   193    41    40    1
   194    40    37    1
   195    26    27    2
   196    37    36    1
   197    37    38    1
   198    38    39    2
