@<TRIPOS>MOLECULE
tmp/4tphA01.pdb
 123 118 0 0 0
SMALL
GASTEIGER

@<TRIPOS>ATOM
      1  N        -13.7560  -10.6060   29.2830 N.3    18  ARG18      -0.1245
      2  CA       -14.4800  -11.7820   29.7420 C.3    18  ARG18       0.1563
      3  C        -14.1620  -12.1220   31.2000 C.2    18  ARG18       0.2260
      4  O        -14.9940  -12.7100   31.9140 O.2    18  ARG18      -0.2867
      5  CB       -14.1480  -12.9710   28.8460 C.3    18  ARG18       0.0307
      6  CG       -14.7200  -12.8860   27.4480 C.3    18  ARG18       0.0489
      7  CD       -16.2110  -13.1750   27.4660 C.3    18  ARG18       0.2205
      8  NE       -17.0030  -11.9580   27.6260 N.pl3  18  ARG18      -0.0865
      9  CZ       -18.3320  -11.9090   27.5820 C.cat  18  ARG18       0.5346
     10  NH1      -19.0540  -13.0180   27.4110 N.pl3  18  ARG18       0.1354
     11  NH2      -18.9360  -10.7380   27.7250 N.pl3  18  ARG18       0.1354
     12  N        -17.3700  -12.6060   33.6920 N.3    22  TYR22      -0.1241
     13  CA       -17.8040  -13.8070   34.3900 C.3    22  TYR22       0.1605
     14  C        -17.5910  -13.7550   35.9070 C.2    22  TYR22       0.2264
     15  O        -18.4390  -14.3090   36.6800 O.2    22  TYR22      -0.2867
     16  CB       -17.1610  -15.0570   33.7470 C.3    22  TYR22       0.0534
     17  CG       -17.9330  -15.5390   32.5100 C.ar   22  TYR22      -0.0201
     18  CD1      -19.1550  -16.1970   32.6710 C.ar   22  TYR22      -0.0009
     19  CD2      -17.4750  -15.3130   31.1990 C.ar   22  TYR22      -0.0009
     20  CE1      -19.9030  -16.6390   31.5800 C.ar   22  TYR22       0.0417
     21  CE2      -18.2250  -15.7560   30.0870 C.ar   22  TYR22       0.0417
     22  CZ       -19.4430  -16.4180   30.2950 C.ar   22  TYR22       0.1957
     23  OH       -20.2180  -16.8760   29.2410 O.3    22  TYR22      -0.2866
     24  N        -18.4950   -7.1940   22.3450 N.3   114  LYS114     -0.1245
     25  CA       -18.0430   -8.4930   21.8180 C.3   114  LYS114      0.1561
     26  C        -18.2410   -8.7600   20.3360 C.2   114  LYS114      0.2260
     27  O        -17.3050   -9.2880   19.6980 O.2   114  LYS114     -0.2867
     28  CB       -18.7080   -9.6620   22.5300 C.3   114  LYS114      0.0271
     29  CG       -17.6810  -10.4960   23.2560 C.3   114  LYS114      0.0035
     30  CD       -17.8890  -11.9680   22.9990 C.3   114  LYS114      0.0206
     31  CE       -16.5310  -12.6280   22.8650 C.3   114  LYS114      0.1093
     32  NZ       -15.7160  -12.1270   21.6760 N.3   114  LYS114     -0.1314
     33  N        -11.5870  -18.7090   21.6130 N.3   137  TYR137     -0.1241
     34  CA       -12.4830  -19.3740   22.5530 C.3   137  TYR137      0.1605
     35  C        -11.7260  -19.8710   23.7880 C.2   137  TYR137      0.2264
     36  O        -12.2400  -19.8370   24.9260 O.2   137  TYR137     -0.2867
     37  CB       -13.1920  -20.5380   21.8650 C.3   137  TYR137      0.0534
     38  CG       -14.1070  -21.3670   22.7540 C.ar  137  TYR137     -0.0201
     39  CD1      -15.3220  -20.8480   23.1940 C.ar  137  TYR137     -0.0009
     40  CD2      -13.7840  -22.6770   23.1140 C.ar  137  TYR137     -0.0009
     41  CE1      -16.1860  -21.5850   23.9920 C.ar  137  TYR137      0.0417
     42  CE2      -14.6440  -23.4320   23.9110 C.ar  137  TYR137      0.0417
     43  CZ       -15.8530  -22.8750   24.3500 C.ar  137  TYR137      0.1957
     44  OH       -16.7410  -23.5910   25.1440 O.3   137  TYR137     -0.2866
     45  N        -10.8210  -16.9130   25.9540 N.3   140  VAL140     -0.1231
     46  CA       -12.0350  -16.6180   26.7090 C.3   140  VAL140      0.1692
     47  C        -12.0940  -17.4750   27.9630 C.2   140  VAL140      0.2592
     48  O        -11.9900  -16.9530   29.0840 O.2   140  VAL140     -0.2718
     49  CB       -13.3070  -16.8810   25.8840 C.3   140  VAL140      0.0266
     50  CG1      -14.5200  -16.6950   26.7500 C.3   140  VAL140      0.0020
     51  CG2      -13.3670  -15.9710   24.6730 C.3   140  VAL140      0.0020
     52  N        -12.1660  -18.7970   27.7620 N.am  141  ASN141     -0.1974
     53  CA       -12.3490  -19.7380   28.8810 C.3   141  ASN141      0.1688
     54  C        -11.3280  -19.6260   29.9860 C.2   141  ASN141      0.2292
     55  O        -11.6700  -19.7050   31.1690 O.2   141  ASN141     -0.2864
     56  CB       -12.3400  -21.1730   28.3790 C.3   141  ASN141      0.1181
     57  CG       -13.6130  -21.5260   27.7000 C.2   141  ASN141      0.2629
     58  OD1      -14.5670  -21.9540   28.3510 O.2   141  ASN141     -0.2716
     59  ND2      -13.6690  -21.3060   26.3870 N.am  141  ASN141     -0.0877
     60  N        -31.7210  -26.2830   24.4830 N.3   270  PHE270     -0.1227
     61  CA       -30.3420  -26.3850   24.9180 C.3   270  PHE270      0.1736
     62  C        -29.9760  -25.2150   25.7940 C.2   270  PHE270      0.2595
     63  O        -29.3430  -25.3640   26.8600 O.2   270  PHE270     -0.2718
     64  CB       -29.3760  -26.4080   23.7570 C.3   270  PHE270      0.0547
     65  CG       -27.9400  -26.4870   24.2050 C.ar  270  PHE270     -0.0202
     66  CD1      -27.2010  -25.3330   24.4410 C.ar  270  PHE270     -0.0042
     67  CD2      -27.3420  -27.7240   24.4520 C.ar  270  PHE270     -0.0042
     68  CE1      -25.8830  -25.4260   24.8880 C.ar  270  PHE270     -0.0003
     69  CE2      -26.0280  -27.8210   24.8920 C.ar  270  PHE270     -0.0003
     70  CZ       -25.2990  -26.6820   25.1140 C.ar  270  PHE270     -0.0000
     71  N        -30.3920  -24.0410   25.3570 N.am  271  PHE271     -0.1976
     72  CA       -30.1200  -22.8600   26.1510 C.3   271  PHE271      0.1639
     73  C        -30.8480  -22.8560   27.4720 C.2   271  PHE271      0.2290
     74  O        -30.3560  -22.2570   28.4260 O.2   271  PHE271     -0.2864
     75  CB       -30.4570  -21.5910   25.3890 C.3   271  PHE271      0.0560
     76  CG       -29.3250  -21.0940   24.5640 C.ar  271  PHE271     -0.0200
     77  CD1      -28.0720  -20.8990   25.1500 C.ar  271  PHE271     -0.0042
     78  CD2      -29.4990  -20.8300   23.2150 C.ar  271  PHE271     -0.0042
     79  CE1      -27.0150  -20.4570   24.4160 C.ar  271  PHE271     -0.0003
     80  CE2      -28.4470  -20.3760   22.4620 C.ar  271  PHE271     -0.0003
     81  CZ       -27.1940  -20.1890   23.0670 C.ar  271  PHE271     -0.0000
     82  N        -28.4940  -24.8710   29.7310 N.3   274  TYR274     -0.1241
     83  CA       -27.2710  -24.1410   29.9830 C.3   274  TYR274      0.1605
     84  C        -27.5960  -23.0080   30.9880 C.2   274  TYR274      0.2264
     85  O        -26.8620  -22.7940   31.9560 O.2   274  TYR274     -0.2867
     86  CB       -26.6540  -23.6430   28.6740 C.3   274  TYR274      0.0534
     87  CG       -25.3570  -22.8910   28.8510 C.ar  274  TYR274     -0.0201
     88  CD1      -24.1310  -23.5450   28.7680 C.ar  274  TYR274     -0.0009
     89  CD2      -25.3530  -21.5230   29.1070 C.ar  274  TYR274     -0.0009
     90  CE1      -22.9350  -22.8540   28.9350 C.ar  274  TYR274      0.0417
     91  CE2      -24.1630  -20.8240   29.2730 C.ar  274  TYR274      0.0417
     92  CZ       -22.9580  -21.4930   29.1860 C.ar  274  TYR274      0.1957
     93  OH       -21.7810  -20.7920   29.3540 O.3   274  TYR274     -0.2866
     94  N        -21.7490  -28.8940   26.0140 N.3   372  GLU372     -0.1245
     95  CA       -21.5050  -27.5680   25.4520 C.3   372  GLU372      0.1567
     96  C        -20.4160  -27.6360   24.3900 C.2   372  GLU372      0.2260
     97  O        -20.5670  -27.0950   23.2920 O.2   372  GLU372     -0.2867
     98  CB       -21.0930  -26.6020   26.5640 C.3   372  GLU372      0.0388
     99  CG       -20.5730  -25.2600   26.0800 C.3   372  GLU372      0.1160
    100  CD       -19.9440  -24.4230   27.1990 C.2   372  GLU372      0.3649
    101  OE1      -20.1690  -24.7380   28.3860 O.co2 372  GLU372     -0.2457
    102  OE2      -19.2390  -23.4350   26.8940 O.co2 372  GLU372     -0.2457
    103  N        -21.4190  -29.2110   21.1680 N.3   375  VAL375     -0.1231
    104  CA       -22.3180  -28.4250   20.3030 C.3   375  VAL375      0.1692
    105  C        -21.8250  -26.9980   19.9740 C.2   375  VAL375      0.2592
    106  O        -22.5460  -26.0190   20.1460 O.2   375  VAL375     -0.2718
    107  CB       -23.7400  -28.3200   20.9100 C.3   375  VAL375      0.0266
    108  CG1      -24.4110  -29.6660   20.8780 C.3   375  VAL375      0.0020
    109  CG2      -23.6870  -27.8040   22.3300 C.3   375  VAL375      0.0020
    110  N        -20.6210  -26.8960   19.4250 N.am  376  SER376     -0.1952
    111  CA       -20.1220  -25.6170   18.9390 C.3   376  SER376      0.1924
    112  C        -20.5060  -25.4040   17.4750 C.2   376  SER376      0.2314
    113  O        -20.0250  -24.4710   16.8280 O.2   376  SER376     -0.2863
    114  CB       -18.5990  -25.5560   19.0780 C.3   376  SER376      0.2116
    115  OG       -17.9810  -26.7250   18.5540 O.3   376  SER376     -0.2180
    116  N        -23.5410  -24.4770   16.3310 N.3   378  LEU378     -0.1245
    117  CA       -24.8640  -23.8760   16.3670 C.3   378  LEU378      0.1561
    118  C        -24.8110  -22.4810   15.7350 C.2   378  LEU378      0.2260
    119  O        -25.6920  -21.6440   15.9410 O.2   378  LEU378     -0.2867
    120  CB       -25.4270  -23.8650   17.8170 C.3   378  LEU378      0.0270
    121  CG       -24.8950  -23.1670   19.1030 C.3   378  LEU378      0.0019
    122  CD1      -24.9410  -21.6410   19.0560 C.3   378  LEU378      0.0001
    123  CD2      -25.6260  -23.6880   20.3790 C.3   378  LEU378      0.0001
@<TRIPOS>BOND
     1   118   119    2
     2   118   117    1
     3   116   117    1
     4   117   120    1
     5   113   112    2
     6   112   111    1
     7   120   121    1
     8   115   114    1
     9   111   114    1
    10   111   110    1
    11   122   121    1
    12   121   123    1
    13   110   105   am
    14    27    26    2
    15   105   106    2
    16   105   104    1
    17   104   107    1
    18   104   103    1
    19    26    25    1
    20   108   107    1
    21   107   109    1
    22    33    34    1
    23    32    31    1
    24    25    24    1
    25    25    28    1
    26    37    34    1
    27    37    38    1
    28    80    81   ar
    29    80    78   ar
    30    28    29    1
    31    34    35    1
    32    38    40   ar
    33    38    39   ar
    34    31    30    1
    35    30    29    1
    36    81    79   ar
    37    40    42   ar
    38    39    41   ar
    39    78    76   ar
    40    97    96    2
    41    64    65    1
    42    64    61    1
    43    35    36    2
    44    42    43   ar
    45    41    43   ar
    46    65    66   ar
    47    65    67   ar
    48    43    44    1
    49    96    95    1
    50    79    77   ar
    51    66    68   ar
    52    67    69   ar
    53    60    61    1
    54    76    77   ar
    55    76    75    1
    56    51    49    1
    57    68    70   ar
    58    69    70   ar
    59    61    62    1
    60    71    62   am
    61    71    72    1
    62    75    72    1
    63    95    94    1
    64    95    98    1
    65    62    63    2
    66    49    46    1
    67    49    50    1
    68    45    46    1
    69    99    98    1
    70    99   100    1
    71    72    73    1
    72    59    57   am
    73    46    47    1
    74   102   100   ar
    75   100   101   ar
    76    10     9    1
    77     6     7    1
    78     6     5    1
    79     7     8    1
    80    73    74    2
    81     9     8    2
    82     9    11    1
    83    57    58    2
    84    57    56    1
    85    52    47   am
    86    52    53    1
    87    47    48    2
    88    56    53    1
    89    86    87    1
    90    86    83    1
    91    88    87   ar
    92    88    90   ar
    93     5     2    1
    94    87    89   ar
    95    53    54    1
    96    90    92   ar
    97    89    91   ar
    98    92    91   ar
    99    92    93    1
   100    23    22    1
   101     1     2    1
   102    82    83    1
   103     2     3    1
   104    83    84    1
   105    54    55    2
   106    21    22   ar
   107    21    19   ar
   108    22    20   ar
   109    84    85    2
   110    19    17   ar
   111     3     4    2
   112    20    18   ar
   113    17    18   ar
   114    17    16    1
   115    12    13    1
   116    16    13    1
   117    13    14    1
   118    14    15    2
