@<TRIPOS>MOLECULE
tmp/4tpiA00.pdb
 92 86 0 0 0
SMALL
GASTEIGER

@<TRIPOS>ATOM
      1  N         24.0310   61.7860   13.3140 N.3     4  GLY4       -0.1225
      2  CA        22.7670   61.2040   12.8320 C.3     4  GLY4        0.1811
      3  C         22.9880   60.0590   11.8470 C.2     4  GLY4        0.2280
      4  O         24.0300   60.0470   11.1420 O.2     4  GLY4       -0.2866
      5  N         16.7560   60.2120   19.4680 N.3   118  ILE118     -0.1231
      6  CA        16.2730   61.4860   18.9630 C.3   118  ILE118      0.1692
      7  C         16.0920   61.3670   17.4510 C.2   118  ILE118      0.2593
      8  O         16.9810   60.7730   16.7790 O.2   118  ILE118     -0.2718
      9  CB        17.3980   62.4880   19.2350 C.3   118  ILE118      0.0266
     10  CG1       17.7060   62.5280   20.7220 C.3   118  ILE118      0.0019
     11  CG2       17.1110   63.8790   18.7070 C.3   118  ILE118      0.0020
     12  CD1       18.7500   63.6040   21.0260 C.3   118  ILE118      0.0001
     13  N         14.9060   61.6890   16.9680 N.am  119  SER119     -0.1938
     14  CA        14.5920   61.5350   15.5420 C.3   119  SER119      0.2055
     15  C         14.1070   62.8650   15.0190 C.2   119  SER119      0.2643
     16  O         13.7380   63.7220   15.8590 O.2   119  SER119     -0.2714
     17  CB        13.5530   60.4240   15.2790 C.3   119  SER119      0.2130
     18  OG        12.5090   60.5760   16.2300 O.3   119  SER119     -0.2179
     19  N         14.1200   63.0310   13.7110 N.am  120  GLY120     -0.1954
     20  CA        13.6060   64.2480   13.1420 C.3   120  GLY120      0.1869
     21  C         14.1620   64.5220   11.7610 C.2   120  GLY120      0.2309
     22  O         15.1470   63.8670   11.3450 O.2   120  GLY120     -0.2863
     23  N         15.2710   67.5110   10.8670 N.3   122  GLY122     -0.1210
     24  CA        16.0010   68.7820   10.9260 C.3   122  GLY122      0.1956
     25  C         17.3130   68.8230   10.1100 C.2   122  GLY122      0.2612
     26  O         17.8030   67.7980    9.5670 O.2   122  GLY122     -0.2717
     27  N         17.8820   70.0000   10.0440 N.am  123  ASN123     -0.1960
     28  CA        19.2280   70.2920    9.5010 C.3   123  ASN123      0.1819
     29  C         20.2700   69.3040   10.0370 C.2   123  ASN123      0.2621
     30  O         20.2620   69.0060   11.2610 O.2   123  ASN123     -0.2715
     31  CB        19.6720   71.6840    9.9870 C.3   123  ASN123      0.1195
     32  CG        20.9050   72.0420    9.1800 C.2   123  ASN123      0.2630
     33  OD1       21.1640   71.4000    8.1300 O.2   123  ASN123     -0.2716
     34  ND2       21.3150   73.2560    9.3940 N.am  123  ASN123     -0.0877
     35  N         21.0200   68.7510    9.0960 N.am  124  THR124     -0.1951
     36  CA        22.0070   67.6860    9.3020 C.3   124  THR124      0.1897
     37  C         23.4870   68.1570    9.3190 C.2   124  THR124      0.2313
     38  O         24.3940   67.3330    9.6640 O.2   124  THR124     -0.2863
     39  CB        21.8100   66.5410    8.2760 C.3   124  THR124      0.1794
     40  OG1       22.1840   66.9850    6.9950 O.3   124  THR124     -0.2208
     41  CG2       20.4040   65.9160    8.1720 C.3   124  THR124      0.0378
     42  N         16.0290   60.9970    9.9340 N.3   136  LYS136     -0.1231
     43  CA        17.3170   60.7420   10.6670 C.3   136  LYS136      0.1693
     44  C         17.1470   60.4650   12.1610 C.2   136  LYS136      0.2592
     45  O         16.2320   61.0430   12.8050 O.2   136  LYS136     -0.2718
     46  CB        18.2830   61.9330   10.5730 C.3   136  LYS136      0.0285
     47  CG        18.4820   62.4310    9.1340 C.3   136  LYS136      0.0035
     48  CD        19.0120   61.3090    8.2420 C.3   136  LYS136      0.0206
     49  CE        19.4530   61.8790    6.8950 C.3   136  LYS136      0.1093
     50  NZ        19.9280   60.7830    6.0440 N.3   136  LYS136     -0.1314
     51  N         17.9990   59.5940   12.6960 N.am  137  CYS137     -0.1956
     52  CA        18.0530   59.2290   14.1150 C.3   137  CYS137      0.1843
     53  C         19.4190   59.5130   14.6920 C.2   137  CYS137      0.2625
     54  O         20.3870   59.6120   13.9090 O.2   137  CYS137     -0.2714
     55  CB        17.7630   57.7510   14.3520 C.3   137  CYS137      0.0997
     56  SG        16.0590   57.2330   14.1080 S.3   137  CYS137     -0.0797
     57  N         19.4620   59.6090   16.0030 N.am  138  LEU138     -0.1977
     58  CA        20.6480   59.8660   16.8500 C.3   138  LEU138      0.1596
     59  C         20.4580   59.2680   18.2430 C.2   138  LEU138      0.2287
     60  O         19.3630   59.3640   18.8520 O.2   138  LEU138     -0.2864
     61  CB        20.9280   61.3780   16.9440 C.3   138  LEU138      0.0297
     62  CG        22.0160   61.8010   17.9710 C.3   138  LEU138      0.0022
     63  CD1       23.4660   61.6270   17.4600 C.3   138  LEU138      0.0001
     64  CD2       21.8020   63.2310   18.4780 C.3   138  LEU138      0.0001
     65  N         24.0040   66.2220   17.2490 N.3   171  ASP171     -0.1225
     66  CA        22.9920   67.0140   17.9870 C.3   171  ASP171      0.1805
     67  C         21.5840   66.9530   17.3600 C.2   171  ASP171      0.2598
     68  O         21.4000   66.2890   16.3050 O.2   171  ASP171     -0.2718
     69  CB        23.4820   68.4710   18.2270 C.3   171  ASP171      0.1424
     70  CG        22.7990   69.1660   19.4170 C.2   171  ASP171      0.3668
     71  OD1       22.9810   70.3900   19.6640 O.co2 171  ASP171     -0.2456
     72  OD2       21.9940   68.5120   20.1390 O.co2 171  ASP171     -0.2456
     73  N         20.6410   67.7610   17.8110 N.am  172  SER172     -0.1938
     74  CA        19.5030   67.9320   16.9210 C.3   172  SER172      0.2055
     75  C         19.4470   69.4170   16.6210 C.2   172  SER172      0.2643
     76  O         20.3760   70.1280   17.0530 O.2   172  SER172     -0.2714
     77  CB        18.2030   67.4310   17.5580 C.3   172  SER172      0.2130
     78  OG        18.0360   68.1940   18.7370 O.3   172  SER172     -0.2179
     79  N         18.6770   69.8330   15.6710 N.am  173  CYS173     -0.1967
     80  CA        18.9040   71.1470   15.1200 C.3   173  CYS173      0.1712
     81  C         17.5670   71.7190   14.6720 C.2   173  CYS173      0.2296
     82  O         16.5900   70.9510   14.6860 O.2   173  CYS173     -0.2864
     83  CB        19.8730   70.9300   13.9110 C.3   173  CYS173      0.0983
     84  SG        20.8890   72.3550   13.3860 S.3   173  CYS173     -0.0798
     85  N         13.8740   70.2300   14.0810 N.3   176  ASP176     -0.1239
     86  CA        13.7840   69.0150   14.9290 C.3   176  ASP176      0.1674
     87  C         12.8030   69.1660   16.0630 C.2   176  ASP176      0.2266
     88  O         12.4610   68.1200   16.6630 O.2   176  ASP176     -0.2867
     89  CB        15.0930   68.4390   15.5300 C.3   176  ASP176      0.1410
     90  CG        15.8460   67.5830   14.5290 C.2   176  ASP176      0.3668
     91  OD1       16.9840   67.9490   14.1950 O.co2 176  ASP176     -0.2456
     92  OD2       15.2050   66.9140   13.7030 O.co2 176  ASP176     -0.2456
@<TRIPOS>BOND
     1    50    49    1
     2    49    48    1
     3    40    39    1
     4    33    32    2
     5    41    39    1
     6    48    47    1
     7    39    36    1
     8    35    36    1
     9    35    29   am
    10    47    46    1
    11    32    34   am
    12    32    31    1
    13    36    37    1
    14    37    38    2
    15    28    31    1
    16    28    29    1
    17    28    27    1
    18    26    25    2
    19    42    43    1
    20    29    30    2
    21    27    25   am
    22    25    24    1
    23    46    43    1
    24    43    44    1
    25    23    24    1
    26     4     3    2
    27    22    21    2
    28    21    20    1
    29     3     2    1
    30    44    51   am
    31    44    45    2
    32    51    52    1
    33     2     1    1
    34    20    19    1
    35    84    83    1
    36    92    90   ar
    37    19    15   am
    38    54    53    2
    39    83    80    1
    40    85    86    1
    41    56    55    1
    42    52    55    1
    43    52    53    1
    44    91    90   ar
    45    90    89    1
    46    81    82    2
    47    81    80    1
    48    53    57   am
    49    86    89    1
    50    86    87    1
    51    15    14    1
    52    15    16    2
    53    80    79    1
    54    17    14    1
    55    17    18    1
    56    14    13    1
    57    79    75   am
    58    57    58    1
    59    87    88    2
    60    68    67    2
    61    75    74    1
    62    75    76    2
    63     8     7    2
    64    58    61    1
    65    58    59    1
    66    74    77    1
    67    74    73    1
    68    61    62    1
    69    13     7   am
    70    65    66    1
    71    67    73   am
    72    67    66    1
    73     7     6    1
    74    63    62    1
    75    77    78    1
    76    62    64    1
    77    66    69    1
    78    69    70    1
    79    59    60    2
    80    11     9    1
    81     6     9    1
    82     6     5    1
    83     9    10    1
    84    70    71   ar
    85    70    72   ar
    86    10    12    1
