@<TRIPOS>MOLECULE
tmp/4tpjB00.pdb
 165 155 0 0 0
SMALL
GASTEIGER

@<TRIPOS>ATOM
      1  N         43.7420  -70.5310  -11.2240 N.3    14  GLU14      -0.1245
      2  CA        43.0530  -69.6640  -12.1900 C.3    14  GLU14       0.1567
      3  C         44.0390  -68.9440  -13.1200 C.2    14  GLU14       0.2260
      4  O         43.8830  -68.9560  -14.3460 O.2    14  GLU14      -0.2867
      5  CB        42.2020  -68.6210  -11.4880 C.3    14  GLU14       0.0388
      6  CG        41.6440  -67.5970  -12.4490 C.3    14  GLU14       0.1160
      7  CD        40.5030  -68.1730  -13.2690 C.2    14  GLU14       0.3649
      8  OE1       39.9090  -69.1860  -12.8240 O.co2  14  GLU14      -0.2457
      9  OE2       40.2060  -67.6370  -14.3630 O.co2  14  GLU14      -0.2457
     10  N         44.1500  -69.3610  -17.1870 N.3    18  ARG18      -0.1245
     11  CA        43.9790  -68.2020  -18.0500 C.3    18  ARG18       0.1563
     12  C         45.2210  -67.9530  -18.8780 C.2    18  ARG18       0.2260
     13  O         45.1470  -67.4320  -19.9970 O.2    18  ARG18      -0.2867
     14  CB        43.6560  -66.9740  -17.2130 C.3    18  ARG18       0.0307
     15  CG        42.3160  -67.0490  -16.5150 C.3    18  ARG18       0.0489
     16  CD        41.1810  -66.7770  -17.4750 C.3    18  ARG18       0.2205
     17  NE        40.6450  -67.9960  -18.0540 N.pl3  18  ARG18      -0.0865
     18  CZ        39.6310  -68.0410  -18.9150 C.cat  18  ARG18       0.5346
     19  NH1       39.0350  -66.9230  -19.3090 N.pl3  18  ARG18       0.1354
     20  NH2       39.2120  -69.2110  -19.3900 N.pl3  18  ARG18       0.1354
     21  N         44.4030  -67.6180  -22.8430 N.3    22  TYR22      -0.1241
     22  CA        44.6520  -66.4000  -23.6140 C.3    22  TYR22       0.1605
     23  C         45.9080  -66.5360  -24.4300 C.2    22  TYR22       0.2264
     24  O         46.0530  -65.8870  -25.4720 O.2    22  TYR22      -0.2867
     25  CB        44.7020  -65.1680  -22.7170 C.3    22  TYR22       0.0534
     26  CG        43.3090  -64.8170  -22.2510 C.ar   22  TYR22      -0.0201
     27  CD1       42.3810  -64.3100  -23.1420 C.ar   22  TYR22      -0.0009
     28  CD2       42.9250  -64.9880  -20.9260 C.ar   22  TYR22      -0.0009
     29  CE1       41.1060  -64.0070  -22.7460 C.ar   22  TYR22       0.0417
     30  CE2       41.6500  -64.6740  -20.5110 C.ar   22  TYR22       0.0417
     31  CZ        40.7430  -64.1820  -21.4310 C.ar   22  TYR22       0.1957
     32  OH        39.4600  -63.8570  -21.0460 O.3    22  TYR22      -0.2866
     33  N         31.7670  -69.7610  -23.6560 N.3    55  TYR55      -0.1241
     34  CA        31.2120  -68.8490  -22.6830 C.3    55  TYR55       0.1605
     35  C         29.7830  -69.2180  -22.2630 C.2    55  TYR55       0.2264
     36  O         29.3220  -68.7870  -21.2180 O.2    55  TYR55      -0.2867
     37  CB        31.2670  -67.4140  -23.2490 C.3    55  TYR55       0.0534
     38  CG        31.0420  -66.3580  -22.2130 C.ar   55  TYR55      -0.0201
     39  CD1       32.1060  -65.7350  -21.5870 C.ar   55  TYR55      -0.0009
     40  CD2       29.7550  -66.0040  -21.8380 C.ar   55  TYR55      -0.0009
     41  CE1       31.8890  -64.7840  -20.6140 C.ar   55  TYR55       0.0417
     42  CE2       29.5250  -65.0750  -20.8640 C.ar   55  TYR55       0.0417
     43  CZ        30.5830  -64.4530  -20.2540 C.ar   55  TYR55       0.1957
     44  OH        30.3080  -63.5070  -19.2790 O.3    55  TYR55      -0.2866
     45  N         35.6720  -73.2990  -15.2850 N.3   114  LYS114     -0.1245
     46  CA        35.4440  -71.9050  -14.9010 C.3   114  LYS114      0.1561
     47  C         34.4500  -71.7010  -13.7470 C.2   114  LYS114      0.2260
     48  O         34.7980  -71.0430  -12.7660 O.2   114  LYS114     -0.2867
     49  CB        34.9990  -71.1020  -16.1280 C.3   114  LYS114      0.0271
     50  CG        34.8480  -69.5920  -15.9200 C.3   114  LYS114      0.0035
     51  CD        35.1960  -68.8720  -17.2220 C.3   114  LYS114      0.0206
     52  CE        34.2990  -69.3570  -18.3500 C.3   114  LYS114      0.1093
     53  NZ        34.6650  -68.7630  -19.6570 N.3   114  LYS114     -0.1314
     54  N         40.6840  -61.5200  -10.2190 N.3   137  TYR137     -0.1241
     55  CA        40.6840  -60.9060  -11.5450 C.3   137  TYR137      0.1605
     56  C         42.0550  -60.3260  -11.9340 C.2   137  TYR137      0.2264
     57  O         42.4330  -60.2660  -13.1240 O.2   137  TYR137     -0.2867
     58  CB        39.5990  -59.8270  -11.5620 C.3   137  TYR137      0.0534
     59  CG        39.4880  -59.0010  -12.8090 C.ar  137  TYR137     -0.0201
     60  CD1       39.1060  -59.5850  -14.0030 C.ar  137  TYR137     -0.0009
     61  CD2       39.7040  -57.6280  -12.7860 C.ar  137  TYR137     -0.0009
     62  CE1       38.9850  -58.8340  -15.1630 C.ar  137  TYR137      0.0417
     63  CE2       39.5790  -56.8580  -13.9370 C.ar  137  TYR137      0.0417
     64  CZ        39.2210  -57.4670  -15.1240 C.ar  137  TYR137      0.1957
     65  OH        39.0910  -56.7270  -16.2840 O.3   137  TYR137     -0.2866
     66  N         44.0700  -63.3490  -12.9540 N.3   140  VAL140     -0.1231
     67  CA        43.6930  -63.5710  -14.3540 C.3   140  VAL140      0.1692
     68  C         44.5070  -62.7020  -15.3210 C.2   140  VAL140      0.2592
     69  O         45.0810  -63.1950  -16.3110 O.2   140  VAL140     -0.2718
     70  CB        42.1910  -63.2810  -14.5950 C.3   140  VAL140      0.0266
     71  CG1       41.8820  -63.1280  -16.0980 C.3   140  VAL140      0.0020
     72  CG2       41.3490  -64.3500  -13.9550 C.3   140  VAL140      0.0020
     73  N         44.5400  -61.4010  -15.0420 N.am  141  ASN141     -0.1974
     74  CA        45.1840  -60.4960  -15.9780 C.3   141  ASN141      0.1688
     75  C         46.7010  -60.6240  -16.0310 C.2   141  ASN141      0.2292
     76  O         47.2920  -60.3910  -17.0900 O.2   141  ASN141     -0.2864
     77  CB        44.7750  -59.0700  -15.6770 C.3   141  ASN141      0.1181
     78  CG        43.4100  -58.7440  -16.2530 C.2   141  ASN141      0.2629
     79  OD1       43.2600  -58.5500  -17.4660 O.2   141  ASN141     -0.2716
     80  ND2       42.4050  -58.6950  -15.3890 N.am  141  ASN141     -0.0877
     81  N         47.2770  -63.8590  -18.1290 N.3   144  SER144     -0.1217
     82  CA        47.1030  -63.5890  -19.5520 C.3   144  SER144      0.1889
     83  C         48.1440  -62.5830  -20.0940 C.2   144  SER144      0.2288
     84  O         48.4060  -62.5450  -21.3000 O.2   144  SER144     -0.2866
     85  CB        45.6740  -63.1070  -19.8280 C.3   144  SER144      0.2089
     86  OG        45.4190  -61.8700  -19.2040 O.3   144  SER144     -0.2183
     87  N         49.9080  -63.9890  -23.3500 N.3   148  MET148     -0.1245
     88  CA        49.6970  -63.2020  -24.5650 C.3   148  MET148      0.1570
     89  C         50.9680  -62.4570  -24.9520 C.2   148  MET148      0.2261
     90  O         51.0890  -61.9520  -26.0750 O.2   148  MET148     -0.2867
     91  CB        48.5440  -62.2230  -24.3950 C.3   148  MET148      0.0387
     92  CG        47.1870  -62.8320  -24.6780 C.3   148  MET148      0.0595
     93  SD        45.9190  -61.6240  -24.3310 S.3   148  MET148     -0.1393
     94  CE        44.5890  -62.1820  -25.3840 C.3   148  MET148      0.0692
     95  N         29.6210  -56.7470  -24.9510 N.3   267  PHE267     -0.1241
     96  CA        30.4220  -57.8690  -25.4490 C.3   267  PHE267      0.1605
     97  C         30.6400  -57.8240  -26.9630 C.2   267  PHE267      0.2264
     98  O         31.6900  -58.2710  -27.4350 O.2   267  PHE267     -0.2867
     99  CB        29.8000  -59.1970  -25.0370 C.3   267  PHE267      0.0534
    100  CG        30.2540  -59.6730  -23.6850 C.ar  267  PHE267     -0.0203
    101  CD1       31.5770  -59.9980  -23.4560 C.ar  267  PHE267     -0.0042
    102  CD2       29.3560  -59.7390  -22.6250 C.ar  267  PHE267     -0.0042
    103  CE1       31.9840  -60.4250  -22.2080 C.ar  267  PHE267     -0.0003
    104  CE2       29.7560  -60.1560  -21.3820 C.ar  267  PHE267     -0.0003
    105  CZ        31.0680  -60.5010  -21.1730 C.ar  267  PHE267     -0.0000
    106  N         33.6450  -56.0690  -26.8840 N.3   270  TYR270     -0.1241
    107  CA        34.7940  -56.8080  -26.3380 C.3   270  TYR270      0.1605
    108  C         35.3730  -57.8100  -27.3480 C.2   270  TYR270      0.2264
    109  O         36.5950  -58.0040  -27.4350 O.2   270  TYR270     -0.2867
    110  CB        34.4070  -57.5190  -25.0140 C.3   270  TYR270      0.0534
    111  CG        35.4370  -58.5180  -24.4930 C.ar  270  TYR270     -0.0201
    112  CD1       36.6240  -58.0840  -23.9120 C.ar  270  TYR270     -0.0009
    113  CD2       35.2000  -59.8930  -24.5460 C.ar  270  TYR270     -0.0009
    114  CE1       37.5720  -58.9860  -23.4350 C.ar  270  TYR270      0.0417
    115  CE2       36.1400  -60.8060  -24.0660 C.ar  270  TYR270      0.0417
    116  CZ        37.3290  -60.3450  -23.5110 C.ar  270  TYR270      0.1957
    117  OH        38.2730  -61.2400  -23.0340 O.3   270  TYR270     -0.2866
    118  N         38.7060  -57.4570  -30.0330 N.3   273  MET273     -0.1245
    119  CA        40.1620  -57.5900  -29.9210 C.3   273  MET273      0.1570
    120  C         40.6560  -58.9770  -30.3120 C.2   273  MET273      0.2261
    121  O         41.7170  -59.0790  -30.9060 O.2   273  MET273     -0.2867
    122  CB        40.6680  -57.1740  -28.5210 C.3   273  MET273      0.0387
    123  CG        39.9180  -57.6700  -27.2770 C.3   273  MET273      0.0595
    124  SD        40.4270  -56.8330  -25.7030 S.3   273  MET273     -0.1393
    125  CE        41.0830  -58.2320  -24.7830 C.3   273  MET273      0.0692
    126  N         46.0030  -55.2720  -23.2400 N.3   308  ASN308     -0.1226
    127  CA        44.7620  -55.2340  -22.4910 C.3   308  ASN308      0.1770
    128  C         44.9570  -55.5850  -20.9980 C.2   308  ASN308      0.2439
    129  O         44.6490  -54.7410  -20.1250 O.2   308  ASN308     -0.2733
    130  CB        43.7380  -56.1660  -23.1280 C.3   308  ASN308      0.1168
    131  CG        42.4210  -56.1620  -22.3910 C.2   308  ASN308      0.2627
    132  OD1       42.0360  -57.1510  -21.7670 O.2   308  ASN308     -0.2716
    133  ND2       41.7090  -55.0460  -22.4730 N.am  308  ASN308     -0.0877
    134  N         45.5320  -56.7850  -20.6900 N.am  309  PRO309     -0.2729
    135  CA        45.7460  -57.0700  -19.2590 C.3   309  PRO309      0.1401
    136  C         46.7820  -56.1150  -18.6560 C.2   309  PRO309      0.2269
    137  O         46.5700  -55.6330  -17.5480 O.2   309  PRO309     -0.2865
    138  CB        46.2840  -58.5090  -19.2500 C.3   309  PRO309      0.0296
    139  CG        46.0240  -59.0540  -20.6120 C.3   309  PRO309      0.0237
    140  CD        46.0400  -57.8850  -21.5350 C.3   309  PRO309      0.0939
    141  N         45.0820  -53.0840  -17.8680 N.3   312  ILE312     -0.1245
    142  CA        44.1620  -53.3240  -16.7470 C.3   312  ILE312      0.1561
    143  C         44.8740  -53.4480  -15.4070 C.2   312  ILE312      0.2260
    144  O         44.3740  -52.9780  -14.3980 O.2   312  ILE312     -0.2867
    145  CB        43.3180  -54.5770  -16.9820 C.3   312  ILE312      0.0252
    146  CG1       42.1440  -54.2280  -17.8870 C.3   312  ILE312      0.0019
    147  CG2       42.8050  -55.1520  -15.6750 C.3   312  ILE312      0.0019
    148  CD1       41.3670  -55.4240  -18.3040 C.3   312  ILE312      0.0001
    149  N         36.8080  -51.3240  -20.0520 N.3   368  GLU368     -0.1245
    150  CA        36.6160  -52.6800  -19.5140 C.3   368  GLU368      0.1567
    151  C         36.6510  -52.6970  -17.9920 C.2   368  GLU368      0.2260
    152  O         35.7800  -53.2930  -17.3780 O.2   368  GLU368     -0.2867
    153  CB        37.6630  -53.6560  -20.0470 C.3   368  GLU368      0.0388
    154  CG        37.4120  -55.0780  -19.6130 C.3   368  GLU368      0.1160
    155  CD        38.5160  -56.0300  -20.0470 C.2   368  GLU368      0.3649
    156  OE1       39.3350  -55.6560  -20.9200 O.co2 368  GLU368     -0.2457
    157  OE2       38.5750  -57.1570  -19.4990 O.co2 368  GLU368     -0.2457
    158  N         28.3280  -58.9290  -13.1580 N.3   376  LEU376     -0.1245
    159  CA        27.9720  -60.2450  -12.6290 C.3   376  LEU376      0.1561
    160  C         27.4540  -60.0720  -11.1980 C.2   376  LEU376      0.2260
    161  O         26.3980  -60.6100  -10.8180 O.2   376  LEU376     -0.2867
    162  CB        29.1880  -61.1870  -12.6760 C.3   376  LEU376      0.0270
    163  CG        29.0590  -62.6490  -12.2240 C.3   376  LEU376      0.0019
    164  CD1       28.0280  -63.4110  -13.0570 C.3   376  LEU376      0.0001
    165  CD2       30.4130  -63.3500  -12.2580 C.3   376  LEU376      0.0001
@<TRIPOS>BOND
     1   121   120    2
     2   120   119    1
     3   118   119    1
     4   119   122    1
     5   122   123    1
     6    98    97    2
     7   109   108    2
     8   108   107    1
     9   123   124    1
    10    97    96    1
    11   106   107    1
    12   107   110    1
    13    90    89    2
    14   124   125    1
    15    24    23    2
    16    96    99    1
    17    96    95    1
    18    94    93    1
    19    99   100    1
    20   110   111    1
    21    89    88    1
    22    92    91    1
    23    92    93    1
    24    88    91    1
    25    88    87    1
    26   113   111   ar
    27   113   115   ar
    28   111   112   ar
    29    23    22    1
    30   115   116   ar
    31   112   114   ar
    32   100   101   ar
    33   100   102   ar
    34    33    34    1
    35    22    21    1
    36    22    25    1
    37   116   114   ar
    38   116   117    1
    39   101   103   ar
    40    37    34    1
    41    37    38    1
    42   126   127    1
    43    27    29   ar
    44    27    26   ar
    45   130   127    1
    46   130   131    1
    47    29    31   ar
    48    25    26    1
    49    34    35    1
    50   102   104   ar
    51   127   128    1
    52   133   131   am
    53   131   132    2
    54    35    36    2
    55    26    28   ar
    56    38    40   ar
    57    38    39   ar
    58   103   105   ar
    59    40    42   ar
    60    39    41   ar
    61   140   134    1
    62   140   139    1
    63    31    32    1
    64    31    30   ar
    65   104   105   ar
    66    84    83    2
    67   128   134   am
    68   128   129    2
    69    28    30   ar
    70   156   155   ar
    71    42    43   ar
    72   134   135    1
    73    41    43   ar
    74   139   138    1
    75    43    44    1
    76    83    82    1
    77   149   150    1
    78   153   154    1
    79   153   150    1
    80   155   154    1
    81   155   157   ar
    82    13    12    2
    83    85    82    1
    84    85    86    1
    85    53    52    1
    86    82    81    1
    87   150   151    1
    88    20    18    1
    89    19    18    1
    90   135   138    1
    91   135   136    1
    92    18    17    2
    93    12    11    1
    94   136   137    2
    95    52    51    1
    96   148   146    1
    97    17    16    1
    98    11    14    1
    99    11    10    1
   100   151   152    2
   101   146   145    1
   102   141   142    1
   103    16    15    1
   104    79    78    2
   105    51    50    1
   106    14    15    1
   107    76    75    2
   108   145   142    1
   109   145   147    1
   110   142   143    1
   111    69    68    2
   112    65    64    1
   113    78    77    1
   114    78    80   am
   115    49    50    1
   116    49    46    1
   117    71    70    1
   118    75    74    1
   119    74    77    1
   120    74    73    1
   121   143   144    2
   122    68    73   am
   123    68    67    1
   124    45    46    1
   125    62    64   ar
   126    62    60   ar
   127    64    63   ar
   128    46    47    1
   129    70    67    1
   130    70    72    1
   131     9     7   ar
   132    67    66    1
   133     4     3    2
   134    60    59   ar
   135    63    61   ar
   136    47    48    2
   137     7     8   ar
   138     7     6    1
   139   158   159    1
   140    57    56    2
   141     3     2    1
   142   164   163    1
   143    59    61   ar
   144    59    58    1
   145   162   159    1
   146   162   163    1
   147   159   160    1
   148     6     5    1
   149   165   163    1
   150     2     5    1
   151     2     1    1
   152    56    55    1
   153    58    55    1
   154    55    54    1
   155   160   161    2
