@<TRIPOS>MOLECULE
tmp/4tpjB02.pdb
 108 101 0 0 0
SMALL
GASTEIGER

@<TRIPOS>ATOM
      1  N         40.6460  -82.2780  -18.8190 N.3    81  ILE81      -0.1245
      2  CA        40.0470  -82.2780  -20.1540 C.3    81  ILE81       0.1561
      3  C         40.5790  -81.1170  -20.9900 C.2    81  ILE81       0.2260
      4  O         40.8350  -81.2500  -22.1870 O.2    81  ILE81      -0.2867
      5  CB        38.5250  -82.2230  -20.0680 C.3    81  ILE81       0.0252
      6  CG1       37.9970  -83.5610  -19.5560 C.3    81  ILE81       0.0019
      7  CG2       37.9320  -81.9750  -21.4150 C.3    81  ILE81       0.0019
      8  CD1       36.4820  -83.6380  -19.4860 C.3    81  ILE81       0.0001
      9  N         44.0640  -81.9470  -22.1610 N.3    84  VAL84      -0.1245
     10  CA        43.8740  -82.8210  -23.3270 C.3    84  VAL84       0.1561
     11  C         43.5000  -82.0040  -24.5890 C.2    84  VAL84       0.2260
     12  O         43.8540  -82.3810  -25.7200 O.2    84  VAL84      -0.2867
     13  CB        42.8130  -83.8920  -23.0100 C.3    84  VAL84       0.0252
     14  CG1       42.2250  -84.5210  -24.2660 C.3    84  VAL84       0.0019
     15  CG2       43.4210  -84.9240  -22.1250 C.3    84  VAL84       0.0019
     16  N         45.8170  -81.8430  -27.8410 N.3    88  LEU88      -0.1245
     17  CA        45.3280  -82.1060  -29.2050 C.3    88  LEU88       0.1561
     18  C         45.6840  -80.9850  -30.1870 C.2    88  LEU88       0.2260
     19  O         46.0590  -81.2210  -31.3580 O.2    88  LEU88      -0.2867
     20  CB        43.8170  -82.2850  -29.1910 C.3    88  LEU88       0.0270
     21  CG        43.3900  -83.7420  -29.2810 C.3    88  LEU88       0.0019
     22  CD1       44.0450  -84.5270  -28.1570 C.3    88  LEU88       0.0001
     23  CD2       41.8750  -83.8390  -29.2080 C.3    88  LEU88       0.0001
     24  N         44.6170  -80.7110  -40.3600 N.3    95  ASN95      -0.1225
     25  CA        43.3330  -81.3520  -40.5870 C.3    95  ASN95       0.1785
     26  C         42.2710  -80.6570  -39.7560 C.2    95  ASN95       0.2598
     27  O         42.2260  -80.7670  -38.5330 O.2    95  ASN95      -0.2718
     28  CB        43.3920  -82.8360  -40.2510 C.3    95  ASN95       0.1169
     29  CG        42.1930  -83.5950  -40.7590 C.2    95  ASN95       0.2627
     30  OD1       41.0530  -83.1310  -40.6390 O.2    95  ASN95      -0.2716
     31  ND2       42.4350  -84.7790  -41.3220 N.am   95  ASN95      -0.0877
     32  N         41.4370  -79.9170  -40.4620 N.am   96  THR96      -0.1939
     33  CA        40.4450  -79.0390  -39.8850 C.3    96  THR96       0.2028
     34  C         39.5650  -79.6780  -38.7810 C.2    96  THR96       0.2642
     35  O         39.2960  -79.0430  -37.7510 O.2    96  THR96      -0.2714
     36  CB        39.6060  -78.4630  -41.0550 C.3    96  THR96       0.1808
     37  OG1       39.9170  -77.0710  -41.2120 O.3    96  THR96      -0.2208
     38  CG2       38.1160  -78.6550  -40.8560 C.3    96  THR96       0.0379
     39  N         39.1490  -80.9310  -38.9820 N.am   97  TRP97      -0.1959
     40  CA        38.3090  -81.6520  -38.0120 C.3    97  TRP97       0.1771
     41  C         39.0170  -81.9460  -36.7020 C.2    97  TRP97       0.2619
     42  O         38.4140  -81.8810  -35.6270 O.2    97  TRP97      -0.2715
     43  CB        37.7850  -82.9400  -38.6370 C.3    97  TRP97       0.0590
     44  CG        36.5540  -82.6560  -39.4380 C.ar   97  TRP97       0.0006
     45  CD1       36.4760  -82.4550  -40.7820 C.ar   97  TRP97       0.0946
     46  CD2       35.2160  -82.5020  -38.9280 C.ar   97  TRP97       0.0152
     47  NE1       35.1750  -82.1890  -41.1450 N.ar   97  TRP97      -0.2442
     48  CE2       34.3800  -82.2180  -40.0300 C.ar   97  TRP97       0.0810
     49  CE3       34.6440  -82.5850  -37.6460 C.ar   97  TRP97       0.0012
     50  CZ2       33.0010  -82.0250  -39.8940 C.ar   97  TRP97       0.0191
     51  CZ3       33.2750  -82.3870  -37.5110 C.ar   97  TRP97       0.0001
     52  CH2       32.4720  -82.1070  -38.6280 C.ar   97  TRP97       0.0015
     53  N         40.2940  -82.2810  -36.8090 N.am   98  PHE98      -0.1974
     54  CA        41.1380  -82.4530  -35.6510 C.3    98  PHE98       0.1639
     55  C         41.1830  -81.1670  -34.8210 C.2    98  PHE98       0.2290
     56  O         41.0190  -81.2110  -33.5990 O.2    98  PHE98      -0.2864
     57  CB        42.5370  -82.8790  -36.0690 C.3    98  PHE98       0.0560
     58  CG        43.2530  -83.6430  -35.0170 C.ar   98  PHE98      -0.0200
     59  CD1       43.9170  -82.9790  -34.0020 C.ar   98  PHE98      -0.0042
     60  CD2       43.2260  -85.0140  -35.0060 C.ar   98  PHE98      -0.0042
     61  CE1       44.5640  -83.6660  -33.0120 C.ar   98  PHE98      -0.0003
     62  CE2       43.8750  -85.7140  -34.0160 C.ar   98  PHE98      -0.0003
     63  CZ        44.5480  -85.0380  -33.0170 C.ar   98  PHE98      -0.0000
     64  N         37.8180  -80.4800  -33.1490 N.3   101  SER101     -0.1217
     65  CA        37.6870  -81.3820  -32.0140 C.3   101  SER101      0.1889
     66  C         38.5240  -80.9080  -30.8500 C.2   101  SER101      0.2288
     67  O         38.0490  -80.9130  -29.7240 O.2   101  SER101     -0.2866
     68  CB        38.1180  -82.7700  -32.3980 C.3   101  SER101      0.2089
     69  OG        37.3490  -83.1740  -33.5060 O.3   101  SER101     -0.2183
     70  N         36.9880  -80.0450  -27.2430 N.3   105  VAL105     -0.1245
     71  CA        37.5230  -80.5300  -25.9690 C.3   105  VAL105      0.1561
     72  C         37.8220  -79.3400  -25.0500 C.2   105  VAL105      0.2260
     73  O         37.5740  -79.3760  -23.8420 O.2   105  VAL105     -0.2867
     74  CB        38.8140  -81.3620  -26.1440 C.3   105  VAL105      0.0252
     75  CG1       39.3130  -81.8020  -24.8040 C.3   105  VAL105      0.0019
     76  CG2       38.5760  -82.5800  -26.9970 C.3   105  VAL105      0.0019
     77  N         34.3620  -78.1330  -23.6750 N.3   108  VAL108     -0.1245
     78  CA        33.8910  -79.0250  -22.6200 C.3   108  VAL108      0.1561
     79  C         34.6890  -78.8180  -21.3450 C.2   108  VAL108      0.2260
     80  O         34.1260  -78.5050  -20.2700 O.2   108  VAL108     -0.2867
     81  CB        33.9850  -80.5020  -23.0650 C.3   108  VAL108      0.0252
     82  CG1       33.7990  -81.4420  -21.9020 C.3   108  VAL108      0.0019
     83  CG2       32.9840  -80.7750  -24.1710 C.3   108  VAL108      0.0019
     84  N         31.2240  -88.3230  -18.3930 N.3   214  LEU214     -0.1245
     85  CA        32.2720  -88.4620  -19.4010 C.3   214  LEU214      0.1561
     86  C         31.6610  -88.7910  -20.7680 C.2   214  LEU214      0.2260
     87  O         32.0850  -88.2330  -21.7890 O.2   214  LEU214     -0.2867
     88  CB        33.2900  -89.5180  -18.9840 C.3   214  LEU214      0.0270
     89  CG        34.1450  -89.0420  -17.8090 C.3   214  LEU214      0.0019
     90  CD1       35.1530  -90.0990  -17.4160 C.3   214  LEU214      0.0001
     91  CD2       34.8150  -87.7140  -18.1060 C.3   214  LEU214      0.0001
     92  N         30.1710  -85.7990  -22.1420 N.3   217  ALA217     -0.1231
     93  CA        31.2690  -84.8770  -22.3870 C.3   217  ALA217      0.1694
     94  C         31.8610  -85.1120  -23.7800 C.2   217  ALA217      0.2591
     95  O         32.0500  -84.1790  -24.5720 O.2   217  ALA217     -0.2718
     96  CB        32.3390  -85.0470  -21.3210 C.3   217  ALA217      0.0304
     97  N         32.1300  -86.3810  -24.0690 N.am  218  ALA218     -0.1980
     98  CA        32.6320  -86.7940  -25.3610 C.3   218  ALA218      0.1597
     99  C         31.6530  -86.3550  -26.4250 C.2   218  ALA218      0.2287
    100  O         32.0190  -85.7420  -27.4510 O.2   218  ALA218     -0.2864
    101  CB        32.8090  -88.2820  -25.3890 C.3   218  ALA218      0.0319
    102  N         32.0250  -82.7970  -27.1810 N.3   221  VAL221     -0.1245
    103  CA        33.1690  -82.4610  -28.0160 C.3   221  VAL221      0.1561
    104  C         32.7460  -82.6640  -29.4640 C.2   221  VAL221      0.2260
    105  O         33.1120  -81.8890  -30.3520 O.2   221  VAL221     -0.2867
    106  CB        34.4140  -83.2920  -27.6530 C.3   221  VAL221      0.0252
    107  CG1       35.4580  -83.1560  -28.7190 C.3   221  VAL221      0.0019
    108  CG2       34.9740  -82.8260  -26.3320 C.3   221  VAL221      0.0019
@<TRIPOS>BOND
     1    31    29   am
     2    37    36    1
     3    47    45   ar
     4    47    48   ar
     5    36    38    1
     6    36    33    1
     7    45    44   ar
     8    29    30    2
     9    29    28    1
    10    25    24    1
    11    25    28    1
    12    25    26    1
    13    32    33    1
    14    32    26   am
    15    48    50   ar
    16    48    46   ar
    17    50    52   ar
    18    33    34    1
    19    26    27    2
    20    44    46   ar
    21    44    43    1
    22    39    34   am
    23    39    40    1
    24    46    49   ar
    25    34    35    2
    26    43    40    1
    27    52    51   ar
    28    40    41    1
    29    49    51   ar
    30    53    41   am
    31    53    54    1
    32    41    42    2
    33    57    54    1
    34    57    58    1
    35    54    55    1
    36    58    60   ar
    37    58    59   ar
    38    60    62   ar
    39    55    56    2
    40    62    63   ar
    41    59    61   ar
    42    69    68    1
    43    64    65    1
    44    63    61   ar
    45    68    65    1
    46    65    66    1
    47    19    18    2
    48    66    67    2
    49   105   104    2
    50    18    17    1
    51   104   103    1
    52    21    23    1
    53    21    20    1
    54    21    22    1
    55    17    20    1
    56    17    16    1
    57   107   106    1
    58   103   106    1
    59   103   102    1
    60   106   108    1
    61   100    99    2
    62    70    71    1
    63    76    74    1
    64    99    98    1
    65    74    71    1
    66    74    75    1
    67    71    72    1
    68    12    11    2
    69   101    98    1
    70    98    97    1
    71    72    73    2
    72    11    10    1
    73    95    94    2
    74    14    13    1
    75    83    81    1
    76    97    94   am
    77    94    93    1
    78    77    78    1
    79    10    13    1
    80    10     9    1
    81    81    78    1
    82    81    82    1
    83    13    15    1
    84    78    79    1
    85    93    92    1
    86    93    96    1
    87     4     3    2
    88    87    86    2
    89     7     5    1
    90    79    80    2
    91     3     2    1
    92    86    85    1
    93     2     5    1
    94     2     1    1
    95     5     6    1
    96     6     8    1
    97    85    88    1
    98    85    84    1
    99    88    89    1
   100    91    89    1
   101    89    90    1
