@<TRIPOS>MOLECULE
tmp/4tpkA05.pdb
 228 227 0 0 0
SMALL
GASTEIGER

@<TRIPOS>ATOM
      1  N          1.0910   17.0920    5.4270 N.3    66  ASN66      -0.1225
      2  CA         2.5350   16.9820    5.2520 C.3    66  ASN66       0.1785
      3  C          2.9610   15.5160    5.3090 C.2    66  ASN66       0.2597
      4  O          2.3120   14.6970    5.9670 O.2    66  ASN66      -0.2718
      5  CB         3.2790   17.8020    6.3150 C.3    66  ASN66       0.1169
      6  CG         3.0620   19.3010    6.1570 C.2    66  ASN66       0.2627
      7  OD1        3.2320   19.8480    5.0750 O.2    66  ASN66      -0.2716
      8  ND2        2.6700   19.9630    7.2320 N.am   66  ASN66      -0.0877
      9  N          4.0480   15.2020    4.6060 N.am   67  ILE67      -0.1966
     10  CA         4.5670   13.8410    4.4560 C.3    67  ILE67       0.1727
     11  C          5.8400   13.6640    5.2740 C.2    67  ILE67       0.2616
     12  O          6.6060   14.6010    5.4470 O.2    67  ILE67      -0.2715
     13  CB         4.8710   13.5180    2.9640 C.3    67  ILE67       0.0290
     14  CG1        3.6630   13.8210    2.0920 C.3    67  ILE67       0.0022
     15  CG2        5.2700   12.0720    2.7670 C.3    67  ILE67       0.0023
     16  CD1        2.4330   13.0830    2.5200 C.3    67  ILE67       0.0001
     17  N          6.0680   12.4620    5.7850 N.am   68  ASP68      -0.1957
     18  CA         7.2930   12.1750    6.5270 C.3    68  ASP68       0.1840
     19  C          8.4200   11.7850    5.5700 C.2    68  ASP68       0.2622
     20  O          8.3540   10.7450    4.9060 O.2    68  ASP68      -0.2715
     21  CB         7.0520   11.0590    7.5450 C.3    68  ASP68       0.1450
     22  CG         8.2790   10.7560    8.3790 C.2    68  ASP68       0.3671
     23  OD1        9.2400   11.5610    8.3370 O.co2  68  ASP68      -0.2456
     24  OD2        8.2780    9.7190    9.0830 O.co2  68  ASP68      -0.2456
     25  N          9.4570   12.6150    5.5060 N.am   69  GLN69      -0.1963
     26  CA        10.5630   12.3570    4.5870 C.3    69  GLN69       0.1733
     27  C         11.9190   12.3820    5.2910 C.2    69  GLN69       0.2617
     28  O         12.9320   12.7370    4.6970 O.2    69  GLN69      -0.2715
     29  CB        10.5340   13.3710    3.4420 C.3    69  GLN69       0.0408
     30  CG         9.3110   13.2180    2.5380 C.3    69  GLN69       0.0908
     31  CD         9.1550   14.3480    1.5350 C.2    69  GLN69       0.2608
     32  OE1        9.2460   15.5250    1.8840 O.2    69  GLN69      -0.2717
     33  NE2        8.9080   13.9900    0.2830 N.am   69  GLN69      -0.0878
     34  N         11.9310   11.9880    6.5600 N.am   70  SER70      -0.1950
     35  CA        13.1590   11.9810    7.3400 C.3    70  SER70       0.1924
     36  C         14.0670   10.8540    6.8740 C.2    70  SER70       0.2314
     37  O         15.2880   10.9540    6.9710 O.2    70  SER70      -0.2863
     38  CB        12.8610   11.8360    8.8370 C.3    70  SER70       0.2116
     39  OG        12.0390   12.8860    9.3170 O.3    70  SER70      -0.2180
     40  N          3.8070    4.7440    6.6130 N.3    80  TRP80      -0.1227
     41  CA         2.7880    5.5890    7.2270 C.3    80  TRP80       0.1737
     42  C          2.3840    6.7300    6.2990 C.2    80  TRP80       0.2595
     43  O          1.3600    7.3840    6.5160 O.2    80  TRP80      -0.2718
     44  CB         3.2800    6.1410    8.5770 C.3    80  TRP80       0.0564
     45  CG         3.6030    5.0580    9.5660 C.ar   80  TRP80       0.0003
     46  CD1        4.8330    4.7420   10.0580 C.ar   80  TRP80       0.0946
     47  CD2        2.6860    4.1210   10.1510 C.ar   80  TRP80       0.0152
     48  NE1        4.7420    3.6800   10.9210 N.ar   80  TRP80      -0.2442
     49  CE2        3.4360    3.2760   10.9940 C.ar   80  TRP80       0.0810
     50  CE3        1.3070    3.9170   10.0470 C.ar   80  TRP80       0.0012
     51  CZ2        2.8490    2.2390   11.7320 C.ar   80  TRP80       0.0191
     52  CZ3        0.7250    2.8960   10.7790 C.ar   80  TRP80       0.0001
     53  CH2        1.4940    2.0670   11.6120 C.ar   80  TRP80       0.0015
     54  N          3.1990    6.9650    5.2720 N.am   81  ASN81      -0.1974
     55  CA         2.9080    7.9760    4.2650 C.3    81  ASN81       0.1688
     56  C          1.7260    7.5480    3.4140 C.2    81  ASN81       0.2292
     57  O          1.5550    6.3570    3.1500 O.2    81  ASN81      -0.2864
     58  CB         4.1320    8.2270    3.3880 C.3    81  ASN81       0.1181
     59  CG         5.2360    8.9730    4.1190 C.2    81  ASN81       0.2629
     60  OD1        4.9750    9.8120    4.9920 O.2    81  ASN81      -0.2716
     61  ND2        6.4800    8.6750    3.7610 N.am   81  ASN81      -0.0877
     62  N         -4.8640    6.9320   13.2300 N.3   113  GLY113     -0.1210
     63  CA        -4.1300    7.9680   13.9400 C.3   113  GLY113      0.1956
     64  C         -3.1450    8.7060   13.0390 C.2   113  GLY113      0.2612
     65  O         -3.0420    8.4210   11.8520 O.2   113  GLY113     -0.2717
     66  N         -2.4290    9.6680   13.6040 N.am  114  GLY114     -0.1942
     67  CA        -1.4600   10.4290   12.8520 C.3   114  GLY114      0.2014
     68  C         -1.2400   11.8060   13.4450 C.2   114  GLY114      0.2639
     69  O         -0.9420   12.7550   12.7200 O.2   114  GLY114     -0.2714
     70  N         -1.3800   11.9120   14.7650 N.am  115  GLY115     -0.1954
     71  CA        -1.1660   13.1610   15.4690 C.3   115  GLY115      0.1869
     72  C         -2.1890   14.2230   15.1130 C.2   115  GLY115      0.2309
     73  O         -1.9760   15.4040   15.3900 O.2   115  GLY115     -0.2863
     74  N         -2.5880   15.2510   12.3460 N.3   117  GLN117     -0.1231
     75  CA        -1.9580   16.0060   11.2510 C.3   117  GLN117      0.1698
     76  C         -1.7630   15.1560    9.9860 C.2   117  GLN117      0.2592
     77  O         -1.4960   15.6910    8.9110 O.2   117  GLN117     -0.2718
     78  CB        -0.5980   16.5640   11.6870 C.3   117  GLN117      0.0381
     79  CG        -0.5500   17.1050   13.1040 C.3   117  GLN117      0.0905
     80  CD        -1.4840   18.2870   13.3270 C.2   117  GLN117      0.2608
     81  OE1       -1.2940   19.3680   12.7590 O.2   117  GLN117     -0.2717
     82  NE2       -2.4890   18.0900   14.1710 N.am  117  GLN117     -0.0878
     83  N         -1.8790   13.8340   10.1230 N.am  118  THR118     -0.1953
     84  CA        -1.5770   12.9000    9.0290 C.3   118  THR118      0.1897
     85  C         -2.4210   11.6330    9.1060 C.2   118  THR118      0.2313
     86  O         -3.2050   11.4370   10.0360 O.2   118  THR118     -0.2863
     87  CB        -0.0880   12.4440    9.0240 C.3   118  THR118      0.1794
     88  OG1        0.1940   11.7170   10.2270 O.3   118  THR118     -0.2208
     89  CG2        0.8880   13.6260    8.8990 C.3   118  THR118      0.0378
     90  N         -4.1840   -1.1870    7.4420 N.3   126  TYR126     -0.1241
     91  CA        -5.5950   -1.0250    7.8420 C.3   126  TYR126      0.1605
     92  C         -6.5840   -1.8240    6.9690 C.2   126  TYR126      0.2264
     93  O         -7.7910   -1.5560    6.9890 O.2   126  TYR126     -0.2867
     94  CB        -6.0180    0.4580    7.8220 C.3   126  TYR126      0.0534
     95  CG        -5.1330    1.4290    8.5880 C.ar  126  TYR126     -0.0201
     96  CD1       -4.4690    1.0480    9.7540 C.ar  126  TYR126     -0.0009
     97  CD2       -4.9670    2.7400    8.1360 C.ar  126  TYR126     -0.0009
     98  CE1       -3.6560    1.9430   10.4390 C.ar  126  TYR126      0.0417
     99  CE2       -4.1620    3.6440    8.8140 C.ar  126  TYR126      0.0417
    100  CZ        -3.5080    3.2480    9.9620 C.ar  126  TYR126      0.1957
    101  OH        -2.7110    4.1550   10.6300 O.3   126  TYR126     -0.2866
    102  N         -6.3060    3.8010   16.6040 N.3   195  GLU195     -0.1231
    103  CA        -5.0140    3.8000   17.2730 C.3   195  GLU195      0.1699
    104  C         -4.4780    5.2150   17.4130 C.2   195  GLU195      0.2593
    105  O         -4.5800    6.0100   16.4820 O.2   195  GLU195     -0.2718
    106  CB        -4.0100    2.9320   16.5080 C.3   195  GLU195      0.0402
    107  CG        -2.6750    2.7510   17.2180 C.3   195  GLU195      0.1161
    108  CD        -1.5960    3.7130   16.7410 C.2   195  GLU195      0.3649
    109  OE1       -1.7980    4.3760   15.6900 O.co2 195  GLU195     -0.2457
    110  OE2       -0.5430    3.8020   17.4200 O.co2 195  GLU195     -0.2457
    111  N         -3.9210    5.5190   18.5800 N.am  196  SER196     -0.1938
    112  CA        -3.2400    6.7850   18.8180 C.3   196  SER196      0.2055
    113  C         -4.2300    7.9550   18.7570 C.2   196  SER196      0.2642
    114  O         -5.1600    8.0090   19.5660 O.2   196  SER196     -0.2714
    115  CB        -2.0980    6.9520   17.8180 C.3   196  SER196      0.2130
    116  OG        -1.1190    7.8570   18.2940 O.3   196  SER196     -0.2179
    117  N         -4.0510    8.8820   17.8200 N.am  197  ALA197     -0.1977
    118  CA        -5.0250    9.9730   17.6660 C.3   197  ALA197      0.1597
    119  C         -6.3930    9.4250   17.2260 C.2   197  ALA197      0.2287
    120  O         -7.4260   10.0750   17.4050 O.2   197  ALA197     -0.2864
    121  CB        -4.5200   11.0290   16.6780 C.3   197  ALA197      0.0319
    122  N         -1.1230   15.2370   24.8060 N.3   229  TRP229     -0.1241
    123  CA        -1.0460   15.7870   23.4470 C.3   229  TRP229      0.1605
    124  C         -2.3890   15.9240   22.7600 C.2   229  TRP229      0.2264
    125  O         -2.4770   16.5130   21.6910 O.2   229  TRP229     -0.2867
    126  CB        -0.1470   14.9190   22.5580 C.3   229  TRP229      0.0550
    127  CG        -0.3720   13.4400   22.7290 C.ar  229  TRP229      0.0003
    128  CD1        0.3240   12.6030   23.5530 C.ar  229  TRP229      0.0946
    129  CD2       -1.3570   12.6220   22.0690 C.ar  229  TRP229      0.0152
    130  NE1       -0.1630   11.3280   23.4510 N.ar  229  TRP229     -0.2442
    131  CE2       -1.1920   11.3070   22.5460 C.ar  229  TRP229      0.0810
    132  CE3       -2.3560   12.8740   21.1200 C.ar  229  TRP229      0.0012
    133  CZ2       -1.9940   10.2450   22.1150 C.ar  229  TRP229      0.0191
    134  CZ3       -3.1510   11.8200   20.6940 C.ar  229  TRP229      0.0001
    135  CH2       -2.9660   10.5240   21.1950 C.ar  229  TRP229      0.0015
    136  N          8.6350   16.3150   19.2260 N.3   283  PRO283     -0.2102
    137  CA         8.1550   15.3890   18.1870 C.3   283  PRO283      0.1504
    138  C          6.7070   14.9280   18.4140 C.2   283  PRO283      0.2576
    139  O          6.1470   14.2270   17.5670 O.2   283  PRO283     -0.2718
    140  CB         9.1240   14.2010   18.2970 C.3   283  PRO283      0.0282
    141  CG        10.3380   14.7520   18.9940 C.3   283  PRO283      0.0208
    142  CD         9.8310   15.8030   19.9210 C.3   283  PRO283      0.0893
    143  N          6.1250   15.3090   19.5490 N.am  284  LEU284     -0.1966
    144  CA         4.7410   14.9800   19.8680 C.3   284  LEU284      0.1728
    145  C          3.8500   16.1990   19.7790 C.2   284  LEU284      0.2617
    146  O          2.7850   16.2400   20.3950 O.2   284  LEU284     -0.2715
    147  CB         4.6250   14.3800   21.2680 C.3   284  LEU284      0.0311
    148  CG         5.2040   12.9800   21.3470 C.3   284  LEU284      0.0022
    149  CD1        6.5210   12.9960   22.1230 C.3   284  LEU284      0.0001
    150  CD2        4.1910   12.0010   21.9400 C.3   284  LEU284      0.0001
    151  N          4.2830   17.1990   19.0220 N.am  285  SER285     -0.1936
    152  CA         3.4910   18.4080   18.8960 C.3   285  SER285      0.2055
    153  C          2.2850   18.1540   18.0130 C.2   285  SER285      0.2642
    154  O          2.3800   17.5200   16.9630 O.2   285  SER285     -0.2714
    155  CB         4.3340   19.5600   18.3530 C.3   285  SER285      0.2130
    156  OG         5.0600   20.1690   19.4070 O.3   285  SER285     -0.2179
    157  N          1.1430   18.6240   18.4870 N.am  286  VAL286     -0.1977
    158  CA        -0.0920   18.6050   17.7330 C.3   286  VAL286      0.1596
    159  C         -0.4480   20.0480   17.4410 C.2   286  VAL286      0.2287
    160  O         -1.0480   20.7330   18.2740 O.2   286  VAL286     -0.2864
    161  CB        -1.2070   17.9070   18.5130 C.3   286  VAL286      0.0276
    162  CG1       -2.5570   18.0470   17.8040 C.3   286  VAL286      0.0022
    163  CG2       -0.8270   16.4490   18.7460 C.3   286  VAL286      0.0022
    164  N          9.8470    5.5370   19.4050 N.3   326  ALA326     -0.1231
    165  CA         9.6540    6.0510   18.0580 C.3   326  ALA326      0.1694
    166  C          9.9420    7.5470   17.9750 C.2   326  ALA326      0.2592
    167  O         10.3930    8.0480   16.9470 O.2   326  ALA326     -0.2718
    168  CB         8.2310    5.7570   17.5890 C.3   326  ALA326      0.0304
    169  N          9.6940    8.2510   19.0700 N.am  327  PHE327     -0.1976
    170  CA         9.7520    9.7010   19.0700 C.3   327  PHE327      0.1639
    171  C         11.1560   10.2160   19.3540 C.2   327  PHE327      0.2290
    172  O         11.4600   11.3880   19.1260 O.2   327  PHE327     -0.2864
    173  CB         8.7440   10.2440   20.0850 C.3   327  PHE327      0.0560
    174  CG         7.3290    9.8590   19.7710 C.ar  327  PHE327     -0.0200
    175  CD1        6.8060    8.6590   20.2260 C.ar  327  PHE327     -0.0042
    176  CD2        6.5370   10.6730   18.9740 C.ar  327  PHE327     -0.0042
    177  CE1        5.5130    8.2820   19.9110 C.ar  327  PHE327     -0.0003
    178  CE2        5.2420   10.3100   18.6570 C.ar  327  PHE327     -0.0003
    179  CZ         4.7260    9.1100   19.1250 C.ar  327  PHE327     -0.0000
    180  N         13.5770   11.2830   16.2730 N.3   330  TYR330     -0.1241
    181  CA        13.1280   12.4640   15.5400 C.3   330  TYR330      0.1605
    182  C         13.4090   13.7250   16.3330 C.2   330  TYR330      0.2264
    183  O         12.5250   14.5640   16.4850 O.2   330  TYR330     -0.2867
    184  CB        11.6260   12.4030   15.2340 C.3   330  TYR330      0.0534
    185  CG        11.2070   11.4350   14.1520 C.ar  330  TYR330     -0.0201
    186  CD1       11.0460   10.0850   14.4250 C.ar  330  TYR330     -0.0009
    187  CD2       10.9330   11.8760   12.8660 C.ar  330  TYR330     -0.0009
    188  CE1       10.6390    9.1950   13.4400 C.ar  330  TYR330      0.0417
    189  CE2       10.5300   10.9960   11.8750 C.ar  330  TYR330      0.0417
    190  CZ        10.3850    9.6570   12.1650 C.ar  330  TYR330      0.1957
    191  OH         9.9860    8.7730   11.1830 O.3   330  TYR330     -0.2866
    192  N          1.4190    8.1040   26.7180 N.3   396  PHE396     -0.1241
    193  CA         0.4870    7.0590   26.3060 C.3   396  PHE396      0.1605
    194  C         -0.0050    6.1420   27.4270 C.2   396  PHE396      0.2264
    195  O         -1.2130    6.0260   27.6410 O.2   396  PHE396     -0.2867
    196  CB         1.1310    6.2290   25.1990 C.3   396  PHE396      0.0534
    197  CG         1.4470    7.0330   23.9730 C.ar  396  PHE396     -0.0203
    198  CD1        0.4540    7.3340   23.0570 C.ar  396  PHE396     -0.0042
    199  CD2        2.7170    7.5350   23.7670 C.ar  396  PHE396     -0.0042
    200  CE1        0.7230    8.1010   21.9480 C.ar  396  PHE396     -0.0003
    201  CE2        2.9970    8.3050   22.6580 C.ar  396  PHE396     -0.0003
    202  CZ         1.9950    8.5880   21.7400 C.ar  396  PHE396     -0.0000
    203  N          5.2200    2.0300   19.1560 N.3   436  HIS436     -0.1226
    204  CA         3.9700    2.7110   18.8540 C.3   436  HIS436      0.1752
    205  C          3.4890    2.3740   17.4430 C.2   436  HIS436      0.2597
    206  O          4.2210    2.5560   16.4680 O.2   436  HIS436     -0.2718
    207  CB         4.1820    4.2120   19.0000 C.3   436  HIS436      0.0759
    208  CG         2.9300    5.0290   18.9270 C.ar  436  HIS436      0.0818
    209  ND1        1.9260    4.9450   19.8680 N.ar  436  HIS436     -0.2268
    210  CD2        2.5480    5.9920   18.0540 C.ar  436  HIS436      0.1154
    211  CE1        0.9670    5.8010   19.5600 C.ar  436  HIS436      0.1986
    212  NE2        1.3210    6.4500   18.4670 N.ar  436  HIS436     -0.2212
    213  N          2.2710    1.8550   17.3400 N.am  437  GLY437     -0.1942
    214  CA         1.6800    1.5680   16.0490 C.3   437  GLY437      0.2014
    215  C          1.9190    0.1900   15.4670 C.2   437  GLY437      0.2638
    216  O          1.4120   -0.1060   14.3890 O.2   437  GLY437     -0.2714
    217  N          2.6680   -0.6690   16.1560 N.am  438  TYR438     -0.1973
    218  CA         3.0590   -1.9430   15.5510 C.3   438  TYR438      0.1639
    219  C          2.3430   -3.1260   16.1720 C.2   438  TYR438      0.2290
    220  O          2.8160   -4.2680   16.1180 O.2   438  TYR438     -0.2864
    221  CB         4.5780   -2.1060   15.6060 C.3   438  TYR438      0.0560
    222  CG         5.2180   -1.2290   14.5560 C.ar  438  TYR438     -0.0198
    223  CD1        5.2510   -1.6300   13.2260 C.ar  438  TYR438     -0.0009
    224  CD2        5.7090    0.0360   14.8770 C.ar  438  TYR438     -0.0009
    225  CE1        5.7930   -0.8190   12.2470 C.ar  438  TYR438      0.0417
    226  CE2        6.2530    0.8590   13.9050 C.ar  438  TYR438      0.0417
    227  CZ         6.2930    0.4260   12.5900 C.ar  438  TYR438      0.1957
    228  OH         6.8350    1.2290   11.6170 O.3   438  TYR438     -0.2866
@<TRIPOS>BOND
     1    33    31   am
     2    31    32    2
     3    31    30    1
     4    14    16    1
     5    14    13    1
     6    30    29    1
     7    15    13    1
     8    13    10    1
     9    57    56    2
    10    58    59    1
    11    58    55    1
    12    56    55    1
    13    29    26    1
    14    61    59   am
    15    59    60    2
    16    55    54    1
    17    10     9    1
    18    10    11    1
    19    26    27    1
    20    26    25    1
    21     9     3   am
    22    28    27    2
    23    20    19    2
    24     7     6    2
    25     2     3    1
    26     2     1    1
    27     2     5    1
    28    54    42   am
    29    11    12    2
    30    11    17   am
    31    27    34   am
    32     3     4    2
    33    25    19   am
    34    19    18    1
    35    17    18    1
    36     6     5    1
    37     6     8   am
    38    42    43    2
    39    42    41    1
    40    18    21    1
    41    34    35    1
    42    40    41    1
    43    36    37    2
    44    36    35    1
    45    92    93    2
    46    92    91    1
    47    41    44    1
    48    35    38    1
    49    90    91    1
    50    21    22    1
    51    94    91    1
    52    94    95    1
    53    97    95   ar
    54    97    99   ar
    55    23    22   ar
    56    22    24   ar
    57    44    45    1
    58    95    96   ar
    59    99   100   ar
    60    38    39    1
    61    89    87    1
    62    77    76    2
    63    87    84    1
    64    87    88    1
    65    84    85    1
    66    84    83    1
    67    85    86    2
    68    45    46   ar
    69    45    47   ar
    70    96    98   ar
    71   100    98   ar
    72   100   101    1
    73    76    83   am
    74    76    75    1
    75    50    47   ar
    76    50    52   ar
    77    46    48   ar
    78    47    49   ar
    79    52    53   ar
    80    48    49   ar
    81    49    51   ar
    82   191   190    1
    83    75    78    1
    84    75    74    1
    85    53    51   ar
    86   228   227    1
    87    78    79    1
    88    65    64    2
    89   189   190   ar
    90   189   187   ar
    91   190   188   ar
    92   225   227   ar
    93   225   223   ar
    94   227   226   ar
    95    69    68    2
    96    81    80    2
    97    67    68    1
    98    67    66    1
    99   187   185   ar
   100    64    66   am
   101    64    63    1
   102    79    80    1
   103   223   222   ar
   104    62    63    1
   105    80    82   am
   106   188   186   ar
   107    68    70   am
   108   226   224   ar
   109   185   186   ar
   110   185   184    1
   111   216   215    2
   112   222   224   ar
   113   222   221    1
   114    70    71    1
   115    72    73    2
   116    72    71    1
   117   184   181    1
   118   215   214    1
   119   215   217   am
   120   181   180    1
   121   181   182    1
   122   218   221    1
   123   218   217    1
   124   218   219    1
   125   109   108   ar
   126   214   213    1
   127   220   219    2
   128   182   183    2
   129   206   205    2
   130   105   104    2
   131   106   107    1
   132   106   103    1
   133   102   103    1
   134   121   118    1
   135   108   107    1
   136   108   110   ar
   137   167   166    2
   138   154   153    2
   139   119   120    2
   140   119   118    1
   141   103   104    1
   142   213   205   am
   143   104   111   am
   144   159   158    1
   145   159   160    2
   146   205   204    1
   147   139   138    2
   148   168   165    1
   149   118   117    1
   150   158   157    1
   151   158   161    1
   152   162   161    1
   153   115   116    1
   154   115   112    1
   155   117   113   am
   156   166   165    1
   157   166   169   am
   158   153   157   am
   159   153   152    1
   160   210   212   ar
   161   210   208   ar
   162   165   164    1
   163   137   140    1
   164   137   138    1
   165   137   136    1
   166   140   141    1
   167   155   152    1
   168   155   156    1
   169   138   143   am
   170   212   211   ar
   171   161   163    1
   172   111   112    1
   173   178   176   ar
   174   178   179   ar
   175   113   112    1
   176   113   114    2
   177   204   207    1
   178   204   203    1
   179   152   151    1
   180   208   207    1
   181   208   209   ar
   182   176   174   ar
   183   141   142    1
   184   151   145   am
   185   170   169    1
   186   170   171    1
   187   170   173    1
   188   179   177   ar
   189   172   171    2
   190   136   142    1
   191   143   144    1
   192   211   209   ar
   193   174   173    1
   194   174   175   ar
   195   145   144    1
   196   145   146    2
   197   144   147    1
   198   177   175   ar
   199   134   132   ar
   200   134   135   ar
   201   132   129   ar
   202   135   133   ar
   203   147   148    1
   204   148   150    1
   205   148   149    1
   206   125   124    2
   207   202   200   ar
   208   202   201   ar
   209   200   198   ar
   210   129   131   ar
   211   129   127   ar
   212   133   131   ar
   213   131   130   ar
   214   126   127    1
   215   126   123    1
   216   201   199   ar
   217   127   128   ar
   218   124   123    1
   219   198   197   ar
   220   123   122    1
   221   130   128   ar
   222   199   197   ar
   223   197   196    1
   224   196   193    1
   225   193   192    1
   226   193   194    1
   227   194   195    2
