@<TRIPOS>MOLECULE
tmp/4tpkA02.pdb
 86 84 0 0 0
SMALL
GASTEIGER

@<TRIPOS>ATOM
      1  N         -8.2980   28.7420   23.9720 N.3   235  TYR235     -0.1227
      2  CA        -7.5930   29.9570   23.6030 C.3   235  TYR235      0.1736
      3  C         -6.2330   29.6870   22.9940 C.2   235  TYR235      0.2595
      4  O         -5.6980   30.5220   22.2680 O.2   235  TYR235     -0.2718
      5  CB        -7.4700   30.8680   24.8190 C.3   235  TYR235      0.0548
      6  CG        -8.8120   31.4380   25.2040 C.ar  235  TYR235     -0.0200
      7  CD1       -9.3460   32.5170   24.5100 C.ar  235  TYR235     -0.0009
      8  CD2       -9.5670   30.8700   26.2240 C.ar  235  TYR235     -0.0009
      9  CE1      -10.5790   33.0340   24.8360 C.ar  235  TYR235      0.0417
     10  CE2      -10.8050   31.3810   26.5600 C.ar  235  TYR235      0.0417
     11  CZ       -11.3060   32.4650   25.8620 C.ar  235  TYR235      0.1957
     12  OH       -12.5370   32.9870   26.1870 O.3   235  TYR235     -0.2866
     13  N         -5.6770   28.5180   23.2740 N.am  236  GLU236     -0.1979
     14  CA        -4.4360   28.1190   22.6370 C.3   236  GLU236      0.1602
     15  C         -4.7260   27.8220   21.1660 C.2   236  GLU236      0.2287
     16  O         -3.9020   28.0770   20.2950 O.2   236  GLU236     -0.2864
     17  CB        -3.8320   26.9090   23.3580 C.3   236  GLU236      0.0415
     18  CG        -2.5300   26.3980   22.7650 C.3   236  GLU236      0.1163
     19  CD        -1.3900   27.3920   22.8860 C.2   236  GLU236      0.3649
     20  OE1       -1.3810   28.1770   23.8620 O.co2 236  GLU236     -0.2457
     21  OE2       -0.5000   27.3810   22.0050 O.co2 236  GLU236     -0.2457
     22  N         -5.0730   31.2030   19.3950 N.3   239  ASN239     -0.1240
     23  CA        -3.7930   31.8790   19.2210 C.3   239  ASN239      0.1653
     24  C         -2.9770   31.2760   18.0810 C.2   239  ASN239      0.2266
     25  O         -2.1540   31.9480   17.4700 O.2   239  ASN239     -0.2867
     26  CB        -2.9860   31.8520   20.5160 C.3   239  ASN239      0.1155
     27  CG        -1.8630   32.8720   20.5190 C.2   239  ASN239      0.2627
     28  OD1       -2.1060   34.0740   20.4050 O.2   239  ASN239     -0.2716
     29  ND2       -0.6280   32.4020   20.6570 N.am  239  ASN239     -0.0877
     30  N         -1.8470   33.0400   14.6150 N.3   243  ASN243     -0.1240
     31  CA        -0.4470   32.9750   14.2190 C.3   243  ASN243      0.1653
     32  C         -0.3150   32.5060   12.7820 C.2   243  ASN243      0.2266
     33  O          0.5610   32.9660   12.0560 O.2   243  ASN243     -0.2867
     34  CB         0.3470   32.0470   15.1400 C.3   243  ASN243      0.1155
     35  CG         0.5240   32.6110   16.5360 C.2   243  ASN243      0.2627
     36  OD1        0.1860   33.7650   16.8060 O.2   243  ASN243     -0.2716
     37  ND2        1.0810   31.8030   17.4290 N.am  243  ASN243     -0.0877
     38  N         -1.1120   35.3120   10.4750 N.3   246  LYS246     -0.1231
     39  CA         0.0590   36.1690   10.3430 C.3   246  LYS246      0.1693
     40  C          1.1050   35.5850    9.3890 C.2   246  LYS246      0.2591
     41  O          1.6880   36.3150    8.5880 O.2   246  LYS246     -0.2718
     42  CB         0.7030   36.4430   11.7060 C.3   246  LYS246      0.0285
     43  CG         2.0290   37.1760   11.5800 C.3   246  LYS246      0.0035
     44  CD         2.5430   37.7490   12.8900 C.3   246  LYS246      0.0206
     45  CE         3.7400   38.6760   12.6210 C.3   246  LYS246      0.1093
     46  NZ         4.2370   39.3790   13.8370 N.3   246  LYS246     -0.1314
     47  N          1.3370   34.2780    9.4640 N.am  247  LEU247     -0.1980
     48  CA         2.3780   33.6410    8.6560 C.3   247  LEU247      0.1596
     49  C          2.0610   33.6040    7.1530 C.2   247  LEU247      0.2287
     50  O          2.9570   33.4010    6.3260 O.2   247  LEU247     -0.2864
     51  CB         2.6290   32.2180    9.1570 C.3   247  LEU247      0.0297
     52  CG         3.2860   32.0940   10.5310 C.3   247  LEU247      0.0022
     53  CD1        2.8840   30.7900   11.1890 C.3   247  LEU247      0.0001
     54  CD2        4.7950   32.1830   10.4130 C.3   247  LEU247      0.0001
     55  N          5.0070   26.2240   12.3670 N.3   276  PHE276     -0.1227
     56  CA         5.4840   27.4430   13.0130 C.3   276  PHE276      0.1736
     57  C          4.4820   28.1120   13.9580 C.2   276  PHE276      0.2595
     58  O          4.8120   29.1190   14.5750 O.2   276  PHE276     -0.2718
     59  CB         5.9140   28.4610   11.9500 C.3   276  PHE276      0.0547
     60  CG         6.8960   27.9230   10.9530 C.ar  276  PHE276     -0.0202
     61  CD1        7.9580   27.1340   11.3610 C.ar  276  PHE276     -0.0042
     62  CD2        6.7540   28.2000    9.6050 C.ar  276  PHE276     -0.0042
     63  CE1        8.8610   26.6350   10.4400 C.ar  276  PHE276     -0.0003
     64  CE2        7.6510   27.7000    8.6830 C.ar  276  PHE276     -0.0003
     65  CZ         8.7030   26.9170    9.0990 C.ar  276  PHE276     -0.0000
     66  N          3.2730   27.5700   14.0850 N.am  277  VAL277     -0.1966
     67  CA         2.2320   28.2460   14.8710 C.3   277  VAL277      0.1727
     68  C          2.3930   28.1010   16.3900 C.2   277  VAL277      0.2616
     69  O          1.6270   28.6780   17.1570 O.2   277  VAL277     -0.2715
     70  CB         0.8320   27.7420   14.4950 C.3   277  VAL277      0.0290
     71  CG1        0.6070   27.8900   13.0080 C.3   277  VAL277      0.0023
     72  CG2        0.6460   26.2900   14.9450 C.3   277  VAL277      0.0023
     73  N          3.3950   27.3360   16.8100 N.am  278  VAL278     -0.1964
     74  CA         3.6300   27.0460   18.2230 C.3   278  VAL278      0.1712
     75  C          5.1000   27.3670   18.5360 C.2   278  VAL278      0.2458
     76  O          5.9790   27.0390   17.7360 O.2   278  VAL278     -0.2730
     77  CB         3.2700   25.5610   18.5410 C.3   278  VAL278      0.0289
     78  CG1        4.0780   24.5980   17.6680 C.3   278  VAL278      0.0023
     79  CG2        3.4240   25.2300   20.0200 C.3   278  VAL278      0.0023
     80  N          5.3780   28.0330   19.6810 N.am  279  PRO279     -0.2727
     81  CA         6.7620   28.4650   19.9270 C.3   279  PRO279      0.1402
     82  C          7.7100   27.2880   20.0220 C.2   279  PRO279      0.2269
     83  O          8.7270   27.2320   19.3290 O.2   279  PRO279     -0.2865
     84  CB         6.6950   29.1810   21.2840 C.3   279  PRO279      0.0296
     85  CG         5.2610   29.3510   21.5920 C.3   279  PRO279      0.0237
     86  CD         4.5080   28.3100   20.8360 C.3   279  PRO279      0.0939
@<TRIPOS>BOND
     1    50    49    2
     2    49    48    1
     3    41    40    2
     4    48    51    1
     5    48    47    1
     6    64    65   ar
     7    64    62   ar
     8    65    63   ar
     9    51    52    1
    10    40    47   am
    11    40    39    1
    12    62    60   ar
    13    39    38    1
    14    39    42    1
    15    54    52    1
    16    63    61   ar
    17    52    53    1
    18    60    61   ar
    19    60    59    1
    20    43    42    1
    21    43    44    1
    22    59    56    1
    23    33    32    2
    24    55    56    1
    25    45    44    1
    26    45    46    1
    27    32    31    1
    28    71    70    1
    29    56    57    1
    30    57    66   am
    31    57    58    2
    32    66    67    1
    33    31    30    1
    34    31    34    1
    35    70    67    1
    36    70    72    1
    37    67    68    1
    38    34    35    1
    39    68    73   am
    40    68    69    2
    41    35    36    2
    42    35    37   am
    43    73    74    1
    44    25    24    2
    45    78    77    1
    46    76    75    2
    47    24    23    1
    48    74    75    1
    49    74    77    1
    50    75    80   am
    51    77    79    1
    52    23    22    1
    53    23    26    1
    54    83    82    2
    55    80    81    1
    56    80    86    1
    57    81    82    1
    58    81    84    1
    59    16    15    2
    60    28    27    2
    61    26    27    1
    62    27    29   am
    63    86    85    1
    64    15    14    1
    65    84    85    1
    66    21    19   ar
    67     4     3    2
    68    14    13    1
    69    14    17    1
    70    18    19    1
    71    18    17    1
    72    19    20   ar
    73     3    13   am
    74     3     2    1
    75     2     1    1
    76     2     5    1
    77     7     9   ar
    78     7     6   ar
    79     5     6    1
    80     9    11   ar
    81     6     8   ar
    82    11    12    1
    83    11    10   ar
    84     8    10   ar
