@<TRIPOS>MOLECULE
tmp/4tplB01.pdb
 105 99 0 0 0
SMALL
GASTEIGER

@<TRIPOS>ATOM
      1  N         56.9930  -50.6000    2.6420 N.3   205  ARG205     -0.1245
      2  CA        56.7430  -49.3900    3.4170 C.3   205  ARG205      0.1563
      3  C         55.4560  -48.7310    2.9560 C.2   205  ARG205      0.2260
      4  O         55.0710  -48.8440    1.7900 O.2   205  ARG205     -0.2867
      5  CB        57.9180  -48.4090    3.2910 C.3   205  ARG205      0.0307
      6  CG        57.9510  -47.3460    4.3730 C.3   205  ARG205      0.0489
      7  CD        58.0790  -45.9450    3.8030 C.3   205  ARG205      0.2205
      8  NE        59.2000  -45.8370    2.8770 N.pl3 205  ARG205     -0.0865
      9  CZ        59.5980  -44.6950    2.3270 C.cat 205  ARG205      0.5346
     10  NH1       60.6240  -44.6790    1.4870 N.pl3 205  ARG205      0.1354
     11  NH2       58.9670  -43.5670    2.6210 N.pl3 205  ARG205      0.1354
     12  N         54.0720  -45.5210    1.8580 N.3   207  ASN207     -0.1225
     13  CA        54.2790  -44.1530    1.4150 C.3   207  ASN207      0.1785
     14  C         52.9190  -43.5060    1.2600 C.2   207  ASN207      0.2597
     15  O         52.3520  -42.9920    2.2290 O.2   207  ASN207     -0.2718
     16  CB        55.0650  -44.1000    0.1140 C.3   207  ASN207      0.1169
     17  CG        55.5600  -42.7060   -0.2030 C.2   207  ASN207      0.2627
     18  OD1       55.2910  -41.7660    0.5390 O.2   207  ASN207     -0.2716
     19  ND2       56.2840  -42.5640   -1.3090 N.am  207  ASN207     -0.0877
     20  N         52.3780  -43.5510    0.0520 N.am  208  ASP208     -0.1974
     21  CA        50.9790  -43.1860   -0.1320 C.3   208  ASP208      0.1709
     22  C         50.1910  -44.4810   -0.0570 C.2   208  ASP208      0.2293
     23  O         49.0230  -44.5040    0.3310 O.2   208  ASP208     -0.2864
     24  CB        50.7450  -42.4710   -1.4610 C.3   208  ASP208      0.1436
     25  CG        49.2900  -42.1100   -1.6770 C.2   208  ASP208      0.3671
     26  OD1       48.6190  -41.7190   -0.6980 O.co2 208  ASP208     -0.2456
     27  OD2       48.8170  -42.2340   -2.8260 O.co2 208  ASP208     -0.2456
     28  N         53.4890  -50.9160   -0.4350 N.3   211  LYS211     -0.1245
     29  CA        54.1050  -51.5880   -1.5660 C.3   211  LYS211      0.1561
     30  C         55.5330  -52.0140   -1.2500 C.2   211  LYS211      0.2260
     31  O         56.1620  -51.4970   -0.3240 O.2   211  LYS211     -0.2867
     32  CB        54.0720  -50.6740   -2.8030 C.3   211  LYS211      0.0271
     33  CG        54.3830  -49.2160   -2.5020 C.3   211  LYS211      0.0035
     34  CD        54.3980  -48.3470   -3.7530 C.3   211  LYS211      0.0206
     35  CE        53.9010  -46.9260   -3.4700 C.3   211  LYS211      0.1093
     36  NZ        54.6070  -46.2530   -2.3400 N.3   211  LYS211     -0.1314
     37  N         59.3850  -52.0580   -1.5100 N.3   213  GLU213     -0.1245
     38  CA        60.2930  -50.9390   -1.7610 C.3   213  GLU213      0.1567
     39  C         61.7090  -51.4060   -2.0430 C.2   213  GLU213      0.2260
     40  O         62.4390  -50.7830   -2.8150 O.2   213  GLU213     -0.2867
     41  CB        60.2940  -49.9720   -0.5790 C.3   213  GLU213      0.0388
     42  CG        59.1010  -49.0220   -0.5290 C.3   213  GLU213      0.1160
     43  CD        59.1620  -47.9320   -1.5910 C.2   213  GLU213      0.3649
     44  OE1       58.1650  -47.1870   -1.7450 O.co2 213  GLU213     -0.2457
     45  OE2       60.2040  -47.8180   -2.2680 O.co2 213  GLU213     -0.2457
     46  N         53.7010  -54.6260   -6.1040 N.3   257  ARG257     -0.1245
     47  CA        53.9660  -53.2600   -6.5450 C.3   257  ARG257      0.1563
     48  C         53.0390  -52.9180   -7.6880 C.2   257  ARG257      0.2260
     49  O         53.1110  -53.5380   -8.7420 O.2   257  ARG257     -0.2867
     50  CB        55.4130  -53.0850   -6.9840 C.3   257  ARG257      0.0307
     51  CG        55.7860  -51.6400   -7.3140 C.3   257  ARG257      0.0489
     52  CD        56.4070  -50.9440   -6.1140 C.3   257  ARG257      0.2205
     53  NE        56.7560  -49.5490   -6.3680 N.pl3 257  ARG257     -0.0865
     54  CZ        57.4790  -48.8010   -5.5380 C.cat 257  ARG257      0.5346
     55  NH1       57.9340  -49.3140   -4.4090 N.pl3 257  ARG257      0.1354
     56  NH2       57.7520  -47.5420   -5.8350 N.pl3 257  ARG257      0.1354
     57  N         66.1090  -45.9350  -11.2480 N.3   279  TYR279     -0.1241
     58  CA        66.5360  -46.0610  -12.6300 C.3   279  TYR279      0.1605
     59  C         67.9410  -46.6420  -12.7370 C.2   279  TYR279      0.2264
     60  O         68.8300  -46.2940  -11.9610 O.2   279  TYR279     -0.2867
     61  CB        66.4770  -44.7020  -13.3260 C.3   279  TYR279      0.0534
     62  CG        65.0830  -44.1170  -13.4250 C.ar  279  TYR279     -0.0201
     63  CD1       64.6040  -43.2520  -12.4530 C.ar  279  TYR279     -0.0009
     64  CD2       64.2520  -44.4210  -14.4970 C.ar  279  TYR279     -0.0009
     65  CE1       63.3370  -42.7110  -12.5360 C.ar  279  TYR279      0.0417
     66  CE2       62.9830  -43.8810  -14.5920 C.ar  279  TYR279      0.0417
     67  CZ        62.5290  -43.0300  -13.6040 C.ar  279  TYR279      0.1957
     68  OH        61.2680  -42.4870  -13.6820 O.3   279  TYR279     -0.2866
     69  N         63.1920  -44.6460  -18.5500 N.3   285  VAL285     -0.1231
     70  CA        61.9990  -45.4700  -18.7450 C.3   285  VAL285      0.1692
     71  C         60.7890  -44.5610  -18.9530 C.2   285  VAL285      0.2593
     72  O         60.5250  -43.6710  -18.1430 O.2   285  VAL285     -0.2718
     73  CB        61.7370  -46.4210  -17.5630 C.3   285  VAL285      0.0266
     74  CG1       60.4270  -47.1690  -17.7680 C.3   285  VAL285      0.0020
     75  CG2       62.8960  -47.3950  -17.3820 C.3   285  VAL285      0.0020
     76  N         60.0640  -44.7780  -20.0470 N.am  286  THR286     -0.1939
     77  CA        58.9000  -43.9560  -20.3670 C.3   286  THR286      0.2028
     78  C         57.6810  -44.8220  -20.6580 C.2   286  THR286      0.2642
     79  O         57.8090  -45.9550  -21.1200 O.2   286  THR286     -0.2714
     80  CB        59.1620  -43.0250  -21.5760 C.3   286  THR286      0.1808
     81  OG1       59.5980  -43.8020  -22.6960 O.3   286  THR286     -0.2208
     82  CG2       60.2260  -41.9910  -21.2380 C.3   286  THR286      0.0379
     83  N         56.5040  -44.3030  -20.3290 N.am  287  LEU287     -0.1977
     84  CA        55.2580  -45.0010  -20.6060 C.3   287  LEU287      0.1596
     85  C         54.8660  -44.8750  -22.0690 C.2   287  LEU287      0.2287
     86  O         54.8670  -43.7800  -22.6320 O.2   287  LEU287     -0.2864
     87  CB        54.1340  -44.4780  -19.7110 C.3   287  LEU287      0.0297
     88  CG        54.1660  -44.9930  -18.2730 C.3   287  LEU287      0.0022
     89  CD1       53.3400  -44.1080  -17.3520 C.3   287  LEU287      0.0001
     90  CD2       53.6520  -46.4180  -18.2500 C.3   287  LEU287      0.0001
     91  N         56.2100  -45.7530  -12.2850 N.3   318  LEU318     -0.1231
     92  CA        57.5700  -45.2850  -12.0570 C.3   318  LEU318      0.1678
     93  C         57.7840  -44.8490  -10.6010 C.2   318  LEU318      0.2434
     94  O         56.8610  -44.3710   -9.9490 O.2   318  LEU318     -0.2733
     95  CB        57.8830  -44.1350  -13.0070 C.3   318  LEU318      0.0284
     96  CG        57.6760  -44.4870  -14.4760 C.3   318  LEU318      0.0019
     97  CD1       58.0560  -43.3230  -15.3730 C.3   318  LEU318      0.0001
     98  CD2       58.4960  -45.7250  -14.8110 C.3   318  LEU318      0.0001
     99  N         59.0050  -45.0200  -10.0740 N.am  319  PRO319     -0.2729
    100  CA        60.2390  -45.5530  -10.6700 C.3   319  PRO319      0.1401
    101  C         60.1880  -47.0340  -11.0630 C.2   319  PRO319      0.2269
    102  O         59.4850  -47.8300  -10.4460 O.2   319  PRO319     -0.2865
    103  CB        61.2740  -45.3390   -9.5570 C.3   319  PRO319      0.0296
    104  CG        60.4790  -45.1280   -8.3160 C.3   319  PRO319      0.0237
    105  CD        59.2660  -44.4150   -8.7600 C.3   319  PRO319      0.0939
@<TRIPOS>BOND
     1    81    80    1
     2    86    85    2
     3    85    84    1
     4    80    82    1
     5    80    77    1
     6    79    78    2
     7    78    77    1
     8    78    83   am
     9    84    83    1
    10    84    87    1
    11    77    76    1
    12    76    71   am
    13    87    88    1
    14    71    70    1
    15    71    72    2
    16    70    69    1
    17    70    73    1
    18    88    90    1
    19    88    89    1
    20    74    73    1
    21    73    75    1
    22    97    96    1
    23    98    96    1
    24    66    64   ar
    25    66    67   ar
    26    64    62   ar
    27    96    95    1
    28    68    67    1
    29    67    65   ar
    30    62    61    1
    31    62    63   ar
    32    61    58    1
    33    95    92    1
    34    59    58    1
    35    59    60    2
    36    58    57    1
    37    65    63   ar
    38    91    92    1
    39    92    93    1
    40   101   100    1
    41   101   102    2
    42   100    99    1
    43   100   103    1
    44    93    99   am
    45    93    94    2
    46    99   105    1
    47   103   104    1
    48   105   104    1
    49    49    48    2
    50    48    47    1
    51    51    50    1
    52    51    52    1
    53    50    47    1
    54    47    46    1
    55    53    52    1
    56    53    54    2
    57    56    54    1
    58    54    55    1
    59    34    35    1
    60    34    33    1
    61    35    36    1
    62    27    25   ar
    63    40    39    2
    64    32    33    1
    65    32    29    1
    66    45    43   ar
    67    39    38    1
    68    38    37    1
    69    38    41    1
    70    44    43   ar
    71    25    24    1
    72    25    26   ar
    73    43    42    1
    74    29    30    1
    75    29    28    1
    76    24    21    1
    77    19    17   am
    78    30    31    2
    79    41    42    1
    80    17    16    1
    81    17    18    2
    82    21    22    1
    83    21    20    1
    84    22    23    2
    85    20    14   am
    86    16    13    1
    87    14    13    1
    88    14    15    2
    89    13    12    1
    90    10     9    1
    91     4     3    2
    92     9    11    1
    93     9     8    2
    94     1     2    1
    95     8     7    1
    96     3     2    1
    97     5     2    1
    98     5     6    1
    99     7     6    1
