@<TRIPOS>MOLECULE
tmp/4tpmA00.pdb
 187 181 0 0 0
SMALL
GASTEIGER

@<TRIPOS>ATOM
      1  N         15.8350   95.7640   30.8100 N.3    61  TYR61      -0.1227
      2  CA        14.8180   94.7020   30.8830 C.3    61  TYR61       0.1736
      3  C         13.4270   95.1540   30.4490 C.2    61  TYR61       0.2595
      4  O         12.8930   94.6420   29.4690 O.2    61  TYR61      -0.2718
      5  CB        14.7520   94.1060   32.2870 C.3    61  TYR61       0.0548
      6  CG        13.7310   92.9960   32.4250 C.ar   61  TYR61      -0.0200
      7  CD1       13.9460   91.7490   31.8500 C.ar   61  TYR61      -0.0009
      8  CD2       12.5510   93.1930   33.1320 C.ar   61  TYR61      -0.0009
      9  CE1       13.0130   90.7300   31.9750 C.ar   61  TYR61       0.0417
     10  CE2       11.6140   92.1810   33.2640 C.ar   61  TYR61       0.0417
     11  CZ        11.8490   90.9530   32.6840 C.ar   61  TYR61       0.1957
     12  OH        10.9200   89.9520   32.8110 O.3    61  TYR61      -0.2866
     13  N         12.8480   96.1060   31.1750 N.am   62  HIS62      -0.1975
     14  CA        11.4640   96.5260   30.9520 C.3    62  HIS62       0.1656
     15  C         11.3110   97.3220   29.6600 C.2    62  HIS62       0.2291
     16  O         11.0360   98.5240   29.6830 O.2    62  HIS62      -0.2864
     17  CB        10.9520   97.3570   32.1370 C.3    62  HIS62       0.0771
     18  CG        10.7720   96.5750   33.4030 C.ar   62  HIS62       0.0820
     19  ND1       11.7200   96.5470   34.4020 N.ar   62  HIS62      -0.2267
     20  CD2        9.7450   95.8040   33.8360 C.ar   62  HIS62       0.1154
     21  CE1       11.2880   95.7910   35.3960 C.ar   62  HIS62       0.1986
     22  NE2       10.0920   95.3250   35.0770 N.ar   62  HIS62      -0.2212
     23  N          3.3130   93.3820   40.8750 N.3   172  LEU172     -0.1245
     24  CA         3.6500   92.1650   41.6180 C.3   172  LEU172      0.1561
     25  C          3.1540   92.1710   43.0710 C.2   172  LEU172      0.2260
     26  O          2.8680   91.1140   43.6300 O.2   172  LEU172     -0.2867
     27  CB         5.1650   91.9230   41.5940 C.3   172  LEU172      0.0270
     28  CG         5.6490   90.5420   42.0590 C.3   172  LEU172      0.0019
     29  CD1        5.2120   89.4610   41.0770 C.3   172  LEU172      0.0001
     30  CD2        7.1610   90.5360   42.2440 C.3   172  LEU172      0.0001
     31  N          3.8610   88.1800   32.8120 N.3   211  ASP211     -0.1225
     32  CA         4.8570   89.1810   33.2290 C.3   211  ASP211      0.1805
     33  C          6.1740   88.5150   33.6670 C.2   211  ASP211      0.2597
     34  O          7.2450   89.0860   33.4770 O.2   211  ASP211     -0.2718
     35  CB         4.2940   90.0770   34.3550 C.3   211  ASP211      0.1424
     36  CG         5.0830   91.3820   34.5480 C.2   211  ASP211      0.3668
     37  OD1        5.4750   92.0340   33.5580 O.co2 211  ASP211     -0.2456
     38  OD2        5.2890   91.7790   35.7120 O.co2 211  ASP211     -0.2456
     39  N          6.0880   87.3100   34.2320 N.am  212  LEU212     -0.1979
     40  CA         7.2650   86.5680   34.7030 C.3   212  LEU212      0.1596
     41  C          7.7480   85.4730   33.7470 C.2   212  LEU212      0.2287
     42  O          8.6800   84.7400   34.0760 O.2   212  LEU212     -0.2864
     43  CB         6.9490   85.9170   36.0460 C.3   212  LEU212      0.0297
     44  CG         6.4040   86.8410   37.1300 C.3   212  LEU212      0.0022
     45  CD1        5.9730   86.0250   38.3370 C.3   212  LEU212      0.0001
     46  CD2        7.4410   87.8890   37.5140 C.3   212  LEU212      0.0001
     47  N          9.7170   84.8870   31.5440 N.3   214  SER214     -0.1202
     48  CA        11.1260   84.6560   31.2500 C.3   214  SER214      0.2020
     49  C         11.6580   83.4650   32.0470 C.2   214  SER214      0.2618
     50  O         12.6530   82.8500   31.6610 O.2   214  SER214     -0.2717
     51  CB        11.9610   85.9020   31.5460 C.3   214  SER214      0.2103
     52  OG        11.2860   87.0850   31.1500 O.3   214  SER214     -0.2182
     53  N         10.9990   83.1340   33.1530 N.am  215  VAL215     -0.1979
     54  CA        11.3660   81.9380   33.9120 C.3   215  VAL215      0.1595
     55  C         10.7870   80.6360   33.3330 C.2   215  VAL215      0.2287
     56  O         11.1010   79.5570   33.8270 O.2   215  VAL215     -0.2864
     57  CB        10.9720   82.0570   35.3950 C.3   215  VAL215      0.0276
     58  CG1       11.6380   83.2710   36.0150 C.3   215  VAL215      0.0022
     59  CG2        9.4580   82.1160   35.5750 C.3   215  VAL215      0.0022
     60  N         16.5600   82.0530   29.8720 N.3   222  THR222     -0.1218
     61  CA        16.2730   82.4400   31.2510 C.3   222  THR222      0.1862
     62  C         17.4870   83.0120   31.9710 C.2   222  THR222      0.2287
     63  O         17.3500   83.9640   32.7420 O.2   222  THR222     -0.2866
     64  CB        15.7200   81.2490   32.0510 C.3   222  THR222      0.1770
     65  OG1       14.4960   80.8000   31.4470 O.3   222  THR222     -0.2211
     66  CG2       15.4620   81.6290   33.5120 C.3   222  THR222      0.0375
     67  N         18.5790   86.5680   30.1400 N.3   225  THR225     -0.1203
     68  CA        17.5720   87.5580   30.5110 C.3   225  THR225      0.1994
     69  C         17.7470   87.9980   31.9670 C.2   225  THR225      0.2617
     70  O         17.4010   89.1220   32.3250 O.2   225  THR225     -0.2717
     71  CB        16.1520   87.0160   30.2980 C.3   225  THR225      0.1784
     72  OG1       15.9910   86.6310   28.9310 O.3   225  THR225     -0.2211
     73  CG2       15.1060   88.0610   30.6360 C.3   225  THR225      0.0376
     74  N         18.2940   87.1230   32.8040 N.am  226  ALA226     -0.1979
     75  CA        18.5740   87.4880   34.1890 C.3   226  ALA226      0.1597
     76  C         19.5590   88.6520   34.2740 C.2   226  ALA226      0.2287
     77  O         19.4020   89.5370   35.1080 O.2   226  ALA226     -0.2864
     78  CB        19.0980   86.2920   34.9630 C.3   226  ALA226      0.0319
     79  N         17.7340   92.1050   33.8760 N.3   229  ILE229     -0.1231
     80  CA        16.9350   92.6320   34.9770 C.3   229  ILE229      0.1692
     81  C         17.8080   93.1030   36.1390 C.2   229  ILE229      0.2592
     82  O         17.4430   94.0410   36.8440 O.2   229  ILE229     -0.2718
     83  CB        15.8460   91.6390   35.4560 C.3   229  ILE229      0.0266
     84  CG1       14.6880   92.4100   36.1020 C.3   229  ILE229      0.0019
     85  CG2       16.4110   90.6030   36.4190 C.3   229  ILE229      0.0020
     86  CD1       13.5740   91.5300   36.6120 C.3   229  ILE229      0.0001
     87  N         18.9590   92.4680   36.3340 N.am  230  TYR230     -0.1976
     88  CA        19.8830   92.9020   37.3800 C.3   230  TYR230      0.1639
     89  C         20.5630   94.2110   36.9990 C.2   230  TYR230      0.2290
     90  O         20.8140   95.0530   37.8620 O.2   230  TYR230     -0.2864
     91  CB        20.9090   91.8120   37.7090 C.3   230  TYR230      0.0560
     92  CG        20.3530   90.7490   38.6360 C.ar  230  TYR230     -0.0198
     93  CD1       20.1210   91.0220   39.9890 C.ar  230  TYR230     -0.0009
     94  CD2       20.0400   89.4780   38.1640 C.ar  230  TYR230     -0.0009
     95  CE1       19.6000   90.0540   40.8400 C.ar  230  TYR230      0.0417
     96  CE2       19.5210   88.5060   39.0070 C.ar  230  TYR230      0.0417
     97  CZ        19.3000   88.7950   40.3410 C.ar  230  TYR230      0.1957
     98  OH        18.7870   87.8180   41.1640 O.3   230  TYR230     -0.2866
     99  N         18.0690   96.5770   38.3390 N.3   233  PHE233     -0.1241
    100  CA        17.9870   96.5630   39.8040 C.3   233  PHE233      0.1605
    101  C         19.2280   97.1520   40.4470 C.2   233  PHE233      0.2264
    102  O         19.1320   97.8810   41.4350 O.2   233  PHE233     -0.2867
    103  CB        17.7730   95.1410   40.3420 C.3   233  PHE233      0.0534
    104  CG        16.4140   94.5580   40.0430 C.ar  233  PHE233     -0.0203
    105  CD1       15.2850   95.3660   39.9160 C.ar  233  PHE233     -0.0042
    106  CD2       16.2620   93.1850   39.9220 C.ar  233  PHE233     -0.0042
    107  CE1       14.0430   94.8130   39.6530 C.ar  233  PHE233     -0.0003
    108  CE2       15.0240   92.6280   39.6670 C.ar  233  PHE233     -0.0003
    109  CZ        13.9120   93.4410   39.5310 C.ar  233  PHE233     -0.0000
    110  N         19.3370   93.6310   49.3060 N.3   249  PRO249     -0.2102
    111  CA        20.3770   92.8500   48.6010 C.3   249  PRO249      0.1504
    112  C         20.0770   92.4790   47.1350 C.2   249  PRO249      0.2575
    113  O         21.0100   92.2400   46.3670 O.2   249  PRO249     -0.2718
    114  CB        20.5040   91.5840   49.4540 C.3   249  PRO249      0.0282
    115  CG        20.0310   91.9850   50.8080 C.3   249  PRO249      0.0208
    116  CD        18.9410   92.9900   50.5730 C.3   249  PRO249      0.0893
    117  N         18.8010   92.4270   46.7570 N.am  250  MET250     -0.1980
    118  CA        18.4040   92.1970   45.3600 C.3   250  MET250      0.1605
    119  C         18.9030   93.2970   44.4170 C.2   250  MET250      0.2287
    120  O         19.0580   93.0670   43.2120 O.2   250  MET250     -0.2864
    121  CB        16.8770   92.1050   45.2560 C.3   250  MET250      0.0413
    122  CG        16.3480   91.8850   43.8490 C.3   250  MET250      0.0598
    123  SD        14.5820   91.5350   43.8150 S.3   250  MET250     -0.1393
    124  CE        13.8680   93.1450   44.1290 C.3   250  MET250      0.0692
    125  N         26.6060   92.5760   46.0830 N.3   255  LYS255     -0.1245
    126  CA        26.2100   91.2450   46.5260 C.3   255  LYS255      0.1561
    127  C         25.7500   90.3840   45.3430 C.2   255  LYS255      0.2260
    128  O         24.6200   89.8970   45.3130 O.2   255  LYS255     -0.2867
    129  CB        25.1260   91.3690   47.5990 C.3   255  LYS255      0.0271
    130  CG        25.5870   92.1920   48.7930 C.3   255  LYS255      0.0035
    131  CD        24.4970   92.4140   49.8250 C.3   255  LYS255      0.0206
    132  CE        24.9920   93.3480   50.9170 C.3   255  LYS255      0.1093
    133  NZ        23.9720   93.5630   51.9730 N.3   255  LYS255     -0.1314
    134  N         25.2090   86.5370   46.2400 N.3   258  GLU258     -0.1231
    135  CA        23.9140   86.1120   46.7920 C.3   258  GLU258      0.1699
    136  C         22.8080   85.9380   45.7360 C.2   258  GLU258      0.2592
    137  O         21.6520   85.6910   46.0920 O.2   258  GLU258     -0.2718
    138  CB        23.4320   87.1160   47.8490 C.3   258  GLU258      0.0402
    139  CG        24.3950   87.3460   49.0060 C.3   258  GLU258      0.1161
    140  CD        23.9470   88.4690   49.9330 C.2   258  GLU258      0.3649
    141  OE1       24.8240   89.0610   50.6080 O.co2 258  GLU258     -0.2457
    142  OE2       22.7280   88.7670   49.9880 O.co2 258  GLU258     -0.2457
    143  N         23.1510   86.0680   44.4530 N.am  259  VAL259     -0.1980
    144  CA        22.1700   85.9490   43.3640 C.3   259  VAL259      0.1595
    145  C         21.5410   84.5500   43.2650 C.2   259  VAL259      0.2287
    146  O         20.3130   84.4360   43.2400 O.2   259  VAL259     -0.2864
    147  CB        22.7700   86.3840   42.0000 C.3   259  VAL259      0.0276
    148  CG1       21.9030   85.9290   40.8310 C.3   259  VAL259      0.0022
    149  CG2       22.9440   87.8920   41.9660 C.3   259  VAL259      0.0022
    150  N         18.9740   84.0850   45.9290 N.3   262  GLY262     -0.1210
    151  CA        17.8290   84.9560   45.6900 C.3   262  GLY262      0.1956
    152  C         16.8970   84.4040   44.6290 C.2   262  GLY262      0.2611
    153  O         15.6770   84.4270   44.7940 O.2   262  GLY262     -0.2717
    154  N         17.4740   83.9120   43.5360 N.am  263  GLN263     -0.1979
    155  CA        16.6870   83.2840   42.4790 C.3   263  GLN263      0.1601
    156  C         15.9940   82.0360   43.0280 C.2   263  GLN263      0.2287
    157  O         14.8190   81.7910   42.7480 O.2   263  GLN263     -0.2864
    158  CB        17.5630   82.9390   41.2660 C.3   263  GLN263      0.0394
    159  CG        18.0260   84.1510   40.4620 C.3   263  GLN263      0.0908
    160  CD        16.9580   84.7220   39.5280 C.2   263  GLN263      0.2608
    161  OE1       16.2390   83.9850   38.8410 O.2   263  GLN263     -0.2717
    162  NE2       16.8700   86.0480   39.4790 N.am  263  GLN263     -0.0878
    163  N         13.1520   83.2020   45.1570 N.3   266  PHE266     -0.1241
    164  CA        12.1220   83.8200   44.3230 C.3   266  PHE266      0.1605
    165  C         11.2560   82.7810   43.6080 C.2   266  PHE266      0.2264
    166  O         10.0340   82.9390   43.5340 O.2   266  PHE266     -0.2867
    167  CB        12.7410   84.7830   43.3010 C.3   266  PHE266      0.0534
    168  CG        11.7360   85.3800   42.3550 C.ar  266  PHE266     -0.0203
    169  CD1       10.8320   86.3420   42.8000 C.ar  266  PHE266     -0.0042
    170  CD2       11.6690   84.9640   41.0330 C.ar  266  PHE266     -0.0042
    171  CE1        9.8930   86.8880   41.9400 C.ar  266  PHE266     -0.0003
    172  CE2       10.7340   85.5070   40.1680 C.ar  266  PHE266     -0.0003
    173  CZ         9.8460   86.4700   40.6210 C.ar  266  PHE266     -0.0000
    174  N         19.2190   76.4700   38.9120 N.3   299  TRP299     -0.1241
    175  CA        19.7160   77.4140   39.9270 C.3   299  TRP299      0.1605
    176  C         20.3400   76.6690   41.1090 C.2   299  TRP299      0.2264
    177  O         21.2610   77.1710   41.7530 O.2   299  TRP299     -0.2867
    178  CB        18.6080   78.3640   40.4120 C.3   299  TRP299      0.0550
    179  CG        18.2680   79.4540   39.4270 C.ar  299  TRP299      0.0003
    180  CD1       17.0850   79.6280   38.7660 C.ar  299  TRP299      0.0946
    181  CD2       19.1260   80.5110   38.9900 C.ar  299  TRP299      0.0152
    182  NE1       17.1540   80.7280   37.9450 N.ar  299  TRP299     -0.2442
    183  CE2       18.3980   81.2870   38.0650 C.ar  299  TRP299      0.0810
    184  CE3       20.4390   80.8780   39.2900 C.ar  299  TRP299      0.0012
    185  CZ2       18.9400   82.4060   37.4420 C.ar  299  TRP299      0.0191
    186  CZ3       20.9750   81.9950   38.6720 C.ar  299  TRP299      0.0001
    187  CH2       20.2270   82.7430   37.7570 C.ar  299  TRP299      0.0015
@<TRIPOS>BOND
     1    72    71    1
     2     4     3    2
     3    15    16    2
     4    15    14    1
     5    60    61    1
     6    67    68    1
     7    71    68    1
     8    71    73    1
     9     3     2    1
    10     3    13   am
    11    68    69    1
    12     1     2    1
    13     2     5    1
    14    14    13    1
    15    14    17    1
    16    52    51    1
    17    48    47    1
    18    48    51    1
    19    48    49    1
    20    61    62    1
    21    61    64    1
    22    65    64    1
    23    50    49    2
    24     7     9   ar
    25     7     6   ar
    26    69    70    2
    27    69    74   am
    28    62    63    2
    29     9    11   ar
    30    49    53   am
    31    64    66    1
    32    17    18    1
    33     5     6    1
    34     6     8   ar
    35    11    12    1
    36    11    10   ar
    37    74    75    1
    38    31    32    1
    39     8    10   ar
    40    53    54    1
    41    32    33    1
    42    32    35    1
    43    55    56    2
    44    55    54    1
    45    18    20   ar
    46    18    19   ar
    47    34    33    2
    48    37    36   ar
    49    33    39   am
    50    41    42    2
    51    41    40    1
    52    20    22   ar
    53    79    80    1
    54    54    57    1
    55    75    76    1
    56    75    78    1
    57    39    40    1
    58    76    77    2
    59    35    36    1
    60    19    21   ar
    61    36    38   ar
    62    40    43    1
    63    80    83    1
    64    80    81    1
    65    22    21   ar
    66    57    59    1
    67    57    58    1
    68    83    84    1
    69    83    85    1
    70    43    44    1
    71    84    86    1
    72    81    87   am
    73    81    82    2
    74    87    88    1
    75    89    88    1
    76    89    90    2
    77    44    46    1
    78    44    45    1
    79    88    91    1
    80   185   187   ar
    81   185   183   ar
    82    91    92    1
    83   187   186   ar
    84   182   183   ar
    85   182   180   ar
    86   183   181   ar
    87    94    92   ar
    88    94    96   ar
    89    99   100    1
    90    92    93   ar
    91   186   184   ar
    92   180   179   ar
    93   161   160    2
    94   174   175    1
    95   181   184   ar
    96   181   179   ar
    97    96    97   ar
    98   179   178    1
    99   162   160   am
   100   160   159    1
   101   109   107   ar
   102   109   108   ar
   103   107   105   ar
   104   108   106   ar
   105   100   103    1
   106   100   101    1
   107   105   104   ar
   108   106   104   ar
   109   175   178    1
   110   175   176    1
   111    93    95   ar
   112   104   103    1
   113   172   173   ar
   114   172   170   ar
   115    97    95   ar
   116    97    98    1
   117   101   102    2
   118   159   158    1
   119   173   171   ar
   120   148   147    1
   121    23    24    1
   122   170   168   ar
   123    29    28    1
   124   176   177    2
   125   158   155    1
   126    27    24    1
   127    27    28    1
   128    24    25    1
   129   171   169   ar
   130   149   147    1
   131   147   144    1
   132    28    30    1
   133   168   169   ar
   134   168   167    1
   135   155   156    1
   136   155   154    1
   137   157   156    2
   138    25    26    2
   139   120   119    2
   140   146   145    2
   141   145   144    1
   142   167   164    1
   143   144   143    1
   144   166   165    2
   145   154   152   am
   146   165   164    1
   147   123   122    1
   148   123   124    1
   149   122   121    1
   150   164   163    1
   151   119   118    1
   152   143   136   am
   153   152   153    2
   154   152   151    1
   155   121   118    1
   156   128   127    2
   157   127   126    1
   158   118   117    1
   159   151   150    1
   160   136   137    2
   161   136   135    1
   162   125   126    1
   163   134   135    1
   164   113   112    2
   165   126   129    1
   166   117   112   am
   167   135   138    1
   168   112   111    1
   169   129   130    1
   170   138   139    1
   171   111   110    1
   172   111   114    1
   173   130   131    1
   174   139   140    1
   175   110   116    1
   176   114   115    1
   177   131   132    1
   178   140   142   ar
   179   140   141   ar
   180   116   115    1
   181   132   133    1
