@<TRIPOS>MOLECULE
tmp/4tppA00.pdb
 220 214 0 0 0
SMALL
GASTEIGER

@<TRIPOS>ATOM
      1  N         15.4530   95.7230   30.3680 N.3    62  TYR62      -0.1241
      2  CA        14.4830   94.6360   30.4330 C.3    62  TYR62       0.1605
      3  C         13.0580   95.0420   30.0550 C.2    62  TYR62       0.2264
      4  O         12.5010   94.5230   29.0890 O.2    62  TYR62      -0.2867
      5  CB        14.4810   94.0180   31.8300 C.3    62  TYR62       0.0534
      6  CG        13.4110   92.9750   31.9910 C.ar   62  TYR62      -0.0201
      7  CD1       13.3880   91.8470   31.1780 C.ar   62  TYR62      -0.0009
      8  CD2       12.4160   93.1200   32.9390 C.ar   62  TYR62      -0.0009
      9  CE1       12.4020   90.8910   31.3160 C.ar   62  TYR62       0.0417
     10  CE2       11.4270   92.1700   33.0860 C.ar   62  TYR62       0.0417
     11  CZ        11.4230   91.0580   32.2730 C.ar   62  TYR62       0.1957
     12  OH        10.4330   90.1130   32.4210 O.3    62  TYR62      -0.2866
     13  N         11.1640  100.5450   40.0550 N.3   109  SER109     -0.1217
     14  CA         9.9580  100.0150   40.6900 C.3   109  SER109      0.1889
     15  C          9.1550  101.1330   41.3420 C.2   109  SER109      0.2288
     16  O          9.6410  102.2530   41.4920 O.2   109  SER109     -0.2866
     17  CB        10.3080   98.9500   41.7360 C.3   109  SER109      0.2089
     18  OG        10.8480   99.5310   42.9090 O.3   109  SER109     -0.2183
     19  N          0.9630   94.4000   38.3740 N.3   172  ASP172     -0.1225
     20  CA         1.5690   94.7700   39.6450 C.3   172  ASP172      0.1805
     21  C          1.7420   93.4990   40.4820 C.2   172  ASP172      0.2598
     22  O          0.7610   92.8890   40.9050 O.2   172  ASP172     -0.2718
     23  CB         0.7010   95.8010   40.3770 C.3   172  ASP172      0.1424
     24  CG         1.4180   96.4630   41.5470 C.2   172  ASP172      0.3668
     25  OD1        2.5270   96.0250   41.9190 O.co2 172  ASP172     -0.2456
     26  OD2        0.8550   97.4210   42.1130 O.co2 172  ASP172     -0.2456
     27  N          2.9880   93.0950   40.7040 N.am  173  LEU173     -0.1966
     28  CA         3.2800   91.8670   41.4400 C.3   173  LEU173      0.1728
     29  C          2.8130   91.9050   42.8910 C.2   173  LEU173      0.2616
     30  O          2.5930   90.8620   43.5080 O.2   173  LEU173     -0.2715
     31  CB         4.7760   91.5730   41.4060 C.3   173  LEU173      0.0311
     32  CG         5.1750   90.3560   40.5760 C.3   173  LEU173      0.0022
     33  CD1        6.6290   90.0030   40.8300 C.3   173  LEU173      0.0001
     34  CD2        4.2670   89.1780   40.8870 C.3   173  LEU173      0.0001
     35  N          2.6810   93.1080   43.4360 N.am  174  ALA174     -0.1977
     36  CA         2.2360   93.2730   44.8130 C.3   174  ALA174      0.1597
     37  C          0.8050   92.7680   44.9700 C.2   174  ALA174      0.2287
     38  O          0.4100   92.2920   46.0380 O.2   174  ALA174     -0.2864
     39  CB         2.3410   94.7350   45.2360 C.3   174  ALA174      0.0319
     40  N         -0.0520   88.2480   45.0260 N.3   177  PHE177     -0.1241
     41  CA        -0.0760   87.3380   46.1630 C.3   177  PHE177      0.1605
     42  C         -1.4780   87.1640   46.7240 C.2   177  PHE177      0.2264
     43  O         -1.8620   86.0610   47.1050 O.2   177  PHE177     -0.2867
     44  CB         0.8790   87.8310   47.2490 C.3   177  PHE177      0.0534
     45  CG         2.2820   88.0300   46.7610 C.ar  177  PHE177     -0.0203
     46  CD1        3.1280   86.9440   46.5850 C.ar  177  PHE177     -0.0042
     47  CD2        2.7550   89.2970   46.4620 C.ar  177  PHE177     -0.0042
     48  CE1        4.4250   87.1190   46.1250 C.ar  177  PHE177     -0.0003
     49  CE2        4.0520   89.4810   46.0030 C.ar  177  PHE177     -0.0003
     50  CZ         4.8880   88.3900   45.8350 C.ar  177  PHE177     -0.0000
     51  N          3.9630   87.9470   32.3190 N.3   212  ASP212     -0.1225
     52  CA         4.9410   88.9590   32.7140 C.3   212  ASP212      0.1805
     53  C          6.1990   88.2820   33.2560 C.2   212  ASP212      0.2597
     54  O          7.2850   88.8640   33.2520 O.2   212  ASP212     -0.2718
     55  CB         4.3340   89.9180   33.7560 C.3   212  ASP212      0.1424
     56  CG         5.0790   91.2530   33.8560 C.2   212  ASP212      0.3668
     57  OD1        5.7130   91.6800   32.8680 O.co2 212  ASP212     -0.2456
     58  OD2        5.0100   91.8980   34.9240 O.co2 212  ASP212     -0.2456
     59  N          6.0460   87.0370   33.6930 N.am  213  LEU213     -0.1979
     60  CA         7.1460   86.2870   34.2860 C.3   213  LEU213      0.1596
     61  C          7.6650   85.1710   33.3940 C.2   213  LEU213      0.2287
     62  O          8.5520   84.4220   33.7900 O.2   213  LEU213     -0.2864
     63  CB         6.7050   85.6880   35.6130 C.3   213  LEU213      0.0297
     64  CG         6.1010   86.6680   36.6100 C.3   213  LEU213      0.0022
     65  CD1        5.6820   85.9200   37.8600 C.3   213  LEU213      0.0001
     66  CD2        7.0810   87.7830   36.9330 C.3   213  LEU213      0.0001
     67  N          9.7050   84.5000   31.3490 N.3   215  SER215     -0.1202
     68  CA        11.1070   84.2750   31.0140 C.3   215  SER215      0.2020
     69  C         11.6440   83.0810   31.7910 C.2   215  SER215      0.2618
     70  O         12.7030   82.5460   31.4710 O.2   215  SER215     -0.2717
     71  CB        11.9540   85.5150   31.2960 C.3   215  SER215      0.2103
     72  OG        12.3450   85.5630   32.6530 O.3   215  SER215     -0.2182
     73  N         10.9000   82.6610   32.8070 N.am  216  VAL216     -0.1979
     74  CA        11.2800   81.5050   33.6020 C.3   216  VAL216      0.1595
     75  C         10.7700   80.2260   32.9520 C.2   216  VAL216      0.2287
     76  O         11.1440   79.1210   33.3440 O.2   216  VAL216     -0.2864
     77  CB        10.7330   81.6100   35.0270 C.3   216  VAL216      0.0276
     78  CG1       11.1130   82.9470   35.6220 C.3   216  VAL216      0.0022
     79  CG2        9.2290   81.4470   35.0240 C.3   216  VAL216      0.0022
     80  N         17.5480   91.8600   33.6120 N.3   230  ILE230     -0.1231
     81  CA        16.7000   92.1510   34.7580 C.3   230  ILE230      0.1692
     82  C         17.4910   92.7590   35.9240 C.2   230  ILE230      0.2592
     83  O         17.0890   93.7840   36.4790 O.2   230  ILE230     -0.2718
     84  CB        15.9620   90.8720   35.2160 C.3   230  ILE230      0.0266
     85  CG1       15.1960   90.2720   34.0340 C.3   230  ILE230      0.0019
     86  CG2       15.0100   91.1660   36.3670 C.3   230  ILE230      0.0020
     87  CD1       14.4870   88.9690   34.3440 C.3   230  ILE230      0.0001
     88  N         18.6130   92.1380   36.2830 N.am  231  TYR231     -0.1976
     89  CA        19.4490   92.6420   37.3710 C.3   231  TYR231      0.1639
     90  C         20.1320   93.9470   36.9980 C.2   231  TYR231      0.2290
     91  O         20.4400   94.7650   37.8650 O.2   231  TYR231     -0.2864
     92  CB        20.4970   91.6080   37.7770 C.3   231  TYR231      0.0560
     93  CG        19.9900   90.5980   38.7750 C.ar  231  TYR231     -0.0198
     94  CD1       19.8720   90.9200   40.1240 C.ar  231  TYR231     -0.0009
     95  CD2       19.6290   89.3220   38.3730 C.ar  231  TYR231     -0.0009
     96  CE1       19.4040   89.9930   41.0440 C.ar  231  TYR231      0.0417
     97  CE2       19.1620   88.3920   39.2820 C.ar  231  TYR231      0.0417
     98  CZ        19.0510   88.7300   40.6140 C.ar  231  TYR231      0.1957
     99  OH        18.5860   87.7940   41.5060 O.3   231  TYR231     -0.2866
    100  N         17.7430   96.1830   38.2750 N.3   234  PHE234     -0.1227
    101  CA        17.7000   96.1630   39.7380 C.3   234  PHE234      0.1736
    102  C         18.8610   96.9090   40.3720 C.2   234  PHE234      0.2595
    103  O         18.6720   97.7550   41.2480 O.2   234  PHE234     -0.2718
    104  CB        17.6930   94.7230   40.2490 C.3   234  PHE234      0.0547
    105  CG        16.4090   94.0020   39.9960 C.ar  234  PHE234     -0.0202
    106  CD1       15.2570   94.7040   39.6880 C.ar  234  PHE234     -0.0042
    107  CD2       16.3490   92.6240   40.0600 C.ar  234  PHE234     -0.0042
    108  CE1       14.0640   94.0440   39.4510 C.ar  234  PHE234     -0.0003
    109  CE2       15.1600   91.9590   39.8250 C.ar  234  PHE234     -0.0003
    110  CZ        14.0160   92.6730   39.5190 C.ar  234  PHE234     -0.0000
    111  N         20.0650   96.5760   39.9280 N.am  235  TRP235     -0.1976
    112  CA        21.2750   97.1340   40.4990 C.3   235  TRP235      0.1640
    113  C         21.3320   98.6290   40.2650 C.2   235  TRP235      0.2290
    114  O         21.8210   99.3850   41.1020 O.2   235  TRP235     -0.2864
    115  CB        22.4940   96.4430   39.9040 C.3   235  TRP235      0.0576
    116  CG        22.5570   94.9860   40.2570 C.ar  235  TRP235      0.0006
    117  CD1       21.9830   94.3800   41.3380 C.ar  235  TRP235      0.0946
    118  CD2       23.2190   93.9480   39.5210 C.ar  235  TRP235      0.0152
    119  NE1       22.2540   93.0330   41.3240 N.ar  235  TRP235     -0.2442
    120  CE2       23.0100   92.7430   40.2200 C.ar  235  TRP235      0.0810
    121  CE3       23.9710   93.9230   38.3420 C.ar  235  TRP235      0.0012
    122  CZ2       23.5260   91.5250   39.7790 C.ar  235  TRP235      0.0191
    123  CZ3       24.4830   92.7130   37.9070 C.ar  235  TRP235      0.0001
    124  CH2       24.2570   91.5310   38.6230 C.ar  235  TRP235      0.0015
    125  N         19.1900   93.6050   49.2370 N.3   250  PRO250     -0.2102
    126  CA        20.2940   92.9040   48.5700 C.3   250  PRO250      0.1504
    127  C         20.0220   92.5920   47.1030 C.2   250  PRO250      0.2576
    128  O         20.9680   92.4600   46.3310 O.2   250  PRO250     -0.2718
    129  CB        20.4220   91.6120   49.3800 C.3   250  PRO250      0.0282
    130  CG        19.9480   91.9890   50.7400 C.3   250  PRO250      0.0208
    131  CD        18.8330   92.9730   50.5200 C.3   250  PRO250      0.0893
    132  N         18.7530   92.4830   46.7260 N.am  251  MET251     -0.1966
    133  CA        18.4070   92.1820   45.3430 C.3   251  MET251      0.1736
    134  C         18.8500   93.2850   44.3880 C.2   251  MET251      0.2616
    135  O         19.2410   93.0160   43.2540 O.2   251  MET251     -0.2715
    136  CB        16.9060   91.9580   45.1980 C.3   251  MET251      0.0427
    137  CG        16.4990   91.5770   43.7900 C.3   251  MET251      0.0599
    138  SD        14.7170   91.6030   43.5620 S.3   251  MET251     -0.1393
    139  CE        14.3800   93.3440   43.8070 C.3   251  MET251      0.0692
    140  N         18.7890   94.5270   44.8490 N.am  252  MET252     -0.1963
    141  CA        19.1860   95.6560   44.0220 C.3   252  MET252      0.1736
    142  C         20.6010   96.1120   44.3430 C.2   252  MET252      0.2616
    143  O         21.0630   97.1330   43.8400 O.2   252  MET252     -0.2715
    144  CB        18.2070   96.8060   44.2110 C.3   252  MET252      0.0427
    145  CG        16.8160   96.4880   43.7200 C.3   252  MET252      0.0599
    146  SD        15.6230   97.6970   44.2900 S.3   252  MET252     -0.1393
    147  CE        14.1340   97.0450   43.5480 C.3   252  MET252      0.0692
    148  N         21.2840   95.3510   45.1900 N.am  253  ASP253     -0.1971
    149  CA        22.6530   95.6720   45.5710 C.3   253  ASP253      0.1709
    150  C         23.6460   94.9010   44.7000 C.2   253  ASP253      0.2293
    151  O         23.7900   93.6850   44.8360 O.2   253  ASP253     -0.2864
    152  CB        22.8800   95.3600   47.0530 C.3   253  ASP253      0.1436
    153  CG        24.1090   96.0510   47.6170 C.2   253  ASP253      0.3671
    154  OD1       24.9430   96.5280   46.8190 O.co2 253  ASP253     -0.2456
    155  OD2       24.2400   96.1190   48.8590 O.co2 253  ASP253     -0.2456
    156  N         26.2910   92.3740   45.9250 N.3   256  LYS256     -0.1245
    157  CA        25.8960   91.0240   46.2960 C.3   256  LYS256      0.1561
    158  C         25.5900   90.1820   45.0650 C.2   256  LYS256      0.2260
    159  O         24.5890   89.4690   45.0070 O.2   256  LYS256     -0.2867
    160  CB        24.7030   91.0830   47.2410 C.3   256  LYS256      0.0271
    161  CG        24.8910   92.1370   48.3170 C.3   256  LYS256      0.0035
    162  CD        24.1340   91.7990   49.5810 C.3   256  LYS256      0.0206
    163  CE        24.4730   92.7790   50.6930 C.3   256  LYS256      0.1093
    164  NZ        23.8840   92.3590   51.9940 N.3   256  LYS256     -0.1314
    165  N         25.3700   86.2340   45.2460 N.3   259  GLU259     -0.1231
    166  CA        24.1760   85.7340   45.9150 C.3   259  GLU259      0.1699
    167  C         23.0570   85.4330   44.9320 C.2   259  GLU259      0.2592
    168  O         22.0400   84.8430   45.2960 O.2   259  GLU259     -0.2718
    169  CB        23.6940   86.7350   46.9680 C.3   259  GLU259      0.0402
    170  CG        24.4930   86.7080   48.2610 C.3   259  GLU259      0.1161
    171  CD        24.0910   87.8140   49.2170 C.2   259  GLU259      0.3649
    172  OE1       22.9250   87.8200   49.6650 O.co2 259  GLU259     -0.2457
    173  OE2       24.9410   88.6760   49.5220 O.co2 259  GLU259     -0.2457
    174  N         23.2410   85.8570   43.6890 N.am  260  VAL260     -0.1980
    175  CA        22.1720   85.8310   42.7050 C.3   260  VAL260      0.1595
    176  C         21.6160   84.4290   42.4630 C.2   260  VAL260      0.2287
    177  O         20.4030   84.2770   42.3180 O.2   260  VAL260     -0.2864
    178  CB        22.6340   86.4230   41.3600 C.3   260  VAL260      0.0276
    179  CG1       21.5210   86.3220   40.3270 C.3   260  VAL260      0.0022
    180  CG2       23.0750   87.8670   41.5390 C.3   260  VAL260      0.0022
    181  N         21.1140   82.0530   44.5040 N.3   262  GLN262     -0.1231
    182  CA        20.1880   81.7270   45.5740 C.3   262  GLN262      0.1698
    183  C         19.0010   82.6830   45.5560 C.2   262  GLN262      0.2593
    184  O         17.8850   82.3080   45.9170 O.2   262  GLN262     -0.2718
    185  CB        20.9030   81.7590   46.9290 C.3   262  GLN262      0.0381
    186  CG        20.6870   83.0220   47.7500 C.3   262  GLN262      0.0905
    187  CD        21.5940   83.0900   48.9660 C.2   262  GLN262      0.2608
    188  OE1       22.8200   83.0790   48.8420 O.2   262  GLN262     -0.2717
    189  NE2       20.9940   83.1570   50.1510 N.am  262  GLN262     -0.0878
    190  N         19.2420   83.9140   45.1180 N.am  263  GLY263     -0.1942
    191  CA        18.1890   84.9070   45.0480 C.3   263  GLY263      0.2014
    192  C         17.1250   84.4380   44.0830 C.2   263  GLY263      0.2638
    193  O         15.9330   84.6190   44.3150 O.2   263  GLY263     -0.2714
    194  N         17.5650   83.8190   42.9920 N.am  264  GLN264     -0.1977
    195  CA        16.6510   83.2800   41.9940 C.3   264  GLN264      0.1601
    196  C         15.9610   82.0250   42.5160 C.2   264  GLN264      0.2287
    197  O         14.7800   81.7990   42.2520 O.2   264  GLN264     -0.2864
    198  CB        17.3980   82.9700   40.6950 C.3   264  GLN264      0.0394
    199  CG        17.6440   84.1840   39.8150 C.3   264  GLN264      0.0908
    200  CD        16.4350   84.5510   38.9770 C.2   264  GLN264      0.2608
    201  OE1       15.9780   83.7640   38.1480 O.2   264  GLN264     -0.2717
    202  NE2       15.9100   85.7520   39.1890 N.am  264  GLN264     -0.0878
    203  N         13.1140   82.9410   44.7040 N.3   267  PHE267     -0.1241
    204  CA        12.0260   83.5340   43.9470 C.3   267  PHE267      0.1605
    205  C         11.1580   82.4640   43.2970 C.2   267  PHE267      0.2264
    206  O          9.9290   82.5230   43.3640 O.2   267  PHE267     -0.2867
    207  CB        12.5790   84.4880   42.8900 C.3   267  PHE267      0.0534
    208  CG        11.5320   85.0570   41.9910 C.ar  267  PHE267     -0.0203
    209  CD1       10.6540   86.0210   42.4540 C.ar  267  PHE267     -0.0042
    210  CD2       11.4190   84.6240   40.6830 C.ar  267  PHE267     -0.0042
    211  CE1        9.6790   86.5480   41.6270 C.ar  267  PHE267     -0.0003
    212  CE2       10.4480   85.1440   39.8510 C.ar  267  PHE267     -0.0003
    213  CZ         9.5750   86.1090   40.3250 C.ar  267  PHE267     -0.0000
    214  N          7.4840   82.3580   44.5000 N.3   271  VAL271     -0.1245
    215  CA         6.6220   83.1110   43.5990 C.3   271  VAL271      0.1561
    216  C          6.2610   82.3740   42.3110 C.2   271  VAL271      0.2260
    217  O          5.0840   82.1760   42.0100 O.2   271  VAL271     -0.2867
    218  CB         7.2710   84.4460   43.2080 C.3   271  VAL271      0.0252
    219  CG1        6.2590   85.3270   42.5080 C.3   271  VAL271      0.0019
    220  CG2        7.8300   85.1480   44.4320 C.3   271  VAL271      0.0019
@<TRIPOS>BOND
     1     4     3    2
     2     3     2    1
     3     1     2    1
     4     2     5    1
     5    68    71    1
     6    68    67    1
     7    68    69    1
     8     7     9   ar
     9     7     6   ar
    10    71    72    1
    11     9    11   ar
    12    70    69    2
    13    69    73   am
    14     5     6    1
    15     6     8   ar
    16    11    12    1
    17    11    10   ar
    18    51    52    1
    19    52    53    1
    20    52    55    1
    21    73    74    1
    22    57    56   ar
    23     8    10   ar
    24    75    76    2
    25    75    74    1
    26    54    53    2
    27    53    59   am
    28    61    62    2
    29    61    60    1
    30    74    77    1
    31    80    81    1
    32    59    60    1
    33    55    56    1
    34    56    58   ar
    35    85    87    1
    36    85    84    1
    37    60    63    1
    38    81    84    1
    39    81    82    1
    40    79    77    1
    41    77    78    1
    42    84    86    1
    43    63    64    1
    44    82    88   am
    45    82    83    2
    46    88    89    1
    47    64    66    1
    48    64    65    1
    49    90    89    1
    50    90    91    2
    51    89    92    1
    52    92    93    1
    53   123   121   ar
    54   123   124   ar
    55   201   200    2
    56   100   101    1
    57   121   118   ar
    58    95    93   ar
    59    95    97   ar
    60    19    20    1
    61   124   122   ar
    62    93    94   ar
    63   200   202   am
    64   200   199    1
    65    97    98   ar
    66   108   110   ar
    67   108   106   ar
    68   110   109   ar
    69   118   120   ar
    70   118   116   ar
    71    20    23    1
    72    20    21    1
    73   106   105   ar
    74   101   104    1
    75   101   102    1
    76   122   120   ar
    77   199   198    1
    78   109   107   ar
    79   212   213   ar
    80   212   210   ar
    81   115   116    1
    82   115   112    1
    83   111   102   am
    84   111   112    1
    85   105   107   ar
    86   105   104    1
    87    13    14    1
    88    94    96   ar
    89   120   119   ar
    90   116   117   ar
    91   113   112    1
    92   113   114    2
    93   213   211   ar
    94   179   178    1
    95   102   103    2
    96    23    24    1
    97    21    27   am
    98    21    22    2
    99    32    33    1
   100    32    34    1
   101    32    31    1
   102    98    96   ar
   103    98    99    1
   104   210   208   ar
   105    14    15    1
   106    14    17    1
   107   198   195    1
   108    27    28    1
   109   119   117   ar
   110    15    16    2
   111   178   180    1
   112   178   175    1
   113    31    28    1
   114    28    29    1
   115    24    25   ar
   116    24    26   ar
   117   211   209   ar
   118    17    18    1
   119   208   209   ar
   120   208   207    1
   121   195   196    1
   122   195   194    1
   123   217   216    2
   124   197   196    2
   125   216   215    1
   126   177   176    2
   127   176   175    1
   128   219   218    1
   129   175   174    1
   130   207   204    1
   131    29    35   am
   132    29    30    2
   133   194   192   am
   134   218   215    1
   135   218   220    1
   136   135   134    2
   137   205   206    2
   138   205   204    1
   139    35    36    1
   140   147   146    1
   141   138   137    1
   142   138   139    1
   143   215   214    1
   144   174   167   am
   145   145   144    1
   146   145   146    1
   147   137   136    1
   148   143   142    2
   149   204   203    1
   150   141   144    1
   151   141   142    1
   152   141   140    1
   153   192   193    2
   154   192   191    1
   155   142   148   am
   156   134   140   am
   157   134   133    1
   158   181   182    1
   159   150   151    2
   160   150   149    1
   161    36    37    1
   162    36    39    1
   163   167   168    2
   164   167   166    1
   165    37    38    2
   166   159   158    2
   167    40    41    1
   168   191   190    1
   169   158   157    1
   170   190   183   am
   171   148   149    1
   172   136   133    1
   173   165   166    1
   174   133   132    1
   175   183   182    1
   176   183   184    2
   177   149   152    1
   178   182   185    1
   179    50    49   ar
   180    50    48   ar
   181   166   169    1
   182   156   157    1
   183    49    47   ar
   184    48    46   ar
   185    41    42    1
   186    41    44    1
   187   157   160    1
   188   128   127    2
   189    47    45   ar
   190    46    45   ar
   191    42    43    2
   192   132   127   am
   193    45    44    1
   194   154   153   ar
   195   185   186    1
   196   169   170    1
   197   152   153    1
   198   127   126    1
   199   160   161    1
   200   153   155   ar
   201   186   187    1
   202   170   171    1
   203   161   162    1
   204   126   125    1
   205   126   129    1
   206   188   187    2
   207   187   189   am
   208   171   173   ar
   209   171   172   ar
   210   125   131    1
   211   129   130    1
   212   162   163    1
   213   131   130    1
   214   163   164    1
