@<TRIPOS>MOLECULE
tmp/4tprA04.pdb
 99 95 0 0 0
SMALL
GASTEIGER

@<TRIPOS>ATOM
      1  N        -58.9890    1.5880   16.1720 N.3    42  LEU42      -0.1245
      2  CA       -58.0550    0.8720   15.3350 C.3    42  LEU42       0.1561
      3  C        -56.7450    1.6400   15.3310 C.2    42  LEU42       0.2260
      4  O        -56.7230    2.8540   15.0970 O.2    42  LEU42      -0.2867
      5  CB       -58.5860    0.7770   13.9160 C.3    42  LEU42       0.0270
      6  CG       -57.6180    0.2980   12.8270 C.3    42  LEU42       0.0019
      7  CD1      -57.0200   -1.0610   13.1580 C.3    42  LEU42       0.0001
      8  CD2      -58.3520    0.2520   11.4990 C.3    42  LEU42       0.0001
      9  N        -53.1910    1.4420   13.2430 N.3    44  LYS44      -0.1245
     10  CA       -52.3580    0.9010   12.1780 C.3    44  LYS44       0.1561
     11  C        -50.8870    1.1500   12.5230 C.2    44  LYS44       0.2260
     12  O        -50.5820    2.0190   13.3500 O.2    44  LYS44      -0.2867
     13  CB       -52.7780    1.5090   10.8310 C.3    44  LYS44       0.0271
     14  CG       -54.2290    1.1400   10.4840 C.3    44  LYS44       0.0035
     15  CD       -54.6860    1.5530    9.0970 C.3    44  LYS44       0.0206
     16  CE       -54.0850    0.6850    7.9910 C.3    44  LYS44       0.1093
     17  NZ       -54.4850   -0.7610    8.0010 N.3    44  LYS44      -0.1314
     18  N        -57.2610    5.5330   15.8100 N.3    50  LYS50      -0.1231
     19  CA       -58.4120    6.1430   15.1320 C.3    50  LYS50       0.1693
     20  C        -59.6760    5.6470   15.8010 C.2    50  LYS50       0.2592
     21  O        -59.8630    4.4190   15.9400 O.2    50  LYS50      -0.2718
     22  CB       -58.4700    5.6810   13.6600 C.3    50  LYS50       0.0285
     23  CG       -57.3180    6.1600   12.7980 C.3    50  LYS50       0.0035
     24  CD       -57.6560    6.0430   11.3080 C.3    50  LYS50       0.0206
     25  CE       -57.8560    4.6020   10.8860 C.3    50  LYS50       0.1093
     26  NZ       -57.8240    4.4500    9.4060 N.3    50  LYS50      -0.1314
     27  N        -60.5510    6.5720   16.1980 N.am   51  LEU51      -0.1966
     28  CA       -61.8520    6.2020   16.7800 C.3    51  LEU51       0.1728
     29  C        -62.7920    5.5810   15.7410 C.2    51  LEU51       0.2616
     30  O        -62.9510    6.1260   14.6630 O.2    51  LEU51      -0.2715
     31  CB       -62.5060    7.4260   17.4230 C.3    51  LEU51       0.0311
     32  CG       -63.8730    7.2140   18.0690 C.3    51  LEU51       0.0022
     33  CD1      -63.7950    6.2670   19.2580 C.3    51  LEU51       0.0001
     34  CD2      -64.4630    8.5440   18.4910 C.3    51  LEU51       0.0001
     35  N        -63.4210    4.4500   16.0940 N.am   52  LEU52      -0.1977
     36  CA       -64.3990    3.7760   15.2450 C.3    52  LEU52       0.1596
     37  C        -65.8240    3.9400   15.7700 C.2    52  LEU52       0.2287
     38  O        -66.7310    4.2960   15.0300 O.2    52  LEU52      -0.2864
     39  CB       -64.0830    2.2890   15.1310 C.3    52  LEU52       0.0297
     40  CG       -62.6800    1.9470   14.6500 C.3    52  LEU52       0.0022
     41  CD1      -62.4320    0.4640   14.8610 C.3    52  LEU52       0.0001
     42  CD2      -62.5080    2.3310   13.1820 C.3    52  LEU52       0.0001
     43  N        -67.2450    9.4880    9.4970 N.3    62  GLY62      -0.1210
     44  CA       -66.2190    9.0190    8.5670 C.3    62  GLY62       0.1956
     45  C        -65.9080    7.5350    8.6270 C.2    62  GLY62       0.2612
     46  O        -65.1910    7.0080    7.7770 O.2    62  GLY62      -0.2717
     47  N        -66.4420    6.8420    9.6200 N.am   63  VAL63      -0.1966
     48  CA       -66.1660    5.4300    9.7680 C.3    63  VAL63       0.1712
     49  C        -67.0890    4.6360    8.8730 C.2    63  VAL63       0.2458
     50  O        -68.2990    4.8800    8.8810 O.2    63  VAL63      -0.2730
     51  CB       -66.3320    5.0060   11.2370 C.3    63  VAL63       0.0289
     52  CG1      -66.1780    3.4940   11.3950 C.3    63  VAL63       0.0023
     53  CG2      -65.3120    5.7550   12.0760 C.3    63  VAL63       0.0023
     54  N        -66.5340    3.6920    8.0900 N.am   64  PRO64      -0.2727
     55  CA       -67.3490    2.8710    7.1890 C.3    64  PRO64       0.1402
     56  C        -68.4550    2.0990    7.8870 C.2    64  PRO64       0.2269
     57  O        -68.2840    1.6720    9.0310 O.2    64  PRO64      -0.2865
     58  CB       -66.3280    1.8880    6.5880 C.3    64  PRO64       0.0296
     59  CG       -65.0400    2.6140    6.6350 C.3    64  PRO64       0.0237
     60  CD       -65.0940    3.4280    7.9110 C.3    64  PRO64       0.0939
     61  N        -69.3500   -0.8940    7.5560 N.3    66  ARG66      -0.1231
     62  CA       -69.0250   -2.2930    7.8850 C.3    66  ARG66       0.1694
     63  C        -68.6650   -2.4830    9.3630 C.2    66  ARG66       0.2592
     64  O        -68.7110   -3.6100    9.8670 O.2    66  ARG66      -0.2718
     65  CB       -67.8800   -2.8120    7.0140 C.3    66  ARG66       0.0321
     66  CG       -66.5610   -2.0810    7.1050 C.3    66  ARG66       0.0489
     67  CD       -65.5520   -2.7830    6.2100 C.3    66  ARG66       0.2205
     68  NE       -64.2650   -2.1230    6.2260 N.pl3  66  ARG66      -0.0865
     69  CZ       -63.9720   -1.0180    5.5550 C.cat  66  ARG66       0.5346
     70  NH1      -64.8740   -0.4370    4.7840 N.pl3  66  ARG66       0.1354
     71  NH2      -62.7700   -0.4800    5.6740 N.pl3  66  ARG66       0.1354
     72  N        -68.3120   -1.3870   10.0340 N.am   67  PHE67      -0.1976
     73  CA       -68.0460   -1.4040   11.4870 C.3    67  PHE67       0.1639
     74  C        -69.3070   -1.1550   12.3120 C.2    67  PHE67       0.2290
     75  O        -70.0160   -0.1450   12.1030 O.2    67  PHE67      -0.2864
     76  CB       -67.0180   -0.3400   11.8640 C.3    67  PHE67       0.0560
     77  CG       -65.6690   -0.5710   11.2680 C.ar   67  PHE67      -0.0200
     78  CD1      -64.7540   -1.3980   11.9040 C.ar   67  PHE67      -0.0042
     79  CD2      -65.3030    0.0230   10.0750 C.ar   67  PHE67      -0.0042
     80  CE1      -63.5060   -1.6320   11.3570 C.ar   67  PHE67      -0.0003
     81  CE2      -64.0440   -0.2100    9.5320 C.ar   67  PHE67      -0.0003
     82  CZ       -63.1510   -1.0270   10.1790 C.ar   67  PHE67      -0.0000
     83  N        -57.6440   -2.4150    4.3360 N.3    86  GLU86      -0.1231
     84  CA       -57.3010   -1.2570    5.1690 C.3    86  GLU86       0.1699
     85  C        -57.6210   -1.4740    6.6440 C.2    86  GLU86       0.2592
     86  O        -57.2010   -0.6830    7.4780 O.2    86  GLU86      -0.2718
     87  CB       -57.9760    0.0300    4.6770 C.3    86  GLU86       0.0402
     88  CG       -59.4940    0.0910    4.7640 C.3    86  GLU86       0.1161
     89  CD       -60.0810    1.3880    4.1640 C.2    86  GLU86       0.3649
     90  OE1      -59.3120    2.2180    3.6330 O.co2  86  GLU86      -0.2457
     91  OE2      -61.3200    1.5830    4.2100 O.co2  86  GLU86      -0.2457
     92  N        -58.3450   -2.5380    6.9680 N.am   87  ASP87      -0.1974
     93  CA       -58.7970   -2.7830    8.3600 C.3    87  ASP87       0.1709
     94  C        -57.7510   -3.4850    9.2280 C.2    87  ASP87       0.2293
     95  O        -57.9340   -3.6310   10.4470 O.2    87  ASP87      -0.2864
     96  CB       -60.0700   -3.6250    8.3530 C.3    87  ASP87       0.1436
     97  CG       -61.2150   -2.9360    7.6350 C.2    87  ASP87       0.3671
     98  OD1      -61.1880   -1.6960    7.5360 O.co2  87  ASP87      -0.2456
     99  OD2      -62.1290   -3.6350    7.1550 O.co2  87  ASP87      -0.2456
@<TRIPOS>BOND
     1    90    89   ar
     2    89    91   ar
     3    89    88    1
     4    83    84    1
     5    87    88    1
     6    87    84    1
     7    70    69    1
     8    84    85    1
     9    69    71    1
    10    69    68    2
    11    67    68    1
    12    67    66    1
    13    58    59    1
    14    58    55    1
    15    59    60    1
    16    85    92   am
    17    85    86    2
    18    92    93    1
    19    65    66    1
    20    65    62    1
    21    99    97   ar
    22    55    56    1
    23    55    54    1
    24    98    97   ar
    25    61    62    1
    26    97    96    1
    27    46    45    2
    28    62    63    1
    29    56    57    2
    30    60    54    1
    31    16    17    1
    32    16    15    1
    33    54    49   am
    34    96    93    1
    35    93    94    1
    36    44    45    1
    37    44    43    1
    38    45    47   am
    39    49    50    2
    40    49    48    1
    41    15    14    1
    42    94    95    2
    43    63    64    2
    44    63    72   am
    45    26    25    1
    46    81    79   ar
    47    81    82   ar
    48    47    48    1
    49    48    51    1
    50    72    73    1
    51    79    77   ar
    52    82    80   ar
    53    14    13    1
    54    13    10    1
    55    25    24    1
    56    51    52    1
    57    51    53    1
    58    77    76    1
    59    77    78   ar
    60    24    23    1
    61    80    78   ar
    62    73    76    1
    63    73    74    1
    64     8     6    1
    65    75    74    2
    66    10    11    1
    67    10     9    1
    68    11    12    2
    69    23    22    1
    70     6     7    1
    71     6     5    1
    72    42    40    1
    73    22    19    1
    74     5     2    1
    75    40    41    1
    76    40    39    1
    77    30    29    2
    78    38    37    2
    79     4     3    2
    80    39    36    1
    81    19    20    1
    82    19    18    1
    83    36    37    1
    84    36    35    1
    85     3     2    1
    86     2     1    1
    87    29    35   am
    88    29    28    1
    89    20    21    2
    90    20    27   am
    91    27    28    1
    92    28    31    1
    93    31    32    1
    94    32    34    1
    95    32    33    1
