@<TRIPOS>MOLECULE
tmp/4tprB02.pdb
 129 119 0 0 0
SMALL
GASTEIGER

@<TRIPOS>ATOM
      1  N        -30.1180    4.6750    8.3810 N.3   159  THR159     -0.1218
      2  CA       -30.7260    4.1070    7.2160 C.3   159  THR159      0.1862
      3  C        -29.8120    3.0480    6.6360 C.2   159  THR159      0.2287
      4  O        -28.5750    3.1610    6.7130 O.2   159  THR159     -0.2866
      5  CB       -31.0230    5.1850    6.1700 C.3   159  THR159      0.1770
      6  OG1      -29.8080    5.7010    5.6240 O.3   159  THR159     -0.2211
      7  CG2      -31.8360    6.3150    6.7860 C.3   159  THR159      0.0375
      8  N        -27.0880   -2.0440   -2.4150 N.3   163  ASN163     -0.1225
      9  CA       -26.6900   -1.5730   -3.7610 C.3   163  ASN163      0.1785
     10  C        -27.3240   -0.2350   -4.1080 C.2   163  ASN163      0.2597
     11  O        -27.8450   -0.0160   -5.2110 O.2   163  ASN163     -0.2718
     12  CB       -26.9680   -2.6480   -4.8100 C.3   163  ASN163      0.1169
     13  CG       -26.0270   -3.8400   -4.6930 C.2   163  ASN163      0.2627
     14  OD1      -25.1870   -3.8970   -3.7910 O.2   163  ASN163     -0.2716
     15  ND2      -26.1760   -4.8160   -5.5980 N.am  163  ASN163     -0.0877
     16  N        -27.2720    0.6650   -3.1310 N.am  164  SER164     -0.1952
     17  CA       -27.7600    2.0240   -3.2730 C.3   164  SER164      0.1924
     18  C        -29.2220    2.0960   -3.6980 C.2   164  SER164      0.2314
     19  O        -29.6110    2.9910   -4.4610 O.2   164  SER164     -0.2863
     20  CB       -26.8370    2.8220   -4.2050 C.3   164  SER164      0.2116
     21  OG       -25.5150    2.8440   -3.6790 O.3   164  SER164     -0.2180
     22  N        -30.9140   -0.3130   -5.3500 N.3   166  SER166     -0.1202
     23  CA       -31.1970   -1.0970   -6.5520 C.3   166  SER166      0.2020
     24  C        -31.5180   -2.5460   -6.2140 C.2   166  SER166      0.2618
     25  O        -32.0220   -3.2750   -7.0380 O.2   166  SER166     -0.2717
     26  CB       -30.0450   -1.0080   -7.5460 C.3   166  SER166      0.2103
     27  OG       -29.8810    0.3350   -7.9950 O.3   166  SER166     -0.2182
     28  N        -31.2390   -2.9670   -4.9870 N.am  167  LEU167     -0.1979
     29  CA       -31.6040   -4.2830   -4.5290 C.3   167  LEU167      0.1596
     30  C        -32.6450   -4.0720   -3.4450 C.2   167  LEU167      0.2287
     31  O        -32.3350   -3.5760   -2.3600 O.2   167  LEU167     -0.2864
     32  CB       -30.3460   -4.9780   -4.0060 C.3   167  LEU167      0.0297
     33  CG       -30.3220   -6.4770   -3.8980 C.3   167  LEU167      0.0022
     34  CD1      -30.6720   -7.1010   -5.2520 C.3   167  LEU167      0.0001
     35  CD2      -28.9350   -6.8920   -3.4350 C.3   167  LEU167      0.0001
     36  N        -35.9820   -6.1740   -3.5140 N.3   169  SER169     -0.1217
     37  CA       -36.6750   -7.4190   -3.2920 C.3   169  SER169      0.1889
     38  C        -35.7790   -8.3210   -2.4550 C.2   169  SER169      0.2288
     39  O        -34.5530   -8.3270   -2.5750 O.2   169  SER169     -0.2866
     40  CB       -37.0170   -8.0950   -4.6220 C.3   169  SER169      0.2089
     41  OG       -35.8490   -8.6210   -5.2050 O.3   169  SER169     -0.2183
     42  N        -30.6150  -13.5250   -2.2040 N.3   191  VAL191     -0.1231
     43  CA       -30.4110  -13.4270   -3.6520 C.3   191  VAL191      0.1678
     44  C        -30.0870  -14.8110   -4.2210 C.2   191  VAL191      0.2434
     45  O        -29.6540  -15.7130   -3.4890 O.2   191  VAL191     -0.2733
     46  CB       -29.2760  -12.4650   -4.0010 C.3   191  VAL191      0.0265
     47  CG1      -29.5740  -11.0590   -3.4810 C.3   191  VAL191      0.0020
     48  CG2      -27.9440  -12.9710   -3.4820 C.3   191  VAL191      0.0020
     49  N        -30.3080  -14.9970   -5.5290 N.am  192  PRO192     -0.2729
     50  CA       -29.9450  -16.2860   -6.0950 C.3   192  PRO192      0.1401
     51  C        -28.4400  -16.5420   -6.0100 C.2   192  PRO192      0.2269
     52  O        -27.6350  -15.6170   -6.1440 O.2   192  PRO192     -0.2865
     53  CB       -30.3980  -16.1670   -7.5640 C.3   192  PRO192      0.0296
     54  CG       -31.4240  -15.0740   -7.5600 C.3   192  PRO192      0.0237
     55  CD       -30.9450  -14.1100   -6.5160 C.3   192  PRO192      0.0939
     56  N        -25.9710  -15.0490   -8.4340 N.3   195  THR195     -0.1218
     57  CA       -25.7380  -13.6040   -8.4590 C.3   195  THR195      0.1862
     58  C        -24.7080  -13.1140   -7.4290 C.2   195  THR195      0.2287
     59  O        -24.2190  -11.9890   -7.5250 O.2   195  THR195     -0.2866
     60  CB       -27.0640  -12.8290   -8.2430 C.3   195  THR195      0.1770
     61  OG1      -27.5560  -13.0450   -6.9050 O.3   195  THR195     -0.2211
     62  CG2      -28.1320  -13.2900   -9.2380 C.3   195  THR195      0.0375
     63  N        -21.6620  -11.1220   -8.5770 N.3   199  GLU199     -0.1231
     64  CA       -21.9950   -9.7000   -8.6770 C.3   199  GLU199      0.1699
     65  C        -21.8310   -9.0480   -7.3060 C.2   199  GLU199      0.2593
     66  O        -21.9960   -9.6950   -6.2790 O.2   199  GLU199     -0.2718
     67  CB       -23.4280   -9.4900   -9.1820 C.3   199  GLU199      0.0402
     68  CG       -23.7680  -10.2220  -10.4750 C.3   199  GLU199      0.1161
     69  CD       -25.1700   -9.9290  -10.9960 C.2   199  GLU199      0.3649
     70  OE1      -25.5480   -8.7440  -11.1390 O.co2 199  GLU199     -0.2457
     71  OE2      -25.9100  -10.8920  -11.2880 O.co2 199  GLU199     -0.2457
     72  N        -21.5250   -7.7560   -7.3010 N.am  200  THR200     -0.1939
     73  CA       -21.2880   -7.0380   -6.0630 C.3   200  THR200      0.2028
     74  C        -22.5950   -6.8340   -5.2860 C.2   200  THR200      0.2642
     75  O        -23.6070   -6.4500   -5.8580 O.2   200  THR200     -0.2714
     76  CB       -20.6750   -5.6560   -6.3400 C.3   200  THR200      0.1808
     77  OG1      -19.4580   -5.8200   -7.0480 O.3   200  THR200     -0.2208
     78  CG2      -20.4020   -4.9040   -5.0340 C.3   200  THR200      0.0379
     79  N        -22.5360   -7.0860   -3.9890 N.am  201  VAL201     -0.1963
     80  CA       -23.6120   -6.7390   -3.0500 C.3   201  VAL201      0.1727
     81  C        -22.9860   -5.9190   -1.9330 C.2   201  VAL201      0.2616
     82  O        -22.0200   -6.3610   -1.2800 O.2   201  VAL201     -0.2715
     83  CB       -24.3310   -7.9770   -2.5040 C.3   201  VAL201      0.0290
     84  CG1      -25.3930   -7.5890   -1.4900 C.3   201  VAL201      0.0023
     85  CG2      -24.9590   -8.7620   -3.6460 C.3   201  VAL201      0.0023
     86  N        -23.5460   -4.7250   -1.7390 N.am  202  THR202     -0.1951
     87  CA       -23.0140   -3.7310   -0.8210 C.3   202  THR202      0.1897
     88  C        -24.1350   -3.2050    0.0600 C.2   202  THR202      0.2313
     89  O        -25.2120   -2.8700   -0.4230 O.2   202  THR202     -0.2863
     90  CB       -22.4390   -2.5600   -1.6260 C.3   202  THR202      0.1794
     91  OG1      -21.3800   -3.0660   -2.4470 O.3   202  THR202     -0.2208
     92  CG2      -21.9220   -1.4380   -0.7320 C.3   202  THR202      0.0378
     93  N        -25.4020   -0.1390    2.3890 N.3   204  ASN204     -0.1240
     94  CA       -25.1540    1.3030    2.4710 C.3   204  ASN204      0.1653
     95  C        -25.7960    1.8300    3.7320 C.2   204  ASN204      0.2266
     96  O        -27.0130    1.7510    3.8650 O.2   204  ASN204     -0.2867
     97  CB       -25.7490    2.0440    1.2790 C.3   204  ASN204      0.1155
     98  CG       -25.6190    1.2750   -0.0210 C.2   204  ASN204      0.2627
     99  OD1      -26.5970    0.7280   -0.5480 O.2   204  ASN204     -0.2716
    100  ND2      -24.4020    1.2090   -0.5340 N.am  204  ASN204     -0.0877
    101  N        -26.2950    5.1170    6.4060 N.3   206  ALA206     -0.1245
    102  CA       -26.1620    6.5440    6.6950 C.3   206  ALA206      0.1562
    103  C        -26.6770    6.8520    8.1010 C.2   206  ALA206      0.2260
    104  O        -27.7060    6.3400    8.5380 O.2   206  ALA206     -0.2867
    105  CB       -26.9080    7.3740    5.6730 C.3   206  ALA206      0.0290
    106  N        -27.4600   10.2930    9.8590 N.3   208  PRO208     -0.2116
    107  CA       -27.4840   11.7370    9.7580 C.3   208  PRO208      0.1372
    108  C        -26.9100   12.4670   10.9790 C.2   208  PRO208      0.2244
    109  O        -26.1960   13.4520   10.8190 O.2   208  PRO208     -0.2868
    110  CB       -28.9600   12.0470    9.5920 C.3   208  PRO208      0.0268
    111  CG       -29.5070   10.8580    8.8880 C.3   208  PRO208      0.0207
    112  CD       -28.7400    9.6880    9.4480 C.3   208  PRO208      0.0892
    113  N        -21.4460    8.1490    6.5940 N.3   213  LYS213     -0.1245
    114  CA       -21.8470    7.2490    5.5030 C.3   213  LYS213      0.1561
    115  C        -20.8220    6.1360    5.4260 C.2   213  LYS213      0.2260
    116  O        -19.6250    6.4090    5.3430 O.2   213  LYS213     -0.2867
    117  CB       -21.8720    7.9770    4.1670 C.3   213  LYS213      0.0271
    118  CG       -22.2820    7.1080    2.9950 C.3   213  LYS213      0.0035
    119  CD       -23.7610    6.7250    3.0510 C.3   213  LYS213      0.0206
    120  CE       -24.0900    5.5450    2.1420 C.3   213  LYS213      0.1093
    121  NZ       -23.6430    5.7730    0.7290 N.3   213  LYS213     -0.1314
    122  N        -20.2130    2.4180    3.2980 N.3   215  ASP215     -0.1239
    123  CA       -20.6050    1.4600    2.2920 C.3   215  ASP215      0.1674
    124  C        -19.7180    0.2400    2.4360 C.2   215  ASP215      0.2266
    125  O        -18.4920    0.3280    2.2880 O.2   215  ASP215     -0.2867
    126  CB       -20.4990    2.1260    0.9310 C.3   215  ASP215      0.1410
    127  CG       -21.4770    3.2720    0.8050 C.2   215  ASP215      0.3668
    128  OD1      -22.6500    2.9790    0.6470 O.co2 215  ASP215     -0.2456
    129  OD2      -21.0990    4.4570    0.9300 O.co2 215  ASP215     -0.2456
@<TRIPOS>BOND
     1    71    69   ar
     2    70    69   ar
     3    69    68    1
     4    68    67    1
     5    62    60    1
     6    67    64    1
     7    64    63    1
     8    64    65    1
     9    57    56    1
    10    57    60    1
    11    57    58    1
    12    60    61    1
    13    27    26    1
    14    53    54    1
    15    53    50    1
    16    54    55    1
    17    26    23    1
    18    59    58    2
    19    65    72   am
    20    65    66    2
    21    72    73    1
    22    77    76    1
    23    25    24    2
    24    23    24    1
    25    23    22    1
    26    55    49    1
    27    76    73    1
    28    76    78    1
    29    24    28   am
    30    52    51    2
    31    50    51    1
    32    50    49    1
    33    73    74    1
    34    75    74    2
    35    15    13   am
    36    49    44   am
    37    74    79   am
    38    34    33    1
    39    11    10    2
    40    41    40    1
    41    28    29    1
    42    12    13    1
    43    12     9    1
    44    13    14    2
    45    40    37    1
    46    29    32    1
    47    29    30    1
    48    19    18    2
    49    44    43    1
    50    44    45    2
    51    20    21    1
    52    20    17    1
    53    10     9    1
    54    10    16   am
    55    32    33    1
    56    46    43    1
    57    46    48    1
    58    46    47    1
    59    79    80    1
    60    33    35    1
    61     9     8    1
    62    18    17    1
    63    43    42    1
    64    85    83    1
    65    36    37    1
    66    30    31    2
    67    37    38    1
    68    17    16    1
    69    80    83    1
    70    80    81    1
    71    39    38    2
    72    83    84    1
    73    91    90    1
    74    81    86   am
    75    81    82    2
    76    86    87    1
    77    90    87    1
    78    90    92    1
    79    87    88    1
    80    99    98    2
    81   100    98   am
    82    89    88    2
    83    98    97    1
    84   128   127   ar
    85   121   120    1
    86   127   129   ar
    87   127   126    1
    88   126   123    1
    89    97    94    1
    90   120   119    1
    91   125   124    2
    92   123   124    1
    93   123   122    1
    94    93    94    1
    95    94    95    1
    96   118   119    1
    97   118   117    1
    98    95    96    2
    99   117   114    1
   100   116   115    2
   101   115   114    1
   102   114   113    1
   103     6     5    1
   104   105   102    1
   105     5     7    1
   106     5     2    1
   107   101   102    1
   108     3     4    2
   109     3     2    1
   110   102   103    1
   111     2     1    1
   112   103   104    2
   113   111   112    1
   114   111   110    1
   115   112   106    1
   116   110   107    1
   117   107   106    1
   118   107   108    1
   119   109   108    2
