@<TRIPOS>MOLECULE
tmp/4tprB03.pdb
 78 74 0 0 0
SMALL
GASTEIGER

@<TRIPOS>ATOM
      1  N        -47.5430    4.7080   24.9520 N.3    39  GLN39      -0.1245
      2  CA       -47.3530    3.4350   24.2790 C.3    39  GLN39       0.1566
      3  C        -45.8670    3.0550   24.2230 C.2    39  GLN39       0.2260
      4  O        -45.0770    3.6520   23.4980 O.2    39  GLN39      -0.2867
      5  CB       -47.9490    3.4900   22.8840 C.3    39  GLN39       0.0367
      6  CG       -47.9040    2.1340   22.1880 C.3    39  GLN39       0.0905
      7  CD       -48.8070    2.0950   20.9840 C.2    39  GLN39       0.2608
      8  OE1      -48.8410    3.0410   20.1920 O.2    39  GLN39      -0.2717
      9  NE2      -49.5590    1.0150   20.8520 N.am   39  GLN39      -0.0878
     10  N        -42.5480    0.5550   23.3650 N.3    41  PRO41      -0.2116
     11  CA       -42.2350   -0.2690   22.1830 C.3    41  PRO41       0.1372
     12  C        -42.8720   -1.6540   22.2400 C.2    41  PRO41       0.2244
     13  O        -42.7440   -2.3620   23.2390 O.2    41  PRO41      -0.2868
     14  CB       -40.7060   -0.3680   22.2150 C.3    41  PRO41       0.0268
     15  CG       -40.2840    0.9210   22.8490 C.3    41  PRO41       0.0207
     16  CD       -41.3370    1.2260   23.8940 C.3    41  PRO41       0.0892
     17  N        -39.4940    5.4930   28.2940 N.3    91  THR91      -0.1203
     18  CA       -39.2050    5.4190   26.8690 C.3    91  THR91       0.1994
     19  C        -40.4330    4.8590   26.1590 C.2    91  THR91       0.2618
     20  O        -40.8480    3.7100   26.4050 O.2    91  THR91      -0.2717
     21  CB       -37.9740    4.5530   26.5860 C.3    91  THR91       0.1784
     22  OG1      -36.8120    5.2150   27.1010 O.3    91  THR91      -0.2211
     23  CG2      -37.8000    4.3000   25.0850 C.3    91  THR91       0.0376
     24  N        -40.9950    5.6650   25.2620 N.am   92  ALA92      -0.1965
     25  CA       -42.3450    5.4230   24.7380 C.3    92  ALA92       0.1728
     26  C        -42.7250    6.4930   23.7140 C.2    92  ALA92       0.2616
     27  O        -42.0220    7.5060   23.5650 O.2    92  ALA92      -0.2715
     28  CB       -43.3630    5.4130   25.8750 C.3    92  ALA92       0.0334
     29  N        -43.8310    6.2450   23.0140 N.am   93  VAL93      -0.1977
     30  CA       -44.5190    7.2550   22.2600 C.3    93  VAL93       0.1596
     31  C        -45.6360    7.7900   23.1370 C.2    93  VAL93       0.2287
     32  O        -46.3530    7.0200   23.8010 O.2    93  VAL93      -0.2864
     33  CB       -45.1250    6.6960   20.9680 C.3    93  VAL93       0.0276
     34  CG1      -45.7500    7.8220   20.1650 C.3    93  VAL93       0.0022
     35  CG2      -44.0420    5.9760   20.1750 C.3    93  VAL93       0.0022
     36  N        -42.0500   10.7250   20.4060 N.3   116  THR116     -0.1203
     37  CA       -41.2100    9.7020   20.9820 C.3   116  THR116      0.1994
     38  C        -40.2780   10.2890   22.0540 C.2   116  THR116      0.2618
     39  O        -39.6730   11.3580   21.8630 O.2   116  THR116     -0.2717
     40  CB       -40.4030    9.0120   19.8860 C.3   116  THR116      0.1784
     41  OG1      -41.2480    8.0810   19.1920 O.3   116  THR116     -0.2211
     42  CG2      -39.2650    8.2850   20.4660 C.3   116  THR116      0.0376
     43  N        -40.1710    9.5920   23.1780 N.am  117  LEU117     -0.1965
     44  CA       -39.1860    9.9140   24.2080 C.3   117  LEU117      0.1728
     45  C        -38.2290    8.7510   24.3340 C.2   117  LEU117      0.2616
     46  O        -38.6680    7.6260   24.5300 O.2   117  LEU117     -0.2715
     47  CB       -39.8580   10.1300   25.5540 C.3   117  LEU117      0.0311
     48  CG       -38.9520   10.2960   26.7880 C.3   117  LEU117      0.0022
     49  CD1      -38.0510   11.5100   26.6340 C.3   117  LEU117      0.0001
     50  CD2      -39.8050   10.4120   28.0590 C.3   117  LEU117      0.0001
     51  N        -36.9260    9.0260   24.2230 N.am  118  THR118     -0.1951
     52  CA       -35.9060    8.0130   24.4420 C.3   118  THR118      0.1897
     53  C        -35.1260    8.4380   25.6660 C.2   118  THR118      0.2313
     54  O        -34.4910    9.5000   25.6570 O.2   118  THR118     -0.2863
     55  CB       -34.9410    7.8860   23.2270 C.3   118  THR118      0.1794
     56  OG1      -35.6810    7.5670   22.0490 O.3   118  THR118     -0.2208
     57  CG2      -33.8990    6.8010   23.4700 C.3   118  THR118      0.0378
     58  N        -31.3160    7.2670   16.9040 N.3   156  GLU156     -0.1245
     59  CA       -31.9950    6.9160   15.6670 C.3   156  GLU156      0.1567
     60  C        -32.2740    8.2110   14.9180 C.2   156  GLU156      0.2260
     61  O        -32.3900    9.2730   15.5350 O.2   156  GLU156     -0.2867
     62  CB       -33.3250    6.1930   15.9440 C.3   156  GLU156      0.0388
     63  CG       -33.1710    4.7020   16.0880 C.3   156  GLU156      0.1160
     64  CD       -33.2100    3.9950   14.7580 C.2   156  GLU156      0.3649
     65  OE1      -32.1580    3.7910   14.1430 O.co2 156  GLU156     -0.2457
     66  OE2      -34.3100    3.6610   14.3060 O.co2 156  GLU156     -0.2457
     67  N        -27.8640    1.7670   20.0160 N.3   183  TYR183     -0.1241
     68  CA       -28.7370    1.0020   19.1320 C.3   183  TYR183      0.1605
     69  C        -28.0140   -0.0740   18.3320 C.2   183  TYR183      0.2264
     70  O        -26.8500    0.0810   17.9660 O.2   183  TYR183     -0.2867
     71  CB       -29.4500    1.9240   18.1500 C.3   183  TYR183      0.0534
     72  CG       -30.5570    2.7480   18.7460 C.ar  183  TYR183     -0.0201
     73  CD1      -31.8140    2.1950   19.0020 C.ar  183  TYR183     -0.0009
     74  CD2      -30.3600    4.0900   19.0420 C.ar  183  TYR183     -0.0009
     75  CE1      -32.8370    2.9740   19.5560 C.ar  183  TYR183      0.0417
     76  CE2      -31.3780    4.8680   19.5970 C.ar  183  TYR183      0.0417
     77  CZ       -32.6090    4.3080   19.8270 C.ar  183  TYR183      0.1957
     78  OH       -33.5920    5.0780   20.3730 O.3   183  TYR183     -0.2866
@<TRIPOS>BOND
     1    65    64   ar
     2    66    64   ar
     3    64    63    1
     4    60    61    2
     5    60    59    1
     6    59    62    1
     7    59    58    1
     8    62    63    1
     9    70    69    2
    10    71    72    1
    11    71    68    1
    12    69    68    1
    13    72    73   ar
    14    72    74   ar
    15    73    75   ar
    16    74    76   ar
    17    68    67    1
    18    41    40    1
    19    75    77   ar
    20    76    77   ar
    21    77    78    1
    22    40    42    1
    23    40    37    1
    24    34    33    1
    25    35    33    1
    26     8     7    2
    27    36    37    1
    28     9     7   am
    29    33    30    1
    30    37    38    1
    31     7     6    1
    32    39    38    2
    33    56    55    1
    34    38    43   am
    35    11    14    1
    36    11    12    1
    37    11    10    1
    38     6     5    1
    39    14    15    1
    40    12    13    2
    41    30    29    1
    42    30    31    1
    43    15    16    1
    44     5     2    1
    45    29    26   am
    46    31    32    2
    47    43    44    1
    48    55    57    1
    49    55    52    1
    50    10    16    1
    51     4     3    2
    52    27    26    2
    53    26    25    1
    54    44    45    1
    55    44    47    1
    56    51    45   am
    57    51    52    1
    58     3     2    1
    59     2     1    1
    60    45    46    2
    61    52    53    1
    62    25    24    1
    63    25    28    1
    64    23    21    1
    65    24    19   am
    66    47    48    1
    67    54    53    2
    68    19    20    2
    69    19    18    1
    70    21    18    1
    71    21    22    1
    72    49    48    1
    73    48    50    1
    74    18    17    1
