@<TRIPOS>MOLECULE
tmp/4tprA01.pdb
 115 112 0 0 0
SMALL
GASTEIGER

@<TRIPOS>ATOM
      1  N        -54.9830   -8.1610   17.5910 N.3   108  LYS108     -0.1245
      2  CA       -54.3550   -8.0110   16.2780 C.3   108  LYS108      0.1561
      3  C        -55.1960   -8.6830   15.1950 C.2   108  LYS108      0.2260
      4  O        -55.3720   -9.8930   15.2250 O.2   108  LYS108     -0.2867
      5  CB       -52.9710   -8.6450   16.2990 C.3   108  LYS108      0.0271
      6  CG       -52.1490   -8.3890   15.0430 C.3   108  LYS108      0.0035
      7  CD       -50.8050   -9.0710   15.1350 C.3   108  LYS108      0.0206
      8  CE       -50.0260   -8.9880   13.8200 C.3   108  LYS108      0.1093
      9  NZ       -49.8100   -7.5920   13.3690 N.3   108  LYS108     -0.1314
     10  N        -41.8860  -16.2420    7.6990 N.3   144  PHE144     -0.1241
     11  CA       -42.6180  -17.3310    8.3320 C.3   144  PHE144      0.1605
     12  C        -44.0450  -16.9160    8.6870 C.2   144  PHE144      0.2264
     13  O        -44.3710  -15.7230    8.7690 O.2   144  PHE144     -0.2867
     14  CB       -41.8790  -17.8720    9.5840 C.3   144  PHE144      0.0534
     15  CG       -41.5990  -16.8430   10.6530 C.ar  144  PHE144     -0.0203
     16  CD1      -42.5300  -16.5670   11.6410 C.ar  144  PHE144     -0.0042
     17  CD2      -40.4070  -16.1640   10.6840 C.ar  144  PHE144     -0.0042
     18  CE1      -42.2830  -15.6390   12.6280 C.ar  144  PHE144     -0.0003
     19  CE2      -40.1320  -15.2460   11.6850 C.ar  144  PHE144     -0.0003
     20  CZ       -41.0780  -14.9650   12.6510 C.ar  144  PHE144     -0.0000
     21  N        -47.1470  -16.1640   13.1870 N.3   147  LYS147     -0.1245
     22  CA       -46.1360  -15.2930   13.7920 C.3   147  LYS147      0.1561
     23  C        -45.4770  -15.8940   15.0220 C.2   147  LYS147      0.2260
     24  O        -44.4120  -15.4460   15.4260 O.2   147  LYS147     -0.2867
     25  CB       -46.7430  -13.9340   14.1550 C.3   147  LYS147      0.0271
     26  CG       -47.7850  -14.0020   15.2360 C.3   147  LYS147      0.0035
     27  CD       -48.4560  -12.6320   15.3750 C.3   147  LYS147      0.0206
     28  CE       -49.5130  -12.6340   16.4450 C.3   147  LYS147      0.1093
     29  NZ       -50.6480  -13.4880   16.0290 N.3   147  LYS147     -0.1314
     30  N        -43.2680  -17.8640   17.2540 N.3   149  ILE149     -0.1231
     31  CA       -41.9370  -18.4770   17.0710 C.3   149  ILE149      0.1692
     32  C        -41.1650  -18.2990   18.3520 C.2   149  ILE149      0.2592
     33  O        -41.3970  -17.3530   19.0890 O.2   149  ILE149     -0.2718
     34  CB       -41.1830  -17.8760   15.8430 C.3   149  ILE149      0.0266
     35  CG1      -40.0130  -18.7510   15.4020 C.3   149  ILE149      0.0019
     36  CG2      -40.7620  -16.4270   16.0900 C.3   149  ILE149      0.0020
     37  CD1      -39.5370  -18.4580   13.9820 C.3   149  ILE149      0.0001
     38  N        -40.2320  -19.2040   18.6060 N.am  150  ASN150     -0.1960
     39  CA       -39.3420  -19.0770   19.7470 C.3   150  ASN150      0.1819
     40  C        -37.9190  -19.4120   19.3020 C.2   150  ASN150      0.2621
     41  O        -37.6860  -20.4550   18.6680 O.2   150  ASN150     -0.2715
     42  CB       -39.7990  -20.0040   20.8720 C.3   150  ASN150      0.1195
     43  CG       -41.0730  -19.5280   21.5350 C.2   150  ASN150      0.2630
     44  OD1      -41.1930  -18.3590   21.8970 O.2   150  ASN150     -0.2716
     45  ND2      -42.0300  -20.4340   21.7070 N.am  150  ASN150     -0.0877
     46  N        -36.9810  -18.5270   19.6270 N.am  151  VAL151     -0.1977
     47  CA       -35.5910  -18.6810   19.2260 C.3   151  VAL151      0.1596
     48  C        -34.7460  -18.9320   20.4400 C.2   151  VAL151      0.2287
     49  O        -34.9020  -18.2510   21.4450 O.2   151  VAL151     -0.2864
     50  CB       -35.0780  -17.4370   18.5070 C.3   151  VAL151      0.0276
     51  CG1      -33.6190  -17.6260   18.1200 C.3   151  VAL151      0.0022
     52  CG2      -35.9250  -17.1800   17.2810 C.3   151  VAL151      0.0022
     53  N        -33.2750   -9.3870   20.1580 N.3   166  ASN166     -0.1240
     54  CA       -34.2030   -9.7620   19.1070 C.3   166  ASN166      0.1653
     55  C        -34.9590   -8.5540   18.5260 C.2   166  ASN166      0.2266
     56  O        -35.3180   -7.6100   19.2450 O.2   166  ASN166     -0.2867
     57  CB       -35.2240  -10.7540   19.6350 C.3   166  ASN166      0.1155
     58  CG       -34.6120  -12.0710   20.0250 C.2   166  ASN166      0.2627
     59  OD1      -33.5920  -12.4770   19.4940 O.2   166  ASN166     -0.2716
     60  ND2      -35.2410  -12.7490   20.9690 N.am  166  ASN166     -0.0877
     61  N        -37.9550   -7.7760   15.0480 N.3   168  TRP168     -0.1227
     62  CA       -38.8540   -8.4300   14.1090 C.3   168  TRP168      0.1737
     63  C        -39.6740   -7.4220   13.3570 C.2   168  TRP168      0.2596
     64  O        -39.7610   -6.2310   13.7450 O.2   168  TRP168     -0.2718
     65  CB       -39.7630   -9.4060   14.8400 C.3   168  TRP168      0.0564
     66  CG       -40.4890   -8.8070   16.0050 C.ar  168  TRP168      0.0003
     67  CD1      -41.6460   -8.0990   15.9690 C.ar  168  TRP168      0.0946
     68  CD2      -40.1140   -8.9070   17.3850 C.ar  168  TRP168      0.0152
     69  NE1      -42.0130   -7.7200   17.2470 N.ar  168  TRP168     -0.2442
     70  CE2      -41.0890   -8.2110   18.1350 C.ar  168  TRP168      0.0810
     71  CE3      -39.0380   -9.5050   18.0580 C.ar  168  TRP168      0.0012
     72  CZ2      -41.0340   -8.1200   19.5300 C.ar  168  TRP168      0.0191
     73  CZ3      -38.9830   -9.4050   19.4540 C.ar  168  TRP168      0.0001
     74  CH2      -39.9740   -8.7170   20.1660 C.ar  168  TRP168      0.0015
     75  N        -40.2510   -7.8930   12.2540 N.am  169  THR169     -0.1939
     76  CA       -41.0730   -7.0700   11.4120 C.3   169  THR169      0.2028
     77  C        -42.5170   -7.5250   11.5380 C.2   169  THR169      0.2642
     78  O        -42.7660   -8.6960   11.8020 O.2   169  THR169     -0.2714
     79  CB       -40.6220   -7.1280    9.9450 C.3   169  THR169      0.1808
     80  OG1      -40.5930   -8.4850    9.4970 O.3   169  THR169     -0.2208
     81  CG2      -39.2360   -6.5020    9.7870 C.3   169  THR169      0.0379
     82  N        -43.4520   -6.5890   11.3460 N.am  170  ASP170     -0.1971
     83  CA       -44.8720   -6.8960   11.2750 C.3   170  ASP170      0.1709
     84  C        -45.2200   -7.5720    9.9430 C.2   170  ASP170      0.2293
     85  O        -44.3570   -7.7430    9.0420 O.2   170  ASP170     -0.2864
     86  CB       -45.6980   -5.6160   11.4840 C.3   170  ASP170      0.1436
     87  CG       -47.1360   -5.8800   12.0270 C.2   170  ASP170      0.3671
     88  OD1      -47.6130   -7.0430   12.1450 O.co2 170  ASP170     -0.2456
     89  OD2      -47.8000   -4.8790   12.3440 O.co2 170  ASP170     -0.2456
     90  N        -44.0930  -12.9230    8.4200 N.3   178  TYR178     -0.1227
     91  CA       -43.3030  -12.2410    9.4270 C.3   178  TYR178      0.1736
     92  C        -41.8140  -12.6010    9.2910 C.2   178  TYR178      0.2596
     93  O        -41.4660  -13.6280    8.7320 O.2   178  TYR178     -0.2718
     94  CB       -43.8110  -12.6430   10.8230 C.3   178  TYR178      0.0548
     95  CG       -45.2310  -12.2370   11.0640 C.ar  178  TYR178     -0.0200
     96  CD1      -45.5320  -10.9780   11.6010 C.ar  178  TYR178     -0.0009
     97  CD2      -46.2960  -13.0890   10.7410 C.ar  178  TYR178     -0.0009
     98  CE1      -46.8500  -10.5930   11.8310 C.ar  178  TYR178      0.0417
     99  CE2      -47.6130  -12.6980   10.9800 C.ar  178  TYR178      0.0417
    100  CZ       -47.8820  -11.4500   11.5040 C.ar  178  TYR178      0.1957
    101  OH       -49.1860  -11.0580   11.7650 O.3   178  TYR178     -0.2866
    102  N        -40.9420  -11.7490    9.8160 N.am  179  SER179     -0.1938
    103  CA       -39.5160  -12.0570    9.8780 C.3   179  SER179      0.2055
    104  C        -38.9490  -11.6090   11.2190 C.2   179  SER179      0.2642
    105  O        -39.5120  -10.7480   11.8930 O.2   179  SER179     -0.2714
    106  CB       -38.7650  -11.4050    8.7100 C.3   179  SER179      0.2130
    107  OG       -39.1480  -11.9330    7.4470 O.3   179  SER179     -0.2179
    108  N        -37.8080  -12.1770   11.5760 N.am  180  MET180     -0.1976
    109  CA       -37.1670  -11.9200   12.8590 C.3   180  MET180      0.1605
    110  C        -35.6510  -11.9880   12.7360 C.2   180  MET180      0.2287
    111  O        -35.1150  -12.7130   11.8970 O.2   180  MET180     -0.2864
    112  CB       -37.6430  -12.9590   13.8430 C.3   180  MET180      0.0413
    113  CG       -37.0850  -12.8540   15.2290 C.3   180  MET180      0.0598
    114  SD       -37.7480  -14.2030   16.2190 S.3   180  MET180     -0.1393
    115  CE       -37.0450  -13.7130   17.7870 C.3   180  MET180      0.0692
@<TRIPOS>BOND
     1   107   106    1
     2    10    11    1
     3    11    12    1
     4    11    14    1
     5    90    91    1
     6    12    13    2
     7   106   103    1
     8    93    92    2
     9    85    84    2
    10    92    91    1
    11    92   102   am
    12    91    94    1
    13    80    79    1
    14    14    15    1
    15    81    79    1
    16   102   103    1
    17   103   104    1
    18    84    83    1
    19    79    76    1
    20    15    17   ar
    21    15    16   ar
    22    17    19   ar
    23    97    99   ar
    24    97    95   ar
    25    94    95    1
    26    99   100   ar
    27    95    96   ar
    28   104   108   am
    29   104   105    2
    30    83    82    1
    31    83    86    1
    32    82    77   am
    33    76    77    1
    34    76    75    1
    35    86    87    1
    36   100   101    1
    37   100    98   ar
    38    77    78    2
    39   108   109    1
    40    96    98   ar
    41    16    18   ar
    42    19    20   ar
    43   111   110    2
    44    87    88   ar
    45    87    89   ar
    46    75    63   am
    47    18    20   ar
    48   110   109    1
    49   109   112    1
    50    21    22    1
    51    63    64    2
    52    63    62    1
    53     9     8    1
    54    22    25    1
    55    22    23    1
    56     8     7    1
    57   112   113    1
    58    37    35    1
    59    62    65    1
    60    62    61    1
    61    25    26    1
    62    65    66    1
    63    23    24    2
    64     6     7    1
    65     6     5    1
    66     3     4    2
    67     3     2    1
    68   113   114    1
    69    26    27    1
    70    27    28    1
    71    35    34    1
    72    34    36    1
    73    34    31    1
    74    67    66   ar
    75    67    69   ar
    76    66    68   ar
    77    29    28    1
    78   114   115    1
    79     2     5    1
    80     2     1    1
    81    31    30    1
    82    31    32    1
    83    69    70   ar
    84    52    50    1
    85    68    71   ar
    86    68    70   ar
    87    71    73   ar
    88    51    50    1
    89    70    72   ar
    90    32    38   am
    91    32    33    2
    92    50    47    1
    93    55    54    1
    94    55    56    2
    95    38    39    1
    96    41    40    2
    97    54    57    1
    98    54    53    1
    99    47    46    1
   100    47    48    1
   101    40    46   am
   102    40    39    1
   103    73    74   ar
   104    59    58    2
   105    72    74   ar
   106    57    58    1
   107    39    42    1
   108    58    60   am
   109    48    49    2
   110    42    43    1
   111    43    45   am
   112    43    44    2
