@<TRIPOS>MOLECULE
tmp/4tprA00.pdb
 76 69 0 0 0
SMALL
GASTEIGER

@<TRIPOS>ATOM
      1  N        -56.7010  -12.5100   21.3760 N.3     9  LEU9       -0.1231
      2  CA       -55.4930  -11.7160   21.2910 C.3     9  LEU9        0.1693
      3  C        -55.1350  -11.4810   19.8260 C.2     9  LEU9        0.2592
      4  O        -54.7000  -10.3850   19.4730 O.2     9  LEU9       -0.2718
      5  CB       -54.3260  -12.4060   22.0070 C.3     9  LEU9        0.0284
      6  CG       -54.3730  -12.3810   23.5280 C.3     9  LEU9        0.0019
      7  CD1      -53.3510  -13.3550   24.0990 C.3     9  LEU9        0.0001
      8  CD2      -54.1140  -10.9640   24.0160 C.3     9  LEU9        0.0001
      9  N        -55.3330  -12.5180   19.0020 N.am   10  SER10      -0.1952
     10  CA       -55.0470  -12.4220   17.5810 C.3    10  SER10       0.1924
     11  C        -56.1960  -13.0260   16.7880 C.2    10  SER10       0.2314
     12  O        -56.7690  -14.0560   17.1580 O.2    10  SER10      -0.2863
     13  CB       -53.7250  -13.1050   17.2420 C.3    10  SER10       0.2116
     14  OG       -53.7880  -14.4890   17.5280 O.3    10  SER10      -0.2180
     15  N        -55.6490    0.9260   15.5730 N.3    43  GLN43      -0.1245
     16  CA       -54.3240    1.5050   15.3680 C.3    43  GLN43       0.1566
     17  C        -53.5570    0.7330   14.3040 C.2    43  GLN43       0.2260
     18  O        -53.2850   -0.4550   14.4590 O.2    43  GLN43      -0.2867
     19  CB       -53.5360    1.5230   16.6640 C.3    43  GLN43       0.0367
     20  CG       -52.2610    2.3340   16.5270 C.3    43  GLN43       0.0905
     21  CD       -51.3980    2.3090   17.7800 C.2    43  GLN43       0.2608
     22  OE1      -51.3890    1.3310   18.5270 O.2    43  GLN43      -0.2717
     23  NE2      -50.6390    3.3690   17.9810 N.am   43  GLN43      -0.0878
     24  N        -54.3000   -3.2280   14.9300 N.3    90  VAL90      -0.1245
     25  CA       -54.6500   -3.6360   16.3060 C.3    90  VAL90       0.1561
     26  C        -55.8570   -2.8270   16.7800 C.2    90  VAL90       0.2260
     27  O        -55.8620   -1.5910   16.7010 O.2    90  VAL90      -0.2867
     28  CB       -53.4660   -3.4630   17.2910 C.3    90  VAL90       0.0252
     29  CG1      -53.8180   -3.9270   18.6850 C.3    90  VAL90       0.0019
     30  CG2      -52.2670   -4.2460   16.7740 C.3    90  VAL90       0.0019
     31  N        -58.4970   -1.8210   19.8580 N.3    92  TYR92      -0.1241
     32  CA       -58.5780   -1.6200   21.3070 C.3    92  TYR92       0.1605
     33  C        -59.9840   -1.1660   21.7030 C.2    92  TYR92       0.2264
     34  O        -60.5500   -0.2510   21.0750 O.2    92  TYR92      -0.2867
     35  CB       -57.6030   -0.5410   21.7450 C.3    92  TYR92       0.0534
     36  CG       -56.1430   -0.8780   21.5390 C.ar   92  TYR92      -0.0201
     37  CD1      -55.4150   -1.5560   22.5160 C.ar   92  TYR92      -0.0009
     38  CD2      -55.4740   -0.4720   20.3910 C.ar   92  TYR92      -0.0009
     39  CE1      -54.0820   -1.8670   22.3370 C.ar   92  TYR92       0.0417
     40  CE2      -54.1350   -0.7740   20.1980 C.ar   92  TYR92       0.0417
     41  CZ       -53.4420   -1.4630   21.1790 C.ar   92  TYR92       0.1957
     42  OH       -52.1070   -1.7550   20.9980 O.3    92  TYR92      -0.2866
     43  N        -56.2840   -4.7120   26.1900 N.3   105  GLY105     -0.1210
     44  CA       -54.9130   -5.0490   25.8110 C.3   105  GLY105      0.1956
     45  C        -54.6680   -5.1490   24.3200 C.2   105  GLY105      0.2612
     46  O        -53.5250   -5.2810   23.8760 O.2   105  GLY105     -0.2717
     47  N        -55.7410   -5.1110   23.5420 N.am  106  GLY106     -0.1956
     48  CA       -55.6700   -5.1030   22.0830 C.3   106  GLY106      0.1869
     49  C        -55.8950   -6.4710   21.4430 C.2   106  GLY106      0.2309
     50  O        -55.6550   -7.5300   22.0500 O.2   106  GLY106     -0.2863
     51  N        -54.9830   -8.1610   17.5910 N.3   108  LYS108     -0.1245
     52  CA       -54.3550   -8.0110   16.2780 C.3   108  LYS108      0.1561
     53  C        -55.1960   -8.6830   15.1950 C.2   108  LYS108      0.2260
     54  O        -55.3720   -9.8930   15.2250 O.2   108  LYS108     -0.2867
     55  CB       -52.9710   -8.6450   16.2990 C.3   108  LYS108      0.0271
     56  CG       -52.1490   -8.3890   15.0430 C.3   108  LYS108      0.0035
     57  CD       -50.8050   -9.0710   15.1350 C.3   108  LYS108      0.0206
     58  CE       -50.0260   -8.9880   13.8200 C.3   108  LYS108      0.1093
     59  NZ       -49.8100   -7.5920   13.3690 N.3   108  LYS108     -0.1314
     60  N        -47.1470  -16.1640   13.1870 N.3   147  LYS147     -0.1245
     61  CA       -46.1360  -15.2930   13.7920 C.3   147  LYS147      0.1561
     62  C        -45.4770  -15.8940   15.0220 C.2   147  LYS147      0.2260
     63  O        -44.4120  -15.4460   15.4260 O.2   147  LYS147     -0.2867
     64  CB       -46.7430  -13.9340   14.1550 C.3   147  LYS147      0.0271
     65  CG       -47.7850  -14.0020   15.2360 C.3   147  LYS147      0.0035
     66  CD       -48.4560  -12.6320   15.3750 C.3   147  LYS147      0.0206
     67  CE       -49.5130  -12.6340   16.4450 C.3   147  LYS147      0.1093
     68  NZ       -50.6480  -13.4880   16.0290 N.3   147  LYS147     -0.1314
     69  N        -43.4520   -6.5890   11.3460 N.3   170  ASP170     -0.1239
     70  CA       -44.8720   -6.8960   11.2750 C.3   170  ASP170      0.1674
     71  C        -45.2200   -7.5720    9.9430 C.2   170  ASP170      0.2266
     72  O        -44.3570   -7.7430    9.0420 O.2   170  ASP170     -0.2867
     73  CB       -45.6980   -5.6160   11.4840 C.3   170  ASP170      0.1410
     74  CG       -47.1360   -5.8800   12.0270 C.2   170  ASP170      0.3668
     75  OD1      -47.6130   -7.0430   12.1450 O.co2 170  ASP170     -0.2456
     76  OD2      -47.8000   -4.8790   12.3440 O.co2 170  ASP170     -0.2456
@<TRIPOS>BOND
     1    72    71    2
     2    71    70    1
     3    70    69    1
     4    70    73    1
     5    73    74    1
     6    74    75   ar
     7    74    76   ar
     8    60    61    1
     9    59    58    1
    10    61    64    1
    11    61    62    1
    12    58    57    1
    13    64    65    1
    14    17    18    2
    15    17    16    1
    16    24    25    1
    17    62    63    2
    18    56    57    1
    19    56    55    1
    20    53    54    2
    21    53    52    1
    22    65    66    1
    23    16    15    1
    24    16    19    1
    25    66    67    1
    26    68    67    1
    27    52    55    1
    28    52    51    1
    29    25    26    1
    30    25    28    1
    31    20    19    1
    32    20    21    1
    33    27    26    2
    34    30    28    1
    35    11    12    2
    36    11    10    1
    37    13    14    1
    38    13    10    1
    39    28    29    1
    40    10     9    1
    41    21    23   am
    42    21    22    2
    43     9     3   am
    44     4     3    2
    45     3     2    1
    46    31    32    1
    47    40    38   ar
    48    40    41   ar
    49    38    36   ar
    50    42    41    1
    51    34    33    2
    52    41    39   ar
    53     2     1    1
    54     2     5    1
    55    32    33    1
    56    32    35    1
    57    49    50    2
    58    49    48    1
    59    36    35    1
    60    36    37   ar
    61     5     6    1
    62    48    47    1
    63    39    37   ar
    64     6     8    1
    65     6     7    1
    66    47    45   am
    67    46    45    2
    68    45    44    1
    69    44    43    1
