@<TRIPOS>MOLECULE
tmp/4tpwA00.pdb
 191 185 0 0 0
SMALL
GASTEIGER

@<TRIPOS>ATOM
      1  N         -2.8680   -4.0200   -1.6540 N.3    16  PHE16      -0.1241
      2  CA        -3.8870   -4.3960   -2.6270 C.3    16  PHE16       0.1605
      3  C         -5.2760   -4.2160   -2.0360 C.2    16  PHE16       0.2264
      4  O         -5.5400   -4.6760   -0.9310 O.2    16  PHE16      -0.2867
      5  CB        -3.6840   -5.8430   -3.0750 C.3    16  PHE16       0.0534
      6  CG        -4.6920   -6.3180   -4.0840 C.ar   16  PHE16      -0.0203
      7  CD1       -4.4170   -6.2490   -5.4360 C.ar   16  PHE16      -0.0042
      8  CD2       -5.9090   -6.8400   -3.6770 C.ar   16  PHE16      -0.0042
      9  CE1       -5.3390   -6.6920   -6.3680 C.ar   16  PHE16      -0.0003
     10  CE2       -6.8330   -7.2820   -4.6020 C.ar   16  PHE16      -0.0003
     11  CZ        -6.5480   -7.2050   -5.9480 C.ar   16  PHE16      -0.0000
     12  N         -9.1990   -5.0740   -2.7560 N.3    18  ASN18      -0.1240
     13  CA       -10.1280   -5.8730   -3.5490 C.3    18  ASN18       0.1653
     14  C        -11.2010   -5.0350   -4.2340 C.2    18  ASN18       0.2266
     15  O        -11.8230   -4.1710   -3.6170 O.2    18  ASN18      -0.2867
     16  CB       -10.7950   -6.9290   -2.6700 C.3    18  ASN18       0.1155
     17  CG        -9.9460   -8.1710   -2.5130 C.2    18  ASN18       0.2627
     18  OD1      -10.2990   -9.2430   -3.0040 O.2    18  ASN18      -0.2716
     19  ND2       -8.8120   -8.0320   -1.8370 N.am   18  ASN18      -0.0877
     20  N        -13.6020   -6.3050   -7.6560 N.3    20  LYS20      -0.1245
     21  CA       -13.8530   -7.0860   -8.8630 C.3    20  LYS20       0.1561
     22  C        -14.3570   -6.2070  -10.0050 C.2    20  LYS20       0.2260
     23  O        -14.3230   -6.6120  -11.1670 O.2    20  LYS20      -0.2867
     24  CB       -14.8620   -8.2010   -8.5790 C.3    20  LYS20       0.0271
     25  CG       -14.3920   -9.2190   -7.5510 C.3    20  LYS20       0.0035
     26  CD       -15.3680  -10.3800   -7.4440 C.3    20  LYS20       0.0206
     27  CE       -14.9430  -11.3770   -6.3770 C.3    20  LYS20       0.1093
     28  NZ       -15.8800  -12.5320   -6.2920 N.3    20  LYS20      -0.1314
     29  N         -7.8340   -6.7330  -12.0450 N.3    24  TRP24      -0.1227
     30  CA        -7.0650   -7.0650  -10.8430 C.3    24  TRP24       0.1737
     31  C         -5.8090   -6.2140  -10.6590 C.2    24  TRP24       0.2595
     32  O         -5.5530   -5.7060   -9.5640 O.2    24  TRP24      -0.2718
     33  CB        -6.6720   -8.5460  -10.8740 C.3    24  TRP24       0.0564
     34  CG        -6.0490   -9.0380   -9.5980 C.ar   24  TRP24       0.0003
     35  CD1       -6.7010   -9.5360   -8.5070 C.ar   24  TRP24       0.0946
     36  CD2       -4.6520   -9.0880   -9.2860 C.ar   24  TRP24       0.0152
     37  NE1       -5.7960   -9.8890   -7.5340 N.ar   24  TRP24      -0.2442
     38  CE2       -4.5320   -9.6230   -7.9880 C.ar   24  TRP24       0.0810
     39  CE3       -3.4920   -8.7300   -9.9780 C.ar   24  TRP24       0.0012
     40  CZ2       -3.2980   -9.8110   -7.3700 C.ar   24  TRP24       0.0191
     41  CZ3       -2.2700   -8.9160   -9.3630 C.ar   24  TRP24       0.0001
     42  CH2       -2.1810   -9.4470   -8.0710 C.ar   24  TRP24       0.0015
     43  N         -5.0380   -6.0560  -11.7310 N.am   25  GLN25      -0.1979
     44  CA        -3.7700   -5.3330  -11.6860 C.3    25  GLN25       0.1601
     45  C         -3.9510   -3.8850  -11.2420 C.2    25  GLN25       0.2287
     46  O         -3.0500   -3.2820  -10.6580 O.2    25  GLN25      -0.2864
     47  CB        -3.0890   -5.3550  -13.0600 C.3    25  GLN25       0.0394
     48  CG        -2.6840   -6.7370  -13.5590 C.3    25  GLN25       0.0908
     49  CD        -3.8120   -7.4650  -14.2660 C.2    25  GLN25       0.2608
     50  OE1       -4.9420   -7.5050  -13.7820 O.2    25  GLN25      -0.2717
     51  NE2       -3.5090   -8.0410  -15.4240 N.am   25  GLN25      -0.0878
     52  N         -5.0450   -6.5200    1.0430 N.3    58  ASP58      -0.1239
     53  CA        -3.9140   -7.4340    1.1640 C.3    58  ASP58       0.1674
     54  C         -2.5690   -6.7150    1.1890 C.2    58  ASP58       0.2266
     55  O         -2.4170   -5.6320    0.6240 O.2    58  ASP58      -0.2867
     56  CB        -3.9340   -8.4380    0.0120 C.3    58  ASP58       0.1410
     57  CG        -5.2670   -9.1330   -0.1210 C.2    58  ASP58       0.3668
     58  OD1       -6.1220   -8.9430    0.7690 O.co2  58  ASP58      -0.2456
     59  OD2       -5.4580   -9.8740   -1.1060 O.co2  58  ASP58      -0.2456
     60  N          4.0860   -8.5400   -7.3120 N.3    68  PRO68      -0.2102
     61  CA         3.3800   -9.6150   -6.6120 C.3    68  PRO68       0.1504
     62  C          2.1750  -10.1240   -7.3940 C.2    68  PRO68       0.2576
     63  O          1.0470  -10.1150   -6.8990 O.2    68  PRO68      -0.2718
     64  CB         2.9600   -8.9450   -5.3010 C.3    68  PRO68       0.0282
     65  CG         2.7420   -7.5300   -5.6790 C.3    68  PRO68       0.0208
     66  CD         3.7820   -7.2210   -6.7240 C.3    68  PRO68       0.0893
     67  N          2.4300  -10.5710   -8.6190 N.am   69  MET69      -0.1966
     68  CA         1.3770  -11.0670   -9.4950 C.3    69  MET69       0.1736
     69  C          1.9050  -12.2260  -10.3420 C.2    69  MET69       0.2616
     70  O          3.1000  -12.2940  -10.6300 O.2    69  MET69      -0.2715
     71  CB         0.8460   -9.9360  -10.3840 C.3    69  MET69       0.0427
     72  CG         1.8960   -9.2830  -11.2670 C.3    69  MET69       0.0599
     73  SD         1.2680   -7.8440  -12.1690 S.3    69  MET69      -0.1393
     74  CE         1.0350   -6.6670  -10.8450 C.3    69  MET69       0.0692
     75  N          1.0100  -13.1380  -10.7190 N.am   70  TRP70      -0.1960
     76  CA         1.3610  -14.2980  -11.5460 C.3    70  TRP70       0.1771
     77  C          2.1230  -13.9070  -12.8100 C.2    70  TRP70       0.2619
     78  O          2.9900  -14.6460  -13.2770 O.2    70  TRP70      -0.2715
     79  CB         0.1050  -15.0560  -11.9820 C.3    70  TRP70       0.0590
     80  CG        -0.7810  -15.5320  -10.8880 C.ar   70  TRP70       0.0006
     81  CD1       -0.4120  -15.9350   -9.6340 C.ar   70  TRP70       0.0946
     82  CD2       -2.2030  -15.6600  -10.9480 C.ar   70  TRP70       0.0152
     83  NE1       -1.5220  -16.3080   -8.9150 N.ar   70  TRP70      -0.2442
     84  CE2       -2.6340  -16.1490   -9.7000 C.ar   70  TRP70       0.0810
     85  CE3       -3.1560  -15.4080  -11.9400 C.ar   70  TRP70       0.0012
     86  CZ2       -3.9780  -16.3880   -9.4170 C.ar   70  TRP70       0.0191
     87  CZ3       -4.4870  -15.6460  -11.6580 C.ar   70  TRP70       0.0001
     88  CH2       -4.8860  -16.1320  -10.4060 C.ar   70  TRP70       0.0015
     89  N          1.7580  -12.7540  -13.3690 N.am   71  GLU71      -0.1977
     90  CA         2.2960  -12.2790  -14.6410 C.3    71  GLU71       0.1602
     91  C          3.8030  -12.1160  -14.6610 C.2    71  GLU71       0.2287
     92  O          4.4300  -12.2440  -15.7150 O.2    71  GLU71      -0.2864
     93  CB         1.6670  -10.9340  -15.0040 C.3    71  GLU71       0.0415
     94  CG         0.1960  -11.0200  -15.2400 C.3    71  GLU71       0.1163
     95  CD        -0.6260  -10.6930  -14.0210 C.2    71  GLU71       0.3649
     96  OE1       -0.5460  -11.4540  -13.0370 O.co2  71  GLU71      -0.2457
     97  OE2       -1.3570   -9.6820  -14.0550 O.co2  71  GLU71      -0.2457
     98  N          2.7690  -21.3020   -4.9760 N.3    80  ARG80      -0.1245
     99  CA         2.7450  -20.8330   -3.5970 C.3    80  ARG80       0.1563
    100  C          2.3970  -21.9250   -2.5970 C.2    80  ARG80       0.2260
    101  O          1.5820  -22.8050   -2.8820 O.2    80  ARG80      -0.2867
    102  CB         1.7400  -19.6860   -3.4610 C.3    80  ARG80       0.0307
    103  CG         0.3150  -20.1160   -3.7280 C.3    80  ARG80       0.0489
    104  CD        -0.6920  -18.9970   -3.5440 C.3    80  ARG80       0.2205
    105  NE        -2.0190  -19.4650   -3.9310 N.pl3  80  ARG80      -0.0865
    106  CZ        -3.1570  -18.8460   -3.6430 C.cat  80  ARG80       0.5346
    107  NH1       -3.1520  -17.7130   -2.9530 N.pl3  80  ARG80       0.1354
    108  NH2       -4.3070  -19.3670   -4.0480 N.pl3  80  ARG80       0.1354
    109  N         -3.7800  -12.3330    2.5710 N.3   123  ASN123     -0.1240
    110  CA        -5.1220  -11.9360    2.1640 C.3   123  ASN123      0.1653
    111  C         -6.0230  -11.8580    3.3850 C.2   123  ASN123      0.2266
    112  O         -6.1750  -12.8420    4.1140 O.2   123  ASN123     -0.2867
    113  CB        -5.7250  -12.9260    1.1550 C.3   123  ASN123      0.1155
    114  CG        -4.7810  -13.2690    0.0140 C.2   123  ASN123      0.2627
    115  OD1       -4.3440  -14.4110   -0.1180 O.2   123  ASN123     -0.2716
    116  ND2       -4.4840  -12.2910   -0.8280 N.am  123  ASN123     -0.0877
    117  N         -9.6610  -11.7890    4.4940 N.3   125  ARG125     -0.1245
    118  CA       -10.9630  -12.1640    3.9470 C.3   125  ARG125      0.1563
    119  C        -11.9150  -12.5770    5.0640 C.2   125  ARG125      0.2260
    120  O        -11.5260  -13.2960    5.9840 O.2   125  ARG125     -0.2867
    121  CB       -10.8230  -13.3200    2.9500 C.3   125  ARG125      0.0307
    122  CG        -9.8790  -13.0660    1.7860 C.3   125  ARG125      0.0489
    123  CD       -10.5100  -12.1960    0.7160 C.3   125  ARG125      0.2205
    124  NE        -9.6280  -12.0570   -0.4390 N.pl3 125  ARG125     -0.0865
    125  CZ        -8.6550  -11.1560   -0.5400 C.cat 125  ARG125      0.5346
    126  NH1       -8.4260  -10.2960    0.4470 N.pl3 125  ARG125      0.1354
    127  NH2       -7.9040  -11.1160   -1.6320 N.pl3 125  ARG125      0.1354
    128  N        -14.1630  -14.6050    4.6340 N.3   127  LYS127     -0.1245
    129  CA       -14.2650  -16.0380    4.3840 C.3   127  LYS127      0.1561
    130  C        -13.2200  -16.8140    5.1820 C.2   127  LYS127      0.2260
    131  O        -13.4160  -17.9820    5.5170 O.2   127  LYS127     -0.2867
    132  CB       -14.0960  -16.3090    2.8880 C.3   127  LYS127      0.0271
    133  CG       -14.5200  -17.6960    2.4290 C.3   127  LYS127      0.0035
    134  CD       -14.4330  -17.8250    0.9080 C.3   127  LYS127      0.0206
    135  CE       -15.4740  -16.9640    0.1960 C.3   127  LYS127      0.1093
    136  NZ       -15.2920  -16.9590   -1.2820 N.3   127  LYS127     -0.1314
    137  N         -5.7490  -15.6820    4.5750 N.3   130  LYS130     -0.1245
    138  CA        -4.7760  -16.5580    3.9470 C.3   130  LYS130      0.1561
    139  C         -3.3910  -15.9310    3.9660 C.2   130  LYS130      0.2260
    140  O         -3.2450  -14.7160    3.8340 O.2   130  LYS130     -0.2867
    141  CB        -5.1890  -16.8680    2.5080 C.3   130  LYS130      0.0271
    142  CG        -6.4860  -17.6500    2.4090 C.3   130  LYS130      0.0035
    143  CD        -6.8660  -17.9320    0.9660 C.3   130  LYS130      0.0206
    144  CE        -7.3090  -16.6740    0.2500 C.3   130  LYS130      0.1093
    145  NZ        -7.8030  -16.9780   -1.1190 N.3   130  LYS130     -0.1314
    146  N          5.3180  -17.3460   -2.0070 N.3   134  TRP134     -0.1241
    147  CA         5.4270  -17.5610   -3.4420 C.3   134  TRP134      0.1605
    148  C          6.8520  -17.9390   -3.8160 C.2   134  TRP134      0.2264
    149  O          7.8010  -17.2860   -3.3760 O.2   134  TRP134     -0.2867
    150  CB         5.0240  -16.2960   -4.2010 C.3   134  TRP134      0.0550
    151  CG         3.5620  -15.9680   -4.1940 C.ar  134  TRP134      0.0003
    152  CD1        2.6570  -16.2350   -3.2140 C.ar  134  TRP134      0.0946
    153  CD2        2.8380  -15.3070   -5.2390 C.ar  134  TRP134      0.0152
    154  NE1        1.4110  -15.7780   -3.5800 N.ar  134  TRP134     -0.2442
    155  CE2        1.4980  -15.2020   -4.8190 C.ar  134  TRP134      0.0810
    156  CE3        3.1960  -14.7880   -6.4860 C.ar  134  TRP134      0.0012
    157  CZ2        0.5140  -14.6060   -5.6030 C.ar  134  TRP134      0.0191
    158  CZ3        2.2180  -14.1950   -7.2630 C.ar  134  TRP134      0.0001
    159  CH2        0.8940  -14.1060   -6.8160 C.ar  134  TRP134      0.0015
    160  N         -3.8360  -22.2090  -10.5760 N.3   171  THR171     -0.1218
    161  CA        -4.6950  -21.2530   -9.8890 C.3   171  THR171      0.1862
    162  C         -5.3730  -20.3070  -10.8720 C.2   171  THR171      0.2287
    163  O         -6.5520  -19.9890  -10.7250 O.2   171  THR171     -0.2866
    164  CB        -3.9060  -20.4190   -8.8690 C.3   171  THR171      0.1770
    165  OG1       -3.1260  -21.2870   -8.0370 O.3   171  THR171     -0.2211
    166  CG2       -4.8520  -19.5960   -8.0030 C.3   171  THR171      0.0375
    167  N         -8.4490  -21.8290  -12.2990 N.3   174  LYS174     -0.1231
    168  CA        -9.4860  -22.2710  -11.3670 C.3   174  LYS174      0.1693
    169  C         -9.6010  -21.2880  -10.1900 C.2   174  LYS174      0.2593
    170  O         -9.8920  -20.1100  -10.3990 O.2   174  LYS174     -0.2718
    171  CB        -9.2030  -23.7000  -10.8780 C.3   174  LYS174      0.0285
    172  CG        -9.5350  -24.8050  -11.8840 C.3   174  LYS174      0.0035
    173  CD       -11.0190  -24.8350  -12.2660 C.3   174  LYS174      0.0206
    174  CE       -11.9200  -25.1460  -11.0740 C.3   174  LYS174      0.1093
    175  NZ       -13.3650  -25.0700  -11.4260 N.3   174  LYS174     -0.1314
    176  N         -9.3770  -21.7600   -8.9640 N.am  175  SER175     -0.1938
    177  CA        -9.5140  -20.9190   -7.7790 C.3   175  SER175      0.2055
    178  C         -8.6690  -21.4860   -6.6440 C.2   175  SER175      0.2644
    179  O         -8.5340  -22.7030   -6.5180 O.2   175  SER175     -0.2714
    180  CB       -10.9790  -20.8180   -7.3490 C.3   175  SER175      0.2130
    181  OG       -11.4030  -22.0070   -6.7080 O.3   175  SER175     -0.2179
    182  N         -8.1050  -20.6070   -5.8220 N.am  176  GLY176     -0.1939
    183  CA        -7.1850  -21.0160   -4.7760 C.3   176  GLY176      0.2014
    184  C         -7.7320  -22.0540   -3.8150 C.2   176  GLY176      0.2639
    185  O         -6.9610  -22.7140   -3.1120 O.2   176  GLY176     -0.2714
    186  N         -9.0570  -22.1930   -3.7790 N.am  177  SER177     -0.1949
    187  CA        -9.6990  -23.1760   -2.9170 C.3   177  SER177      0.1924
    188  C         -9.8810  -24.5060   -3.6390 C.2   177  SER177      0.2314
    189  O         -9.5780  -25.5660   -3.0930 O.2   177  SER177     -0.2863
    190  CB       -11.0550  -22.6520   -2.4140 C.3   177  SER177      0.2116
    191  OG       -11.8800  -22.2510   -3.4950 O.3   177  SER177     -0.2180
@<TRIPOS>BOND
     1    92    91    2
     2    51    49   am
     3    94    93    1
     4    94    95    1
     5    93    90    1
     6    91    90    1
     7    90    89    1
     8    49    50    2
     9    49    48    1
    10    97    95   ar
    11    95    96   ar
    12    48    47    1
    13    89    77   am
    14    78    77    2
    15    47    44    1
    16    77    76    1
    17   167   168    1
    18   173   172    1
    19   173   174    1
    20    73    72    1
    21    73    74    1
    22    29    30    1
    23    79    76    1
    24    79    80    1
    25    85    87   ar
    26    85    82   ar
    27   172   171    1
    28    43    44    1
    29    43    31   am
    30    44    45    1
    31    87    88   ar
    32    76    75    1
    33   175   174    1
    34   168   171    1
    35   168   169    1
    36    72    71    1
    37    45    46    2
    38    23    22    2
    39    82    80   ar
    40    82    84   ar
    41    80    81   ar
    42    33    30    1
    43    33    34    1
    44   162   163    2
    45   162   161    1
    46    30    31    1
    47    75    69   am
    48    31    32    2
    49    70    69    2
    50   160   161    1
    51    88    86   ar
    52   170   169    2
    53    71    68    1
    54    69    68    1
    55   169   176   am
    56    22    21    1
    57    39    41   ar
    58    39    36   ar
    59   161   164    1
    60    84    86   ar
    61    84    83   ar
    62    81    83   ar
    63    34    36   ar
    64    34    35   ar
    65    68    67    1
    66    41    42   ar
    67    36    38   ar
    68   176   177    1
    69   164   165    1
    70   164   166    1
    71    21    24    1
    72    21    20    1
    73    67    62   am
    74    24    25    1
    75    35    37   ar
    76    42    40   ar
    77    38    37   ar
    78    38    40   ar
    79   177   180    1
    80   177   178    1
    81    25    26    1
    82    26    27    1
    83    62    63    2
    84    62    61    1
    85   180   181    1
    86    60    66    1
    87    60    61    1
    88   158   159   ar
    89   158   156   ar
    90   159   157   ar
    91    66    65    1
    92   178   179    2
    93   178   182   am
    94    61    64    1
    95   156   153   ar
    96    27    28    1
    97     9    11   ar
    98     9     7   ar
    99    11    10   ar
   100   182   183    1
   101    65    64    1
   102   157   155   ar
   103     7     6   ar
   104   153   155   ar
   105   153   151   ar
   106    98    99    1
   107   155   154   ar
   108   183   184    1
   109    10     8   ar
   110    14    15    2
   111    14    13    1
   112   150   151    1
   113   150   147    1
   114   151   152   ar
   115     6     8   ar
   116     6     5    1
   117   108   106    1
   118   105   106    2
   119   105   104    1
   120   148   147    1
   121   148   149    2
   122   184   186   am
   123   184   185    2
   124   186   187    1
   125   103   104    1
   126   103   102    1
   127   106   107    1
   128   188   189    2
   129   188   187    1
   130    99   102    1
   131    99   100    1
   132   154   152   ar
   133    13    12    1
   134    13    16    1
   135   191   190    1
   136   147   146    1
   137     5     2    1
   138    18    17    2
   139   187   190    1
   140   101   100    2
   141    16    17    1
   142     2     3    1
   143     2     1    1
   144    17    19   am
   145     3     4    2
   146   127   125    1
   147   136   135    1
   148   145   144    1
   149    59    57   ar
   150   116   114   am
   151   125   124    2
   152   125   126    1
   153   124   123    1
   154    57    56    1
   155    57    58   ar
   156   115   114    2
   157    56    53    1
   158   114   113    1
   159   135   134    1
   160   144   143    1
   161    55    54    2
   162   123   122    1
   163   134   133    1
   164   143   142    1
   165    52    53    1
   166   113   110    1
   167    53    54    1
   168   122   121    1
   169   110   109    1
   170   110   111    1
   171   142   141    1
   172   133   132    1
   173   141   138    1
   174   132   129    1
   175   121   118    1
   176   111   112    2
   177   140   139    2
   178   118   117    1
   179   118   119    1
   180   138   139    1
   181   138   137    1
   182   129   128    1
   183   129   130    1
   184   119   120    2
   185   130   131    2
