@<TRIPOS>MOLECULE
tmp/4tpwA01.pdb
 128 119 0 0 0
SMALL
GASTEIGER

@<TRIPOS>ATOM
      1  N          0.5140   -2.9090   -1.3690 N.3    15  PHE15      -0.1241
      2  CA        -0.8570   -2.9100   -0.8680 C.3    15  PHE15       0.1605
      3  C         -1.8050   -3.2970   -1.9910 C.2    15  PHE15       0.2264
      4  O         -1.5760   -2.9370   -3.1400 O.2    15  PHE15      -0.2867
      5  CB        -1.2340   -1.5320   -0.3210 C.3    15  PHE15       0.0534
      6  CG        -2.6360   -1.4450    0.2040 C.ar   15  PHE15      -0.0203
      7  CD1       -2.9430   -1.9000    1.4750 C.ar   15  PHE15      -0.0042
      8  CD2       -3.6460   -0.8930   -0.5680 C.ar   15  PHE15      -0.0042
      9  CE1       -4.2330   -1.8150    1.9630 C.ar   15  PHE15      -0.0003
     10  CE2       -4.9370   -0.8060   -0.0850 C.ar   15  PHE15      -0.0003
     11  CZ        -5.2300   -1.2670    1.1820 C.ar   15  PHE15      -0.0000
     12  N         -6.1460   -3.5300   -2.7760 N.3    17  LYS17      -0.1245
     13  CA        -7.5380   -3.3500   -2.3750 C.3    17  LYS17       0.1561
     14  C         -8.4760   -4.1060   -3.3060 C.2    17  LYS17       0.2260
     15  O         -8.5510   -3.8160   -4.4960 O.2    17  LYS17      -0.2867
     16  CB        -7.9130   -1.8700   -2.3600 C.3    17  LYS17       0.0271
     17  CG        -9.3990   -1.6290   -2.1370 C.3    17  LYS17       0.0035
     18  CD        -9.7030   -0.1610   -1.9520 C.3    17  LYS17       0.0206
     19  CE       -11.1820    0.0660   -1.7040 C.3    17  LYS17       0.1093
     20  NZ       -11.6380    1.3750   -2.2410 N.3    17  LYS17      -0.1314
     21  N        -11.4080   -5.3000   -5.5200 N.3    19  ASP19      -0.1239
     22  CA       -12.4670   -4.6540   -6.2840 C.3    19  ASP19       0.1674
     23  C        -12.6490   -5.3780   -7.6140 C.2    19  ASP19       0.2266
     24  O        -11.9370   -5.1070   -8.5800 O.2    19  ASP19      -0.2867
     25  CB       -12.1480   -3.1740   -6.5210 C.3    19  ASP19       0.1410
     26  CG       -13.3620   -2.3800   -6.9640 C.2    19  ASP19       0.3668
     27  OD1      -14.4250   -2.9940   -7.1960 O.co2  19  ASP19      -0.2456
     28  OD2      -13.2540   -1.1420   -7.0850 O.co2  19  ASP19      -0.2456
     29  N        -12.9850   -3.3290  -11.0300 N.3    22  LYS22      -0.1245
     30  CA       -11.7890   -3.0110  -11.7950 C.3    22  LYS22       0.1561
     31  C        -10.9580   -4.2650  -12.0270 C.2    22  LYS22       0.2260
     32  O        -10.9830   -5.1930  -11.2180 O.2    22  LYS22      -0.2867
     33  CB       -10.9540   -1.9540  -11.0690 C.3    22  LYS22       0.0271
     34  CG       -11.7140   -0.6760  -10.7620 C.3    22  LYS22       0.0035
     35  CD       -10.8240    0.3570  -10.0910 C.3    22  LYS22       0.0206
     36  CE       -11.5510    1.6810   -9.9170 C.3    22  LYS22       0.1093
     37  NZ       -10.7100    2.7000   -9.2300 N.3    22  LYS22      -0.1314
     38  N         -5.5850   -2.7070   -8.9370 N.3    27  ASN27      -0.1240
     39  CA        -5.8370   -2.5740   -7.5040 C.3    27  ASN27       0.1653
     40  C         -4.5740   -2.6590   -6.6500 C.2    27  ASN27       0.2266
     41  O         -4.6390   -2.5930   -5.4230 O.2    27  ASN27      -0.2867
     42  CB        -6.8300   -3.6460   -7.0700 C.3    27  ASN27       0.1155
     43  CG        -8.2000   -3.4570   -7.6940 C.2    27  ASN27       0.2627
     44  OD1       -8.6540   -2.3300   -7.8870 O.2    27  ASN27      -0.2716
     45  ND2       -8.8610   -4.5620   -8.0210 N.am   27  ASN27      -0.0877
     46  N         -0.8190   -1.3600   -5.3300 N.3    29  ARG29      -0.1245
     47  CA         0.0100   -0.1720   -5.1090 C.3    29  ARG29       0.1563
     48  C          1.3030   -0.4970   -4.3710 C.2    29  ARG29       0.2260
     49  O          1.2840   -1.1220   -3.3100 O.2    29  ARG29      -0.2867
     50  CB        -0.7480    0.8900   -4.3090 C.3    29  ARG29       0.0307
     51  CG        -2.0650    1.3410   -4.9010 C.3    29  ARG29       0.0489
     52  CD        -1.8810    2.2020   -6.1410 C.3    29  ARG29       0.2205
     53  NE        -3.1590    2.7200   -6.6170 N.pl3  29  ARG29      -0.0865
     54  CZ        -4.0300    2.0220   -7.3410 C.cat  29  ARG29       0.5346
     55  NH1       -3.7660    0.7640   -7.6750 N.pl3  29  ARG29       0.1354
     56  NH2       -5.1720    2.5770   -7.7230 N.pl3  29  ARG29       0.1354
     57  N          4.0220    0.3880   -1.8740 N.3    31  ILE31      -0.1245
     58  CA         4.1030    1.2600   -0.7020 C.3    31  ILE31       0.1561
     59  C          5.5050    1.8400   -0.5610 C.2    31  ILE31       0.2260
     60  O          5.7030    3.0500   -0.6860 O.2    31  ILE31      -0.2867
     61  CB         3.7300    0.5100    0.5930 C.3    31  ILE31       0.0252
     62  CG1        2.2610    0.0870    0.5570 C.3    31  ILE31       0.0019
     63  CG2        3.9800    1.3830    1.8230 C.3    31  ILE31       0.0019
     64  CD1        1.8620   -0.8270    1.6970 C.3    31  ILE31       0.0001
     65  N          8.9730    0.0910    9.2940 N.3    43  LEU43      -0.1245
     66  CA         7.7810   -0.0600    8.4740 C.3    43  LEU43       0.1561
     67  C          6.7700   -0.9860    9.1450 C.2    43  LEU43       0.2260
     68  O          5.5870   -0.6540    9.2400 O.2    43  LEU43      -0.2867
     69  CB         8.1560   -0.5880    7.0910 C.3    43  LEU43       0.0270
     70  CG         7.0090   -0.7430    6.0880 C.3    43  LEU43       0.0019
     71  CD1        6.2570    0.5630    5.8780 C.3    43  LEU43       0.0001
     72  CD2        7.5560   -1.2590    4.7730 C.3    43  LEU43       0.0001
     73  N          5.1620    0.6920   12.1380 N.3    46  HIS46      -0.1226
     74  CA         4.2960    1.7830   11.7090 C.3    46  HIS46       0.1752
     75  C          2.9290    1.2560   11.2820 C.2    46  HIS46       0.2595
     76  O          1.8910    1.8240   11.6250 O.2    46  HIS46      -0.2718
     77  CB         4.9510    2.5580   10.5630 C.3    46  HIS46       0.0759
     78  CG         4.0180    3.4860    9.8470 C.ar   46  HIS46       0.0818
     79  ND1        3.5320    4.6420   10.4190 N.ar   46  HIS46      -0.2268
     80  CD2        3.4850    3.4280    8.6040 C.ar   46  HIS46       0.1154
     81  CE1        2.7380    5.2560    9.5590 C.ar   46  HIS46       0.1986
     82  NE2        2.6920    4.5400    8.4500 N.ar   46  HIS46      -0.2212
     83  N          2.9320    0.1610   10.5350 N.am   47  ILE47      -0.1980
     84  CA         1.6850   -0.4290   10.0700 C.3    47  ILE47       0.1595
     85  C          0.9010   -1.0160   11.2430 C.2    47  ILE47       0.2287
     86  O         -0.3180   -0.8710   11.3110 O.2    47  ILE47      -0.2864
     87  CB         1.9530   -1.5030    9.0010 C.3    47  ILE47       0.0276
     88  CG1        2.4910   -0.8240    7.7370 C.3    47  ILE47       0.0022
     89  CG2        0.6810   -2.2850    8.6790 C.3    47  ILE47       0.0022
     90  CD1        3.0510   -1.7740    6.6980 C.3    47  ILE47       0.0001
     91  N         -0.3430    2.3930   13.3260 N.3    50  SER50      -0.1202
     92  CA        -1.1550    3.4620   12.7470 C.3    50  SER50       0.2020
     93  C         -2.2240    2.9770   11.7690 C.2    50  SER50       0.2619
     94  O         -2.9680    3.7900   11.2160 O.2    50  SER50      -0.2717
     95  CB        -0.2490    4.4690   12.0350 C.3    50  SER50       0.2103
     96  OG         0.3110    3.9080   10.8600 O.3    50  SER50      -0.2182
     97  N         -2.3040    1.6660   11.5540 N.am   51  SER51      -0.1937
     98  CA        -3.2500    1.1160   10.5860 C.3    51  SER51       0.2055
     99  C         -4.1040    0.0020   11.1800 C.2    51  SER51       0.2643
    100  O         -3.7680   -0.5730   12.2160 O.2    51  SER51      -0.2714
    101  CB        -2.5070    0.5940    9.3560 C.3    51  SER51       0.2130
    102  OG        -3.3580    0.5740    8.2210 O.3    51  SER51      -0.2179
    103  N         -5.2120   -0.2870   10.5020 N.am   52  ASN52      -0.1971
    104  CA        -6.1310   -1.3460   10.8990 C.3    52  ASN52       0.1688
    105  C         -6.3080   -2.3370    9.7580 C.2    52  ASN52       0.2292
    106  O         -6.3230   -1.9410    8.5920 O.2    52  ASN52      -0.2864
    107  CB        -7.4880   -0.7610   11.2940 C.3    52  ASN52       0.1181
    108  CG        -7.3670    0.3880   12.2680 C.2    52  ASN52       0.2629
    109  OD1       -7.3210    0.1900   13.4830 O.2    52  ASN52      -0.2716
    110  ND2       -7.3220    1.6020   11.7400 N.am   52  ASN52      -0.0877
    111  N         -8.2380   -6.0930    1.8550 N.3    57  CYS57      -0.1235
    112  CA        -7.0070   -5.3040    1.7960 C.3    57  CYS57       0.1677
    113  C         -5.7810   -6.1630    2.0940 C.2    57  CYS57       0.2270
    114  O         -5.5010   -6.4810    3.2510 O.2    57  CYS57      -0.2867
    115  CB        -7.0670   -4.1300    2.7740 C.3    57  CYS57       0.0956
    116  SG        -8.3050   -2.8830    2.3570 S.3    57  CYS57      -0.0801
    117  N         -1.6030   -7.3260    1.8670 N.3    59  TYR59      -0.1241
    118  CA        -0.2170   -6.8830    1.8210 C.3    59  TYR59       0.1605
    119  C          0.6480   -7.9590    1.1830 C.2    59  TYR59       0.2264
    120  O          0.4280   -9.1510    1.4070 O.2    59  TYR59      -0.2867
    121  CB         0.3150   -6.5640    3.2220 C.3    59  TYR59       0.0534
    122  CG        -0.1510   -5.2430    3.7920 C.ar   59  TYR59      -0.0201
    123  CD1        0.5360   -4.0710    3.5190 C.ar   59  TYR59      -0.0009
    124  CD2       -1.2680   -5.1700    4.6100 C.ar   59  TYR59      -0.0009
    125  CE1        0.1260   -2.8620    4.0410 C.ar   59  TYR59       0.0417
    126  CE2       -1.6900   -3.9620    5.1390 C.ar   59  TYR59       0.0417
    127  CZ        -0.9890   -2.8090    4.8480 C.ar   59  TYR59       0.1957
    128  OH        -1.3980   -1.6000    5.3720 O.3    59  TYR59      -0.2866
@<TRIPOS>BOND
     1    31    30    1
     2    31    32    2
     3    30    33    1
     4    30    29    1
     5    33    34    1
     6    34    35    1
     7    35    36    1
     8    36    37    1
     9    38    39    1
    10    24    23    2
    11    45    43   am
    12    44    43    2
    13    56    54    1
    14    43    42    1
    15    55    54    1
    16    23    22    1
    17    39    42    1
    18    39    40    1
    19    54    53    2
    20    27    26   ar
    21    28    26   ar
    22    26    25    1
    23    40    41    2
    24    53    52    1
    25    25    22    1
    26    22    21    1
    27    52    51    1
    28    46    47    1
    29    47    48    1
    30    47    50    1
    31    51    50    1
    32    15    14    2
    33    48    49    2
    34    14    13    1
    35     4     3    2
    36    12    13    1
    37    13    16    1
    38    16    17    1
    39    20    19    1
    40    17    18    1
    41     3     2    1
    42    18    19    1
    43    57    58    1
    44     1     2    1
    45     2     5    1
    46    58    59    1
    47    58    61    1
    48    60    59    2
    49     8    10   ar
    50     8     6   ar
    51     5     6    1
    52    10    11   ar
    53     6     7   ar
    54    62    61    1
    55    62    64    1
    56    61    63    1
    57    11     9   ar
    58   119   120    2
    59   119   118    1
    60     7     9   ar
    61   112   111    1
    62   112   113    1
    63   112   115    1
    64   118   117    1
    65   118   121    1
    66   113   114    2
    67   116   115    1
    68   121   122    1
    69   123   122   ar
    70   123   125   ar
    71   122   124   ar
    72   125   127   ar
    73   124   126   ar
    74    72    70    1
    75   127   126   ar
    76   127   128    1
    77    71    70    1
    78    70    69    1
    79    90    88    1
    80    69    66    1
    81    88    87    1
    82   102   101    1
    83    82    80   ar
    84    82    81   ar
    85    66    67    1
    86    66    65    1
    87   106   105    2
    88    80    78   ar
    89    89    87    1
    90    87    84    1
    91    67    68    2
    92   101    98    1
    93    81    79   ar
    94   105   104    1
    95    78    79   ar
    96    78    77    1
    97    84    83    1
    98    84    85    1
    99   103   104    1
   100   103    99   am
   101    83    75   am
   102    77    74    1
   103    98    99    1
   104    98    97    1
   105    96    95    1
   106   104   107    1
   107    99   100    2
   108    94    93    2
   109    85    86    2
   110    75    76    2
   111    75    74    1
   112   107   108    1
   113    97    93   am
   114    74    73    1
   115   110   108   am
   116    93    92    1
   117    95    92    1
   118   108   109    2
   119    92    91    1
