@<TRIPOS>MOLECULE
tmp/4tq2A00.pdb
 163 150 0 0 0
SMALL
GASTEIGER

@<TRIPOS>ATOM
      1  N         65.7740   32.6320   43.0130 N.3    15  PHE15      -0.1227
      2  CA        66.4740   33.8810   42.9060 C.3    15  PHE15       0.1736
      3  C         65.6160   34.8530   42.0980 C.2    15  PHE15       0.2595
      4  O         65.3700   35.9450   42.5250 O.2    15  PHE15      -0.2718
      5  CB        67.8650   33.6770   42.2820 C.3    15  PHE15       0.0547
      6  CG        68.6910   34.9110   42.2520 C.ar   15  PHE15      -0.0202
      7  CD1       68.5520   35.8460   41.2540 C.ar   15  PHE15      -0.0042
      8  CD2       69.6390   35.1440   43.2590 C.ar   15  PHE15      -0.0042
      9  CE1       69.3260   37.0200   41.2690 C.ar   15  PHE15      -0.0003
     10  CE2       70.4180   36.2710   43.2490 C.ar   15  PHE15      -0.0003
     11  CZ        70.2510   37.2270   42.2810 C.ar   15  PHE15      -0.0000
     12  N         65.1250   34.4370   40.9320 N.am   16  PHE16      -0.1976
     13  CA        64.2810   35.3040   40.1510 C.3    16  PHE16       0.1639
     14  C         62.9510   35.6270   40.8050 C.2    16  PHE16       0.2290
     15  O         62.4400   36.7350   40.7060 O.2    16  PHE16      -0.2864
     16  CB        64.0390   34.6550   38.7730 C.3    16  PHE16       0.0560
     17  CG        65.1140   34.9600   37.8050 C.ar   16  PHE16      -0.0200
     18  CD1       66.4230   34.7680   38.1380 C.ar   16  PHE16      -0.0042
     19  CD2       64.8220   35.4470   36.5420 C.ar   16  PHE16      -0.0042
     20  CE1       67.4430   35.0530   37.2570 C.ar   16  PHE16      -0.0003
     21  CE2       65.8330   35.7290   35.6620 C.ar   16  PHE16      -0.0003
     22  CZ        67.1470   35.5460   36.0200 C.ar   16  PHE16      -0.0000
     23  N         63.4050   38.3380   43.2020 N.3    19  SER19      -0.1217
     24  CA        63.6650   39.6200   42.5580 C.3    19  SER19       0.1889
     25  C         62.4250   40.3590   42.1550 C.2    19  SER19       0.2288
     26  O         62.4680   41.5650   41.9690 O.2    19  SER19      -0.2866
     27  CB        64.5350   39.4180   41.3140 C.3    19  SER19       0.2089
     28  OG        65.7630   38.8400   41.6780 O.3    19  SER19      -0.2183
     29  N         60.3680   44.9710   38.7670 N.3    45  ILE45      -0.1245
     30  CA        60.6160   43.6530   38.2490 C.3    45  ILE45       0.1561
     31  C         59.3270   42.8390   38.3730 C.2    45  ILE45       0.2260
     32  O         58.7860   42.7060   39.4730 O.2    45  ILE45      -0.2867
     33  CB        61.7980   42.9640   38.9950 C.3    45  ILE45       0.0252
     34  CG1       63.0750   43.8150   38.8390 C.3    45  ILE45       0.0019
     35  CG2       61.9880   41.5360   38.4860 C.3    45  ILE45       0.0019
     36  CD1       64.3390   43.2160   39.4630 C.3    45  ILE45       0.0001
     37  N         61.3760   37.0380   33.5950 N.3    73  ILE73      -0.1245
     38  CA        60.9090   38.2630   34.2080 C.3    73  ILE73       0.1561
     39  C         61.0430   39.4570   33.2600 C.2    73  ILE73       0.2260
     40  O         61.8260   39.4110   32.3190 O.2    73  ILE73      -0.2867
     41  CB        61.6740   38.5630   35.4910 C.3    73  ILE73       0.0252
     42  CG1       63.1870   38.6740   35.1930 C.3    73  ILE73       0.0019
     43  CG2       61.3450   37.4910   36.4930 C.3    73  ILE73       0.0019
     44  CD1       64.0510   39.1300   36.3970 C.3    73  ILE73       0.0001
     45  N         61.9430   43.5630   33.4760 N.3    75  MET75      -0.1245
     46  CA        62.5430   44.6460   34.2950 C.3    75  MET75       0.1570
     47  C         62.3420   45.9660   33.6020 C.2    75  MET75       0.2261
     48  O         62.7070   46.1090   32.4370 O.2    75  MET75      -0.2867
     49  CB        64.0210   44.4280   34.4940 C.3    75  MET75       0.0387
     50  CG        64.4130   43.2260   35.2930 C.3    75  MET75       0.0595
     51  SD        66.1990   43.0540   35.5230 S.3    75  MET75      -0.1393
     52  CE        66.6180   44.5400   36.4730 C.3    75  MET75       0.0692
     53  N         63.3530   45.4720   29.5750 N.3    93  THR93      -0.1218
     54  CA        63.8660   44.2810   28.9450 C.3    93  THR93       0.1862
     55  C         63.1270   43.1160   29.5300 C.2    93  THR93       0.2287
     56  O         62.6180   43.2320   30.6370 O.2    93  THR93      -0.2866
     57  CB        65.3780   44.0980   29.1370 C.3    93  THR93       0.1770
     58  OG1       65.8430   43.0560   28.2550 O.3    93  THR93      -0.2211
     59  CG2       65.7280   43.7200   30.5660 C.3    93  THR93       0.0375
     60  N         63.8360   39.0050   30.3330 N.3    95  LEU95      -0.1245
     61  CA        64.8880   38.0480   30.4630 C.3    95  LEU95       0.1561
     62  C         64.2750   36.6660   30.4530 C.2    95  LEU95       0.2260
     63  O         63.2070   36.4870   30.9980 O.2    95  LEU95      -0.2867
     64  CB        65.6740   38.2630   31.7810 C.3    95  LEU95       0.0270
     65  CG        66.1410   39.6980   32.0460 C.3    95  LEU95       0.0019
     66  CD1       66.8640   39.7710   33.3700 C.3    95  LEU95       0.0001
     67  CD2       67.0490   40.2050   30.9280 C.3    95  LEU95       0.0001
     68  N         70.8130   32.7500   29.4820 N.3   107  LEU107     -0.1245
     69  CA        69.8470   33.8180   29.6830 C.3   107  LEU107      0.1561
     70  C         69.6830   34.5640   28.3450 C.2   107  LEU107      0.2260
     71  O         70.6560   35.0750   27.7870 O.2   107  LEU107     -0.2867
     72  CB        70.3110   34.8010   30.7510 C.3   107  LEU107      0.0270
     73  CG        69.2720   35.8260   31.2250 C.3   107  LEU107      0.0019
     74  CD1       69.7130   36.4070   32.4940 C.3   107  LEU107      0.0001
     75  CD2       69.0610   36.9640   30.2390 C.3   107  LEU107      0.0001
     76  N         67.6830   37.7350   26.3040 N.3   109  ARG109     -0.1245
     77  CA        67.0420   38.9830   26.5820 C.3   109  ARG109      0.1563
     78  C         66.5760   39.6630   25.3180 C.2   109  ARG109      0.2260
     79  O         67.0650   39.3580   24.2260 O.2   109  ARG109     -0.2867
     80  CB        67.9980   39.9080   27.3030 C.3   109  ARG109      0.0307
     81  CG        69.0940   40.4050   26.3890 C.3   109  ARG109      0.0489
     82  CD        70.1910   41.1390   27.1480 C.3   109  ARG109      0.2205
     83  NE        71.4600   41.0990   26.4180 N.pl3 109  ARG109     -0.0865
     84  CZ        71.7830   41.9060   25.4120 C.cat 109  ARG109      0.5346
     85  NH1       72.9660   41.7720   24.8330 N.pl3 109  ARG109      0.1354
     86  NH2       70.9370   42.8370   24.9790 N.pl3 109  ARG109      0.1354
     87  N         74.2460   34.8760   42.0080 N.3   126  PHE126     -0.1241
     88  CA        73.9130   34.7080   40.5710 C.3   126  PHE126      0.1605
     89  C         74.9770   35.4140   39.7600 C.2   126  PHE126      0.2264
     90  O         75.1710   36.6170   39.8940 O.2   126  PHE126     -0.2867
     91  CB        72.5080   35.2910   40.2890 C.3   126  PHE126      0.0534
     92  CG        72.0580   35.1930   38.8360 C.ar  126  PHE126     -0.0203
     93  CD1       71.7300   33.9850   38.2990 C.ar  126  PHE126     -0.0042
     94  CD2       71.9560   36.3420   38.0520 C.ar  126  PHE126     -0.0042
     95  CE1       71.2870   33.9040   36.9550 C.ar  126  PHE126     -0.0003
     96  CE2       71.5210   36.2800   36.7370 C.ar  126  PHE126     -0.0003
     97  CZ        71.1810   35.0580   36.2000 C.ar  126  PHE126     -0.0000
     98  N         76.3980   36.3980   36.0420 N.3   128  LEU128     -0.1245
     99  CA        75.9290   36.4840   34.6690 C.3   128  LEU128      0.1561
    100  C         76.9920   37.0400   33.7760 C.2   128  LEU128      0.2260
    101  O         77.5940   38.0590   34.1120 O.2   128  LEU128     -0.2867
    102  CB        74.7110   37.3710   34.5980 C.3   128  LEU128      0.0270
    103  CG        74.0920   37.6000   33.2210 C.3   128  LEU128      0.0019
    104  CD1       73.6290   36.2610   32.5340 C.3   128  LEU128      0.0001
    105  CD2       72.9600   38.5280   33.5260 C.3   128  LEU128      0.0001
    106  N         77.1930   38.5860   30.0320 N.3   130  THR130     -0.1218
    107  CA        76.3580   39.1090   28.9600 C.3   130  THR130      0.1862
    108  C         77.2530   39.6610   27.8610 C.2   130  THR130      0.2287
    109  O         78.3740   40.0850   28.1340 O.2   130  THR130     -0.2866
    110  CB        75.4230   40.1790   29.5000 C.3   130  THR130      0.1770
    111  OG1       74.3040   39.5290   30.1000 O.3   130  THR130     -0.2211
    112  CG2       74.9040   41.0740   28.4130 C.3   130  THR130      0.0375
    113  N         77.7360   41.8750   23.9380 N.3   132  TYR132     -0.1241
    114  CA        77.3330   42.8260   22.9130 C.3   132  TYR132      0.1605
    115  C         78.4450   42.8560   21.8620 C.2   132  TYR132      0.2264
    116  O         79.4920   42.2250   22.0470 O.2   132  TYR132     -0.2867
    117  CB        77.1130   44.2180   23.5050 C.3   132  TYR132      0.0534
    118  CG        76.4130   44.2190   24.8380 C.ar  132  TYR132     -0.0201
    119  CD1       77.1400   44.0770   26.0230 C.ar  132  TYR132     -0.0009
    120  CD2       75.0310   44.3680   24.9260 C.ar  132  TYR132     -0.0009
    121  CE1       76.5070   44.0790   27.2640 C.ar  132  TYR132      0.0417
    122  CE2       74.3850   44.3770   26.1630 C.ar  132  TYR132      0.0417
    123  CZ        75.1300   44.2300   27.3230 C.ar  132  TYR132      0.1957
    124  OH        74.4950   44.2350   28.5390 O.3   132  TYR132     -0.2866
    125  N         78.3880   40.2910   35.7020 N.3   139  GLU139     -0.1245
    126  CA        77.6760   40.8050   36.8690 C.3   139  GLU139      0.1567
    127  C         77.5680   39.7330   37.9680 C.2   139  GLU139      0.2260
    128  O         77.3150   38.5780   37.6750 O.2   139  GLU139     -0.2867
    129  CB        76.2780   41.2280   36.4700 C.3   139  GLU139      0.0388
    130  CG        75.9740   42.6940   36.6950 C.3   139  GLU139      0.1160
    131  CD        74.6790   43.1150   36.0350 C.2   139  GLU139      0.3649
    132  OE1       74.1050   42.2840   35.2870 O.co2 139  GLU139     -0.2457
    133  OE2       74.2510   44.2710   36.2510 O.co2 139  GLU139     -0.2457
    134  N         75.3170   39.0740   41.3640 N.3   141  ILE141     -0.1245
    135  CA        74.1320   39.5770   41.9880 C.3   141  ILE141      0.1561
    136  C         73.8010   38.6380   43.1880 C.2   141  ILE141      0.2260
    137  O         73.7300   37.4450   43.0110 O.2   141  ILE141     -0.2867
    138  CB        72.9300   39.6020   41.0450 C.3   141  ILE141      0.0252
    139  CG1       73.2970   40.3570   39.7430 C.3   141  ILE141      0.0019
    140  CG2       71.8020   40.3260   41.7210 C.3   141  ILE141      0.0019
    141  CD1       72.2610   40.2970   38.6690 C.3   141  ILE141      0.0001
    142  N         69.4490   43.8090   47.5950 N.3   149  ARG149     -0.1245
    143  CA        70.2300   43.1580   46.5510 C.3   149  ARG149      0.1563
    144  C         71.4910   43.9360   46.2580 C.2   149  ARG149      0.2260
    145  O         71.4760   45.1500   46.2440 O.2   149  ARG149     -0.2867
    146  CB        69.4250   43.0480   45.2600 C.3   149  ARG149      0.0307
    147  CG        68.7210   41.7260   45.0900 C.3   149  ARG149      0.0489
    148  CD        67.7630   41.6770   43.8500 C.3   149  ARG149      0.2205
    149  NE        68.1780   42.4670   42.6910 N.pl3 149  ARG149     -0.0865
    150  CZ        68.1370   42.0430   41.4180 C.cat 149  ARG149      0.5346
    151  NH1       67.7550   40.8040   41.0940 N.pl3 149  ARG149      0.1354
    152  NH2       68.5150   42.8640   40.4490 N.pl3 149  ARG149      0.1354
    153  N         74.7700   44.2460   43.5820 N.3   151  ARG151     -0.1245
    154  CA        75.1910   43.8870   42.2260 C.3   151  ARG151      0.1563
    155  C         76.5580   44.5040   41.9510 C.2   151  ARG151      0.2260
    156  O         76.6600   45.7250   41.9720 O.2   151  ARG151     -0.2867
    157  CB        74.1380   44.3820   41.2260 C.3   151  ARG151      0.0307
    158  CG        74.4250   44.1130   39.7830 C.3   151  ARG151      0.0489
    159  CD        73.9010   45.2420   38.8920 C.3   151  ARG151      0.2205
    160  NE        72.7730   44.8330   38.0640 N.pl3 151  ARG151     -0.0865
    161  CZ        71.5510   44.6640   38.5420 C.cat 151  ARG151      0.5346
    162  NH1       71.3430   44.8560   39.8250 N.pl3 151  ARG151      0.1354
    163  NH2       70.5470   44.2990   37.7520 N.pl3 151  ARG151      0.1354
@<TRIPOS>BOND
     1   115   116    2
     2   115   114    1
     3   114   117    1
     4   114   113    1
     5   117   118    1
     6    79    78    2
     7    85    84    1
     8   118   120   ar
     9   118   119   ar
    10   120   122   ar
    11    86    84    1
    12    78    77    1
    13    84    83    2
    14   119   121   ar
    15   122   123   ar
    16    76    77    1
    17    81    82    1
    18    81    80    1
    19    83    82    1
    20    77    80    1
    21   121   123   ar
    22   123   124    1
    23    71    70    2
    24   108   109    2
    25   108   107    1
    26    58    57    1
    27    70    69    1
    28   112   110    1
    29    54    57    1
    30    54    55    1
    31    54    53    1
    32   107   110    1
    33   107   106    1
    34    57    59    1
    35    68    69    1
    36   110   111    1
    37    55    56    2
    38    69    72    1
    39    75    73    1
    40    60    61    1
    41    62    61    1
    42    62    63    2
    43    61    64    1
    44    72    73    1
    45    67    65    1
    46    73    74    1
    47    64    65    1
    48    65    66    1
    49    40    39    2
    50    48    47    2
    51   104   103    1
    52   103   105    1
    53   103   102    1
    54    39    38    1
    55    45    46    1
    56    37    38    1
    57    47    46    1
    58   100   101    2
    59   100    99    1
    60    38    41    1
    61    46    49    1
    62    49    50    1
    63   102    99    1
    64    99    98    1
    65    42    41    1
    66    42    44    1
    67   132   131   ar
    68    50    51    1
    69    41    43    1
    70    51    52    1
    71    21    22   ar
    72    21    19   ar
    73   125   126    1
    74    22    20   ar
    75   131   133   ar
    76   131   130    1
    77    97    96   ar
    78    97    95   ar
    79   129   130    1
    80   129   126    1
    81    19    17   ar
    82    96    94   ar
    83   126   127    1
    84    95    93   ar
    85    20    18   ar
    86   128   127    2
    87   163   161    1
    88    17    18   ar
    89    17    16    1
    90    94    92   ar
    91   160   161    2
    92   160   159    1
    93    30    31    1
    94    30    29    1
    95    30    33    1
    96    93    92   ar
    97    31    32    2
    98    35    33    1
    99   161   162    1
   100   141   139    1
   101    16    13    1
   102    92    91    1
   103    34    33    1
   104    34    36    1
   105   159   158    1
   106   139   138    1
   107    89    90    2
   108    89    88    1
   109   158   157    1
   110    13    14    1
   111    13    12    1
   112    91    88    1
   113   152   150    1
   114    88    87    1
   115    15    14    2
   116    12     3   am
   117   138   140    1
   118   138   135    1
   119   151   150    1
   120   157   154    1
   121     7     9   ar
   122     7     6   ar
   123     9    11   ar
   124    27    28    1
   125    27    24    1
   126   134   135    1
   127   150   149    2
   128   155   156    2
   129   155   154    1
   130    26    25    2
   131   135   136    1
   132     3     4    2
   133     3     2    1
   134    25    24    1
   135   154   153    1
   136     6     5    1
   137     6     8   ar
   138    11    10   ar
   139     5     2    1
   140    24    23    1
   141   149   148    1
   142     2     1    1
   143   137   136    2
   144    10     8   ar
   145   148   147    1
   146   147   146    1
   147   146   143    1
   148   145   144    2
   149   144   143    1
   150   143   142    1
