@<TRIPOS>MOLECULE
tmp/4tqcA01.pdb
 108 100 0 0 0
SMALL
GASTEIGER

@<TRIPOS>ATOM
      1  N         -0.2440   -2.8410   -1.2150 N.3    13  PHE13      -0.1241
      2  CA        -1.6510   -3.0300   -0.8750 C.3    13  PHE13       0.1605
      3  C         -2.4420   -3.4400   -2.1070 C.2    13  PHE13       0.2264
      4  O         -2.0970   -3.0740   -3.2300 O.2    13  PHE13      -0.2867
      5  CB        -2.2760   -1.7550   -0.3040 C.3    13  PHE13       0.0534
      6  CG        -1.8720   -1.4410    1.1080 C.ar   13  PHE13      -0.0203
      7  CD1       -0.8980   -2.1760    1.7630 C.ar   13  PHE13      -0.0042
      8  CD2       -2.4830   -0.3980    1.7850 C.ar   13  PHE13      -0.0042
      9  CE1       -0.5350   -1.8690    3.0620 C.ar   13  PHE13      -0.0003
     10  CE2       -2.1280   -0.0910    3.0830 C.ar   13  PHE13      -0.0003
     11  CZ        -1.1540   -0.8280    3.7220 C.ar   13  PHE13      -0.0000
     12  N         -6.6650   -3.4090   -3.0040 N.3    15  LYS15      -0.1245
     13  CA        -8.0410   -3.1420   -2.6010 C.3    15  LYS15       0.1561
     14  C         -8.9850   -3.8380   -3.5650 C.2    15  LYS15       0.2260
     15  O         -8.9890   -3.5340   -4.7550 O.2    15  LYS15      -0.2867
     16  CB        -8.3220   -1.6370   -2.5840 C.3    15  LYS15       0.0271
     17  CG        -9.7400   -1.2550   -2.1690 C.3    15  LYS15       0.0035
     18  CD       -10.0950    0.1420   -2.6570 C.3    15  LYS15       0.0206
     19  CE       -11.4360    0.6170   -2.1100 C.3    15  LYS15       0.1093
     20  NZ       -12.5720   -0.2470   -2.5390 N.3    15  LYS15      -0.1314
     21  N        -12.9220   -3.0420  -11.5890 N.3    20  LYS20      -0.1245
     22  CA       -11.6480   -2.7140  -12.2210 C.3    20  LYS20       0.1561
     23  C        -10.8420   -3.9710  -12.5210 C.2    20  LYS20       0.2260
     24  O        -10.9630   -4.9830  -11.8270 O.2    20  LYS20      -0.2867
     25  CB       -10.8270   -1.7800  -11.3290 C.3    20  LYS20       0.0271
     26  CG       -11.4850   -0.4380  -11.0540 C.3    20  LYS20       0.0035
     27  CD       -10.4610    0.5930  -10.6060 C.3    20  LYS20       0.0206
     28  CE       -11.1150    1.9200  -10.2580 C.3    20  LYS20       0.1093
     29  NZ       -11.9070    1.8410   -9.0000 N.3    20  LYS20      -0.1314
     30  N         -5.8630   -2.4140   -9.1020 N.3    25  ASN25      -0.1240
     31  CA        -6.1320   -2.3500   -7.6700 C.3    25  ASN25       0.1653
     32  C         -4.8800   -2.4520   -6.7980 C.2    25  ASN25       0.2266
     33  O         -4.9660   -2.3850   -5.5730 O.2    25  ASN25      -0.2867
     34  CB        -7.1000   -3.4620   -7.2840 C.3    25  ASN25       0.1155
     35  CG        -8.4540   -3.3130   -7.9440 C.2    25  ASN25       0.2627
     36  OD1       -8.9470   -2.2020   -8.1400 O.2    25  ASN25      -0.2716
     37  ND2       -9.0640   -4.4380   -8.2950 N.am   25  ASN25      -0.0877
     38  N         -1.2620   -1.2380   -5.2360 N.3    27  ARG27      -0.1245
     39  CA        -0.6240    0.0050   -4.8190 C.3    27  ARG27       0.1563
     40  C          0.6880   -0.2720   -4.0940 C.2    27  ARG27       0.2260
     41  O          0.7090   -0.9830   -3.0890 O.2    27  ARG27      -0.2867
     42  CB        -1.5550    0.8070   -3.9060 C.3    27  ARG27       0.0307
     43  CG        -2.8390    1.2950   -4.5610 C.3    27  ARG27       0.0489
     44  CD        -2.5810    2.3510   -5.6180 C.3    27  ARG27       0.2205
     45  NE        -3.8290    2.9270   -6.1080 N.pl3  27  ARG27      -0.0865
     46  CZ        -4.5990    2.3690   -7.0380 C.cat  27  ARG27       0.5346
     47  NH1       -4.2530    1.2150   -7.5890 N.pl3  27  ARG27       0.1354
     48  NH2       -5.7190    2.9660   -7.4190 N.pl3  27  ARG27       0.1354
     49  N          3.2440    0.7550   -1.5530 N.3    29  ILE29      -0.1245
     50  CA         3.1510    1.6280   -0.3850 C.3    29  ILE29       0.1561
     51  C          4.4950    2.2380   -0.0080 C.2    29  ILE29       0.2260
     52  O          4.6540    3.4540   -0.0410 O.2    29  ILE29      -0.2867
     53  CB         2.5890    0.8700    0.8280 C.3    29  ILE29       0.0252
     54  CG1        1.2870    0.1610    0.4470 C.3    29  ILE29       0.0019
     55  CG2        2.3590    1.8210    2.0000 C.3    29  ILE29       0.0019
     56  CD1        0.2430    1.0720   -0.1650 C.3    29  ILE29       0.0001
     57  N          7.5250    0.3060   10.1920 N.3    41  LEU41      -0.1245
     58  CA         6.4000    0.1070    9.2920 C.3    41  LEU41       0.1561
     59  C          5.3910   -0.8750    9.8780 C.2    41  LEU41       0.2260
     60  O          4.1940   -0.5930    9.9190 O.2    41  LEU41      -0.2867
     61  CB         6.8890   -0.4000    7.9330 C.3    41  LEU41       0.0270
     62  CG         5.8160   -0.5740    6.8580 C.3    41  LEU41       0.0019
     63  CD1        5.1070    0.7500    6.5810 C.3    41  LEU41       0.0001
     64  CD2        6.4340   -1.1330    5.5870 C.3    41  LEU41       0.0001
     65  N          3.5030    0.5370   12.8320 N.3    44  HIS44      -0.1226
     66  CA         2.6190    1.6200   12.4350 C.3    44  HIS44       0.1752
     67  C          1.3030    1.0740   11.8890 C.2    44  HIS44       0.2595
     68  O          0.2250    1.5520   12.2450 O.2    44  HIS44      -0.2718
     69  CB         3.3060    2.4990   11.3950 C.3    44  HIS44       0.0759
     70  CG         2.4110    3.5360   10.8000 C.ar   44  HIS44       0.0818
     71  ND1        2.2590    3.6890    9.4410 N.ar   44  HIS44      -0.2268
     72  CD2        1.6160    4.4670   11.3790 C.ar   44  HIS44       0.1154
     73  CE1        1.4140    4.6760    9.2050 C.ar   44  HIS44       0.1986
     74  NE2        1.0070    5.1630   10.3630 N.ar   44  HIS44      -0.2212
     75  N          1.4000    0.0710   11.0250 N.am   45  ILE45      -0.1980
     76  CA         0.2230   -0.5420   10.4260 C.3    45  ILE45       0.1595
     77  C         -0.5920   -1.3100   11.4620 C.2    45  ILE45       0.2287
     78  O         -1.8190   -1.3230   11.3990 O.2    45  ILE45      -0.2864
     79  CB         0.6240   -1.4770    9.2690 C.3    45  ILE45       0.0276
     80  CG1        1.0920   -0.6390    8.0780 C.3    45  ILE45       0.0022
     81  CG2       -0.5450   -2.3630    8.8400 C.3    45  ILE45       0.0022
     82  CD1        1.8390   -1.4210    7.0210 C.3    45  ILE45       0.0001
     83  N         -2.4340    1.1530   13.0230 N.3    48  SER48      -0.1217
     84  CA        -3.1840    1.9260   12.0470 C.3    48  SER48       0.1889
     85  C         -3.8110    0.9640   11.0360 C.2    48  SER48       0.2288
     86  O         -4.9960    1.0530   10.7230 O.2    48  SER48      -0.2866
     87  CB        -2.2570    2.9620   11.3780 C.3    48  SER48       0.2089
     88  OG        -1.5710    3.6990   12.3770 O.3    48  SER48      -0.2183
     89  N        -10.7230   -3.6580    5.7220 N.3    49  MET49      -0.1245
     90  CA        -9.6570   -4.6220    5.4790 C.3    49  MET49       0.1570
     91  C        -10.0830   -5.8490    4.6540 C.2    49  MET49       0.2261
     92  O         -9.2410   -6.4520    3.9880 O.2    49  MET49      -0.2867
     93  CB        -9.0720   -5.0950    6.8130 C.3    49  MET49       0.0387
     94  CG        -7.7790   -5.8930    6.6800 C.3    49  MET49       0.0595
     95  SD        -6.4560   -4.9800    5.8590 S.3    49  MET49      -0.1393
     96  CE        -6.1990   -3.6360    7.0160 C.3    49  MET49       0.0692
     97  N         -2.2140   -7.6290    1.6620 N.3    54  TYR54      -0.1241
     98  CA        -0.8840   -7.0850    1.9100 C.3    54  TYR54       0.1605
     99  C          0.1100   -7.9860    1.2100 C.2    54  TYR54       0.2264
    100  O         -0.0230   -9.2090    1.2680 O.2    54  TYR54      -0.2867
    101  CB        -0.5290   -7.0490    3.4000 C.3    54  TYR54       0.0534
    102  CG        -1.2220   -6.0230    4.2630 C.ar   54  TYR54      -0.0201
    103  CD1       -1.7900   -4.8810    3.7240 C.ar   54  TYR54      -0.0009
    104  CD2       -1.2790   -6.1980    5.6390 C.ar   54  TYR54      -0.0009
    105  CE1       -2.4120   -3.9480    4.5360 C.ar   54  TYR54       0.0417
    106  CE2       -1.8940   -5.2760    6.4530 C.ar   54  TYR54       0.0417
    107  CZ        -2.4580   -4.1520    5.8990 C.ar   54  TYR54       0.1957
    108  OH        -3.0700   -3.2330    6.7180 O.3    54  TYR54      -0.2866
@<TRIPOS>BOND
     1    23    22    1
     2    23    24    2
     3    22    21    1
     4    22    25    1
     5    25    26    1
     6    26    27    1
     7    27    28    1
     8    28    29    1
     9    30    31    1
    10    37    35   am
    11    36    35    2
    12    35    34    1
    13    31    34    1
    14    31    32    1
    15    47    46    1
    16    48    46    1
    17    46    45    2
    18    32    33    2
    19    45    44    1
    20    44    43    1
    21    38    39    1
    22    39    40    1
    23    39    42    1
    24    15    14    2
    25    43    42    1
    26    40    41    2
    27    14    13    1
    28     4     3    2
    29    12    13    1
    30    18    17    1
    31    18    19    1
    32    13    16    1
    33    16    17    1
    34    20    19    1
    35     3     2    1
    36    49    50    1
    37     1     2    1
    38     2     5    1
    39    50    51    1
    40    50    53    1
    41     5     6    1
    42    56    54    1
    43    52    51    2
    44    54    53    1
    45    53    55    1
    46     6     7   ar
    47     6     8   ar
    48    99   100    2
    49    99    98    1
    50    97    98    1
    51     7     9   ar
    52     8    10   ar
    53    98   101    1
    54     9    11   ar
    55    10    11   ar
    56   101   102    1
    57   103   102   ar
    58   103   105   ar
    59    92    91    2
    60   102   104   ar
    61   105   107   ar
    62    91    90    1
    63    90    89    1
    64    90    93    1
    65    64    62    1
    66   104   106   ar
    67    95    94    1
    68    95    96    1
    69   107   106   ar
    70   107   108    1
    71    63    62    1
    72    94    93    1
    73    62    61    1
    74    82    80    1
    75    61    58    1
    76    80    79    1
    77    81    79    1
    78    73    71   ar
    79    73    74   ar
    80    79    76    1
    81    58    59    1
    82    58    57    1
    83    71    70   ar
    84    59    60    2
    85    74    72   ar
    86    76    75    1
    87    76    77    1
    88    86    85    2
    89    70    72   ar
    90    70    69    1
    91    75    67   am
    92    85    84    1
    93    87    84    1
    94    87    88    1
    95    69    66    1
    96    78    77    2
    97    67    68    2
    98    67    66    1
    99    84    83    1
   100    66    65    1
