@<TRIPOS>MOLECULE
tmp/4tqdA01.pdb
 113 105 0 0 0
SMALL
GASTEIGER

@<TRIPOS>ATOM
      1  N          9.3310   40.1830   44.4120 N.3    94  LEU94      -0.1245
      2  CA        10.4820   40.9150   43.9170 C.3    94  LEU94       0.1561
      3  C         11.2940   41.6360   45.0040 C.2    94  LEU94       0.2260
      4  O         12.5090   41.7440   44.8730 O.2    94  LEU94      -0.2867
      5  CB        10.0310   41.9300   42.8570 C.3    94  LEU94       0.0270
      6  CG        10.4120   41.5030   41.4470 C.3    94  LEU94       0.0019
      7  CD1        9.7440   42.3870   40.3830 C.3    94  LEU94       0.0001
      8  CD2       11.9390   41.4290   41.2860 C.3    94  LEU94       0.0001
      9  N         14.9710   45.0830   36.5520 N.3   110  MET110     -0.1245
     10  CA        14.1730   45.2700   35.3340 C.3   110  MET110      0.1570
     11  C         14.5570   46.6150   34.7590 C.2   110  MET110      0.2261
     12  O         15.1880   47.3980   35.4450 O.2   110  MET110     -0.2867
     13  CB        12.6640   45.2380   35.6420 C.3   110  MET110      0.0387
     14  CG        12.3380   46.4660   36.4940 C.3   110  MET110      0.0595
     15  SD        10.9040   46.4190   37.5250 S.3   110  MET110     -0.1393
     16  CE        11.1800   44.9870   38.5430 C.3   110  MET110      0.0692
     17  N         12.2710   48.8780   33.5030 N.3   112  ALA112     -0.1245
     18  CA        11.1280   49.7980   33.6000 C.3   112  ALA112      0.1562
     19  C         11.3720   51.1600   34.2660 C.2   112  ALA112      0.2260
     20  O         10.9700   52.1780   33.7000 O.2   112  ALA112     -0.2867
     21  CB         9.9660   49.0850   34.3160 C.3   112  ALA112      0.0290
     22  N         13.3020   53.4570   31.9910 N.3   115  LEU115     -0.1245
     23  CA        12.5730   53.7370   30.7500 C.3   115  LEU115      0.1561
     24  C         11.3710   54.6890   31.0250 C.2   115  LEU115      0.2260
     25  O         11.0860   55.5750   30.2150 O.2   115  LEU115     -0.2867
     26  CB        12.1110   52.4370   30.1090 C.3   115  LEU115      0.0270
     27  CG        13.3100   51.5750   29.6280 C.3   115  LEU115      0.0019
     28  CD1       12.8250   50.3450   28.8680 C.3   115  LEU115      0.0001
     29  CD2       14.2980   52.3680   28.7770 C.3   115  LEU115      0.0001
     30  N         18.4970   39.4980   39.6280 N.3   140  ARG140     -0.1245
     31  CA        17.5200   39.0220   40.6050 C.3   140  ARG140      0.1563
     32  C         18.0710   37.8320   41.3940 C.2   140  ARG140      0.2260
     33  O         18.5630   36.8980   40.8020 O.2   140  ARG140     -0.2867
     34  CB        16.2190   38.6090   39.9130 C.3   140  ARG140      0.0307
     35  CG        15.4620   39.7740   39.3130 C.3   140  ARG140      0.0489
     36  CD        14.2100   39.3380   38.6380 C.3   140  ARG140      0.2205
     37  NE        13.6750   40.4280   37.8320 N.pl3 140  ARG140     -0.0865
     38  CZ        12.5000   40.4100   37.2120 C.cat 140  ARG140      0.5346
     39  NH1       11.6730   39.3680   37.3400 N.pl3 140  ARG140      0.1354
     40  NH2       12.1490   41.4520   36.4760 N.pl3 140  ARG140      0.1354
     41  N         17.8770   41.6620   29.8570 N.3   154  MET154     -0.1245
     42  CA        16.5070   41.9730   29.4570 C.3   154  MET154      0.1570
     43  C         16.4610   42.8520   28.2070 C.2   154  MET154      0.2261
     44  O         17.2370   43.7910   28.0660 O.2   154  MET154     -0.2867
     45  CB        15.7590   42.6940   30.6080 C.3   154  MET154      0.0387
     46  CG        14.1950   42.7010   30.4310 C.3   154  MET154      0.0595
     47  SD        13.3890   43.5010   31.8400 S.3   154  MET154     -0.1393
     48  CE        13.6950   42.2210   33.0810 C.3   154  MET154      0.0692
     49  N         13.6850   45.4330   26.8360 N.3   156  SER156     -0.1202
     50  CA        12.3670   46.0130   27.0430 C.3   156  SER156      0.2020
     51  C         12.1490   47.0340   25.9830 C.2   156  SER156      0.2619
     52  O         13.0240   47.8720   25.7450 O.2   156  SER156     -0.2717
     53  CB        12.2050   46.6780   28.4200 C.3   156  SER156      0.2103
     54  OG        12.4280   45.7270   29.4500 O.3   156  SER156     -0.2182
     55  N         10.9760   46.9760   25.3460 N.am  157  PHE157     -0.1961
     56  CA        10.5890   48.0470   24.4230 C.3   157  PHE157      0.1771
     57  C          9.2620   48.6820   24.8440 C.2   157  PHE157      0.2619
     58  O          8.4480   48.0190   25.4570 O.2   157  PHE157     -0.2715
     59  CB        10.5010   47.5210   22.9950 C.3   157  PHE157      0.0574
     60  CG         9.4160   46.4930   22.7770 C.ar  157  PHE157     -0.0200
     61  CD1        9.7050   45.1260   22.8310 C.ar  157  PHE157     -0.0042
     62  CD2        8.1230   46.8860   22.4780 C.ar  157  PHE157     -0.0042
     63  CE1        8.7360   44.1840   22.6250 C.ar  157  PHE157     -0.0003
     64  CE2        7.1310   45.9300   22.2620 C.ar  157  PHE157     -0.0003
     65  CZ         7.4410   44.5690   22.3400 C.ar  157  PHE157     -0.0000
     66  N          9.0680   49.9610   24.5240 N.am  158  ILE158     -0.1977
     67  CA         7.8360   50.6900   24.8910 C.3   158  ILE158      0.1596
     68  C          7.4140   51.6300   23.7780 C.2   158  ILE158      0.2287
     69  O          8.2490   52.3220   23.2300 O.2   158  ILE158     -0.2864
     70  CB         8.0160   51.5680   26.1380 C.3   158  ILE158      0.0276
     71  CG1        8.6030   50.7830   27.2950 C.3   158  ILE158      0.0022
     72  CG2        6.6830   52.2550   26.5680 C.3   158  ILE158      0.0022
     73  CD1        9.1280   51.6940   28.3590 C.3   158  ILE158      0.0001
     74  N          6.8700   39.1450   29.7640 N.3   203  SER203     -0.1217
     75  CA         5.6400   39.7860   30.2240 C.3   203  SER203      0.1889
     76  C          5.4460   41.0890   29.4970 C.2   203  SER203      0.2288
     77  O          6.3790   41.9180   29.4110 O.2   203  SER203     -0.2866
     78  CB         5.6470   40.0450   31.7230 C.3   203  SER203      0.2089
     79  OG         5.3330   38.8490   32.4190 O.3   203  SER203     -0.2183
     80  N          2.6290   44.4490   28.6810 N.3   205  VAL205     -0.1245
     81  CA         1.6030   45.2500   29.3520 C.3   205  VAL205      0.1561
     82  C          0.9750   46.2800   28.3860 C.2   205  VAL205      0.2260
     83  O          1.6850   46.9030   27.5800 O.2   205  VAL205     -0.2867
     84  CB         2.1960   45.9720   30.5970 C.3   205  VAL205      0.0252
     85  CG1        1.2260   47.0130   31.1520 C.3   205  VAL205      0.0019
     86  CG2        2.5910   44.9520   31.6770 C.3   205  VAL205      0.0019
     87  N          0.2030   53.5940   26.7230 N.3   221  TRP221     -0.1241
     88  CA         1.4640   52.9820   26.2880 C.3   221  TRP221      0.1605
     89  C          1.2990   51.4930   26.1820 C.2   221  TRP221      0.2264
     90  O          0.3480   50.9330   26.7220 O.2   221  TRP221     -0.2867
     91  CB         2.6180   53.3380   27.2410 C.3   221  TRP221      0.0550
     92  CG         2.4420   52.8500   28.6570 C.ar  221  TRP221      0.0003
     93  CD1        1.8130   53.5140   29.6720 C.ar  221  TRP221      0.0946
     94  CD2        2.9250   51.6130   29.2300 C.ar  221  TRP221      0.0152
     95  NE1        1.8710   52.7720   30.8350 N.ar  221  TRP221     -0.2442
     96  CE2        2.5520   51.6060   30.5880 C.ar  221  TRP221      0.0810
     97  CE3        3.6400   50.5190   28.7270 C.ar  221  TRP221      0.0012
     98  CZ2        2.8500   50.5430   31.4430 C.ar  221  TRP221      0.0191
     99  CZ3        3.9430   49.4700   29.5760 C.ar  221  TRP221      0.0001
    100  CH2        3.5530   49.4900   30.9200 C.ar  221  TRP221      0.0015
    101  N          4.0640   47.8780   26.0310 N.3   223  GLY223     -0.1210
    102  CA         5.4570   47.4860   26.1300 C.3   223  GLY223      0.1956
    103  C          5.6320   46.0540   26.5710 C.2   223  GLY223      0.2612
    104  O          4.6590   45.3750   26.9160 O.2   223  GLY223     -0.2717
    105  N          6.8740   45.5850   26.5580 N.am  224  ALA224     -0.1965
    106  CA         7.1390   44.2030   26.9350 C.3   224  ALA224      0.1728
    107  C          8.5810   44.0720   27.3550 C.2   224  ALA224      0.2616
    108  O          9.4280   44.8710   26.9220 O.2   224  ALA224     -0.2715
    109  CB         6.8340   43.2540   25.7820 C.3   224  ALA224      0.0334
    110  N          8.8550   43.0640   28.1750 N.am  225  GLY225     -0.1955
    111  CA        10.2080   42.7480   28.6130 C.3   225  GLY225      0.1869
    112  C         10.5010   41.2880   28.3540 C.2   225  GLY225      0.2309
    113  O          9.6780   40.4320   28.6860 O.2   225  GLY225     -0.2863
@<TRIPOS>BOND
     1    64    65   ar
     2    64    62   ar
     3    65    63   ar
     4    62    60   ar
     5    63    61   ar
     6    60    61   ar
     7    60    59    1
     8    59    56    1
     9    69    68    2
    10    68    67    1
    11    56    57    1
    12    56    55    1
    13    66    57   am
    14    66    67    1
    15    57    58    2
    16    67    70    1
    17    55    51   am
    18    52    51    2
    19   109   106    1
    20    51    50    1
    21   101   102    1
    22   102   103    1
    23    70    72    1
    24    70    71    1
    25    89    88    1
    26    89    90    2
    27    88    87    1
    28    88    91    1
    29   105   103   am
    30   105   106    1
    31   103   104    2
    32    49    50    1
    33   108   107    2
    34   106   107    1
    35    50    53    1
    36    91    92    1
    37    71    73    1
    38   107   110   am
    39    83    82    2
    40    44    43    2
    41   110   111    1
    42    43    42    1
    43   112   111    1
    44   112   113    2
    45    82    81    1
    46    53    54    1
    47    92    94   ar
    48    92    93   ar
    49    80    81    1
    50    97    94   ar
    51    97    99   ar
    52    29    27    1
    53    28    27    1
    54    94    96   ar
    55    81    84    1
    56    77    76    2
    57    42    41    1
    58    42    45    1
    59    76    75    1
    60    99   100   ar
    61    27    26    1
    62    93    95   ar
    63    74    75    1
    64    26    23    1
    65    25    24    2
    66    75    78    1
    67    46    45    1
    68    46    47    1
    69    96    95   ar
    70    96    98   ar
    71    84    85    1
    72    84    86    1
    73    23    24    1
    74    23    22    1
    75   100    98   ar
    76    78    79    1
    77    47    48    1
    78    17    18    1
    79    18    19    1
    80    18    21    1
    81    20    19    2
    82    11    10    1
    83    11    12    2
    84    10    13    1
    85    10     9    1
    86    13    14    1
    87    40    38    1
    88    14    15    1
    89    38    39    1
    90    38    37    2
    91    15    16    1
    92    37    36    1
    93    36    35    1
    94    35    34    1
    95    30    31    1
    96    34    31    1
    97     7     6    1
    98    31    32    1
    99    33    32    2
   100     8     6    1
   101     6     5    1
   102     5     2    1
   103     2     1    1
   104     2     3    1
   105     4     3    2
