@<TRIPOS>MOLECULE
tmp/4tqfA01.pdb
 114 107 0 0 0
SMALL
GASTEIGER

@<TRIPOS>ATOM
      1  N         15.0820   45.2240   36.1430 N.3   110  MET110     -0.1230
      2  CA        14.2440   45.4570   34.9740 C.3   110  MET110      0.1702
      3  C         14.6240   46.8000   34.3580 C.2   110  MET110      0.2592
      4  O         15.2920   47.6170   34.9980 O.2   110  MET110     -0.2718
      5  CB        12.7690   45.4760   35.3750 C.3   110  MET110      0.0401
      6  CG        12.3840   46.7210   36.1600 C.3   110  MET110      0.0596
      7  SD        10.8280   46.5550   37.0440 S.3   110  MET110     -0.1393
      8  CE        11.2090   45.1820   38.1290 C.3   110  MET110      0.0692
      9  N         14.1880   47.0330   33.1240 N.am  111  LEU111     -0.1966
     10  CA        14.5320   48.2610   32.4120 C.3   111  LEU111      0.1728
     11  C         13.4590   49.3400   32.5480 C.2   111  LEU111      0.2616
     12  O         13.6160   50.4390   32.0250 O.2   111  LEU111     -0.2715
     13  CB        14.7860   47.9670   30.9300 C.3   111  LEU111      0.0311
     14  CG        15.8950   46.9580   30.6210 C.3   111  LEU111      0.0022
     15  CD1       15.9940   46.6710   29.1310 C.3   111  LEU111      0.0001
     16  CD2       17.2140   47.4640   31.1550 C.3   111  LEU111      0.0001
     17  N         12.3780   49.0300   33.2580 N.am  112  ALA112     -0.1977
     18  CA        11.2260   49.9330   33.3260 C.3   112  ALA112      0.1597
     19  C         11.4880   51.3360   33.9000 C.2   112  ALA112      0.2287
     20  O         11.1450   52.3240   33.2600 O.2   112  ALA112     -0.2864
     21  CB        10.0460   49.2620   34.0190 C.3   112  ALA112      0.0319
     22  N         13.4860   53.5690   31.5020 N.3   115  LEU115     -0.1231
     23  CA        12.7040   53.8270   30.3010 C.3   115  LEU115      0.1693
     24  C         11.5200   54.7520   30.5880 C.2   115  LEU115      0.2592
     25  O         11.1490   55.5810   29.7540 O.2   115  LEU115     -0.2718
     26  CB        12.2360   52.5190   29.6700 C.3   115  LEU115      0.0284
     27  CG        13.3670   51.7030   29.0420 C.3   115  LEU115      0.0019
     28  CD1       12.8210   50.4730   28.3370 C.3   115  LEU115      0.0001
     29  CD2       14.1990   52.5600   28.0920 C.3   115  LEU115      0.0001
     30  N         10.9360   54.6030   31.7720 N.am  116  TYR116     -0.1976
     31  CA         9.8840   55.5020   32.2300 C.3   116  TYR116      0.1639
     32  C         10.3690   56.9470   32.2020 C.2   116  TYR116      0.2290
     33  O          9.7030   57.8200   31.6540 O.2   116  TYR116     -0.2864
     34  CB         9.4590   55.1340   33.6500 C.3   116  TYR116      0.0560
     35  CG         8.1200   54.4430   33.7560 C.ar  116  TYR116     -0.0198
     36  CD1        7.0250   54.8740   33.0120 C.ar  116  TYR116     -0.0009
     37  CD2        7.9480   53.3570   34.6140 C.ar  116  TYR116     -0.0009
     38  CE1        5.7900   54.2410   33.1200 C.ar  116  TYR116      0.0417
     39  CE2        6.7240   52.7180   34.7280 C.ar  116  TYR116      0.0417
     40  CZ         5.6480   53.1610   33.9810 C.ar  116  TYR116      0.1957
     41  OH         4.4350   52.5180   34.1050 O.3   116  TYR116     -0.2866
     42  N         18.5400   39.7030   39.1920 N.3   140  ARG140     -0.1245
     43  CA        17.5810   39.2500   40.1890 C.3   140  ARG140      0.1563
     44  C         18.1320   38.0480   40.9460 C.2   140  ARG140      0.2260
     45  O         18.6190   37.0970   40.3400 O.2   140  ARG140     -0.2867
     46  CB        16.2530   38.8680   39.5310 C.3   140  ARG140      0.0307
     47  CG        15.5980   39.9790   38.7370 C.3   140  ARG140      0.0489
     48  CD        14.2920   39.5120   38.1310 C.3   140  ARG140      0.2205
     49  NE        13.7250   40.5170   37.2420 N.pl3 140  ARG140     -0.0865
     50  CZ        12.4990   40.4580   36.7370 C.cat 140  ARG140      0.5346
     51  NH1       11.7000   39.4400   37.0380 N.pl3 140  ARG140      0.1354
     52  NH2       12.0680   41.4180   35.9310 N.pl3 140  ARG140      0.1354
     53  N         18.1040   41.7370   29.3150 N.3   154  MET154     -0.1245
     54  CA        16.7180   42.0010   28.9660 C.3   154  MET154      0.1570
     55  C         16.5790   42.9500   27.7800 C.2   154  MET154      0.2261
     56  O         17.3570   43.8940   27.6270 O.2   154  MET154     -0.2867
     57  CB        15.9530   42.5530   30.1730 C.3   154  MET154      0.0387
     58  CG        14.4510   42.6620   29.9470 C.3   154  MET154      0.0595
     59  SD        13.5660   43.2860   31.3820 S.3   154  MET154     -0.1393
     60  CE        13.8930   41.9760   32.5580 C.3   154  MET154      0.0692
     61  N         13.6950   45.4680   26.3560 N.3   156  SER156     -0.1217
     62  CA        12.4070   46.1270   26.5580 C.3   156  SER156      0.1889
     63  C         12.1770   47.1860   25.5010 C.2   156  SER156      0.2288
     64  O         13.0430   48.0230   25.2540 O.2   156  SER156     -0.2866
     65  CB        12.3250   46.7730   27.9360 C.3   156  SER156      0.2089
     66  OG        12.3710   45.7940   28.9540 O.3   156  SER156     -0.2183
     67  N          9.1380   50.0790   24.0590 N.3   158  ILE158     -0.1245
     68  CA         7.9100   50.7980   24.3990 C.3   158  ILE158      0.1561
     69  C          7.5120   51.7580   23.2830 C.2   158  ILE158      0.2260
     70  O          8.3660   52.3920   22.6640 O.2   158  ILE158     -0.2867
     71  CB         8.0650   51.6270   25.6990 C.3   158  ILE158      0.0252
     72  CG1        8.7730   50.8190   26.7830 C.3   158  ILE158      0.0019
     73  CG2        6.7100   52.0980   26.2110 C.3   158  ILE158      0.0019
     74  CD1        9.2660   51.6610   27.9230 C.3   158  ILE158      0.0001
     75  N          6.8240   39.2700   28.9980 N.3   203  SER203     -0.1217
     76  CA         5.5950   39.8150   29.5470 C.3   203  SER203      0.1889
     77  C          5.3080   41.1780   28.9790 C.2   203  SER203      0.2288
     78  O          6.0570   42.1240   29.2040 O.2   203  SER203     -0.2866
     79  CB         5.6070   39.8140   31.0610 C.3   203  SER203      0.2089
     80  OG         4.9630   38.6400   31.4740 O.3   203  SER203     -0.2183
     81  N          2.6340   44.4440   28.2190 N.3   205  VAL205     -0.1245
     82  CA         1.5970   45.2070   28.8930 C.3   205  VAL205      0.1561
     83  C          1.0020   46.2390   27.9370 C.2   205  VAL205      0.2260
     84  O          1.7240   46.8600   27.1500 O.2   205  VAL205     -0.2867
     85  CB         2.1630   45.9160   30.1420 C.3   205  VAL205      0.0252
     86  CG1        1.1270   46.8430   30.7570 C.3   205  VAL205      0.0019
     87  CG2        2.6460   44.8870   31.1620 C.3   205  VAL205      0.0019
     88  N          0.2020   53.6150   26.2230 N.3   221  TRP221     -0.1241
     89  CA         1.4490   52.9780   25.8090 C.3   221  TRP221      0.1605
     90  C          1.3250   51.4630   25.6950 C.2   221  TRP221      0.2264
     91  O          0.4240   50.8600   26.2740 O.2   221  TRP221     -0.2867
     92  CB         2.6060   53.3670   26.7440 C.3   221  TRP221      0.0550
     93  CG         2.4000   52.9810   28.1760 C.ar  221  TRP221      0.0003
     94  CD1        1.8130   53.7310   29.1490 C.ar  221  TRP221      0.0946
     95  CD2        2.7860   51.7470   28.8000 C.ar  221  TRP221      0.0152
     96  NE1        1.8020   53.0430   30.3400 N.ar  221  TRP221     -0.2442
     97  CE2        2.3960   51.8240   30.1510 C.ar  221  TRP221      0.0810
     98  CE3        3.4250   50.5910   28.3450 C.ar  221  TRP221      0.0012
     99  CZ2        2.6220   50.7830   31.0560 C.ar  221  TRP221      0.0191
    100  CZ3        3.6490   49.5580   29.2450 C.ar  221  TRP221      0.0001
    101  CH2        3.2490   49.6620   30.5830 C.ar  221  TRP221      0.0015
    102  N          4.0760   47.8680   25.6030 N.3   223  GLY223     -0.1210
    103  CA         5.4470   47.4770   25.8870 C.3   223  GLY223      0.1956
    104  C          5.6360   46.0030   26.1770 C.2   223  GLY223      0.2612
    105  O          4.6840   45.3030   26.5150 O.2   223  GLY223     -0.2717
    106  N          6.8720   45.5300   26.0440 N.am  224  ALA224     -0.1965
    107  CA         7.1870   44.1300   26.3140 C.3   224  ALA224      0.1728
    108  C          8.6210   43.9670   26.7850 C.2   224  ALA224      0.2616
    109  O          9.5100   44.6840   26.3320 O.2   224  ALA224     -0.2715
    110  CB         6.9500   43.2780   25.0680 C.3   224  ALA224      0.0334
    111  N          8.8460   43.0100   27.6810 N.am  225  GLY225     -0.1955
    112  CA        10.1870   42.7070   28.1500 C.3   225  GLY225      0.1869
    113  C         10.5820   41.2780   27.8360 C.2   225  GLY225      0.2309
    114  O          9.9200   40.3440   28.2810 O.2   225  GLY225     -0.2863
@<TRIPOS>BOND
     1    70    69    2
     2    69    68    1
     3    67    68    1
     4    68    71    1
     5   110   107    1
     6    64    63    2
     7    63    62    1
     8   102   103    1
     9    90    89    1
    10    90    91    2
    11    71    73    1
    12    71    72    1
    13    89    88    1
    14    89    92    1
    15   103   104    1
    16   106   104   am
    17   106   107    1
    18   104   105    2
    19   107   108    1
    20   109   108    2
    21    61    62    1
    22    62    65    1
    23    92    93    1
    24    72    74    1
    25   108   111   am
    26    84    83    2
    27    56    55    2
    28   111   112    1
    29    55    54    1
    30   113   112    1
    31   113   114    2
    32    65    66    1
    33    83    82    1
    34    29    27    1
    35    93    95   ar
    36    93    94   ar
    37    81    82    1
    38    28    27    1
    39    98    95   ar
    40    98   100   ar
    41    95    97   ar
    42    82    85    1
    43    54    53    1
    44    54    57    1
    45    77    78    2
    46    77    76    1
    47    75    76    1
    48    27    26    1
    49    15    14    1
    50    94    96   ar
    51   100   101   ar
    52    76    79    1
    53    26    23    1
    54    25    24    2
    55    58    57    1
    56    58    59    1
    57    85    86    1
    58    85    87    1
    59    97    96   ar
    60    97    99   ar
    61    23    24    1
    62    23    22    1
    63   101    99   ar
    64    24    30   am
    65    14    13    1
    66    14    16    1
    67    13    10    1
    68    79    80    1
    69    59    60    1
    70    33    32    2
    71    30    31    1
    72    12    11    2
    73    32    31    1
    74    31    34    1
    75    10    11    1
    76    10     9    1
    77    11    17   am
    78    36    38   ar
    79    36    35   ar
    80    38    40   ar
    81     9     3   am
    82    17    18    1
    83    20    19    2
    84    18    19    1
    85    18    21    1
    86    34    35    1
    87    35    37   ar
    88    40    41    1
    89    40    39   ar
    90     3     2    1
    91     3     4    2
    92    37    39   ar
    93     2     5    1
    94     2     1    1
    95     5     6    1
    96    52    50    1
    97     6     7    1
    98    50    51    1
    99    50    49    2
   100     7     8    1
   101    49    48    1
   102    48    47    1
   103    47    46    1
   104    42    43    1
   105    46    43    1
   106    43    44    1
   107    45    44    2
