@<TRIPOS>MOLECULE
tmp/4tqiA00.pdb
 87 76 0 0 0
SMALL
GASTEIGER

@<TRIPOS>ATOM
      1  N         18.1790   32.1230   30.9620 N.3     4  MET4       -0.1245
      2  CA        19.4830   32.7380   30.8330 C.3     4  MET4        0.1570
      3  C         20.0120   32.9810   32.2330 C.2     4  MET4        0.2261
      4  O         19.2490   33.2980   33.1460 O.2     4  MET4       -0.2867
      5  CB        19.4010   34.0500   30.0450 C.3     4  MET4        0.0387
      6  CG        20.7670   34.6270   29.6100 C.3     4  MET4        0.0595
      7  SD        21.5280   35.7720   30.7970 S.3     4  MET4       -0.1393
      8  CE        20.7880   37.3300   30.3070 C.3     4  MET4        0.0692
      9  N         22.9900   35.1860   34.3550 N.3     6  LYS6       -0.1245
     10  CA        23.9310   36.2860   34.2580 C.3     6  LYS6        0.1561
     11  C         24.6240   36.4660   35.5970 C.2     6  LYS6        0.2260
     12  O         23.9410   36.4890   36.6260 O.2     6  LYS6       -0.2867
     13  CB        23.1970   37.5570   33.8680 C.3     6  LYS6        0.0271
     14  CG        24.0950   38.7480   33.8020 C.3     6  LYS6        0.0035
     15  CD        23.3620   39.9180   33.2320 C.3     6  LYS6        0.0206
     16  CE        24.3200   41.0530   33.0540 C.3     6  LYS6        0.1093
     17  NZ        25.3850   40.7710   32.0530 N.3     6  LYS6       -0.1314
     18  N         27.6120   38.6370   37.9070 N.3     8  LEU8       -0.1245
     19  CA        28.4050   39.8530   38.0540 C.3     8  LEU8        0.1561
     20  C         29.2850   39.7700   39.2880 C.2     8  LEU8        0.2260
     21  O         28.8980   39.1300   40.2790 O.2     8  LEU8       -0.2867
     22  CB        27.4970   41.0660   38.1700 C.3     8  LEU8        0.0270
     23  CG        26.7060   41.4030   36.9170 C.3     8  LEU8        0.0019
     24  CD1       25.7410   42.4810   37.2860 C.3     8  LEU8        0.0001
     25  CD2       27.6320   41.8810   35.8160 C.3     8  LEU8        0.0001
     26  N         31.6020   41.6370   34.6210 N.3    15  PRO15      -0.2116
     27  CA        31.0220   40.3050   34.4910 C.3    15  PRO15       0.1372
     28  C         31.8830   39.2580   35.1920 C.2    15  PRO15       0.2244
     29  O         33.1030   39.4230   35.2820 O.2    15  PRO15      -0.2868
     30  CB        30.9960   40.0640   32.9780 C.3    15  PRO15       0.0268
     31  CG        31.9340   41.0680   32.4080 C.3    15  PRO15       0.0207
     32  CD        31.9250   42.2500   33.3230 C.3    15  PRO15       0.0892
     33  N         30.8670   37.9740   28.7460 N.3    43  SER43      -0.1217
     34  CA        29.8690   38.9520   29.1780 C.3    43  SER43       0.1889
     35  C         29.2350   38.5560   30.5070 C.2    43  SER43       0.2288
     36  O         28.3510   39.2450   31.0050 O.2    43  SER43      -0.2866
     37  CB        28.7750   39.1230   28.1190 C.3    43  SER43       0.2089
     38  OG        27.9780   37.9540   28.0250 O.3    43  SER43      -0.2183
     39  N         27.4360   35.9440   30.8800 N.3    45  GLU45      -0.1245
     40  CA        26.1280   35.3780   30.5990 C.3    45  GLU45       0.1567
     41  C         26.2450   33.9680   30.0790 C.2    45  GLU45       0.2260
     42  O         27.2440   33.5830   29.4820 O.2    45  GLU45      -0.2867
     43  CB        25.3600   36.2540   29.5980 C.3    45  GLU45       0.0388
     44  CG        25.1340   37.6660   30.1200 C.3    45  GLU45       0.1160
     45  CD        24.3320   38.5370   29.1810 C.2    45  GLU45       0.3649
     46  OE1       23.9420   38.0510   28.1010 O.co2  45  GLU45      -0.2457
     47  OE2       24.1080   39.7190   29.5210 O.co2  45  GLU45      -0.2457
     48  N         15.3760   35.1840   33.3700 N.3    97  THR97      -0.1218
     49  CA        16.7650   35.5480   33.5310 C.3    97  THR97       0.1862
     50  C         17.0910   35.4980   35.0060 C.2    97  THR97       0.2287
     51  O         16.4660   36.1790   35.8130 O.2    97  THR97      -0.2866
     52  CB        17.0730   36.9300   32.9760 C.3    97  THR97       0.1770
     53  OG1       16.7560   36.9660   31.5800 O.3    97  THR97      -0.2211
     54  CG2       18.5550   37.2350   33.1640 C.3    97  THR97       0.0375
     55  N         19.8430   36.3170   37.6290 N.3    99  ALA99      -0.1245
     56  CA        21.0390   37.1180   37.7870 C.3    99  ALA99       0.1562
     57  C         21.5970   36.9240   39.1720 C.2    99  ALA99       0.2260
     58  O         20.8480   36.8330   40.1380 O.2    99  ALA99      -0.2867
     59  CB        20.7440   38.5530   37.5440 C.3    99  ALA99       0.0290
     60  N         24.7520   38.4290   41.7720 N.3   101  LEU101     -0.1245
     61  CA        25.7580   39.4360   42.0410 C.3   101  LEU101      0.1561
     62  C         26.6250   38.9030   43.1610 C.2   101  LEU101      0.2260
     63  O         26.0790   38.5770   44.2320 O.2   101  LEU101     -0.2867
     64  CB        25.0820   40.7370   42.4490 C.3   101  LEU101      0.0270
     65  CG        26.0210   41.8660   42.8680 C.3   101  LEU101      0.0019
     66  CD1       26.8350   42.3510   41.6670 C.3   101  LEU101      0.0001
     67  CD2       25.2410   43.0030   43.5180 C.3   101  LEU101      0.0001
     68  N         23.6270   38.1820   45.9900 N.3   108  SER108     -0.1217
     69  CA        22.2210   38.4490   45.7960 C.3   108  SER108      0.1889
     70  C         21.8160   37.8970   44.4470 C.2   108  SER108      0.2288
     71  O         22.5710   37.9760   43.4740 O.2   108  SER108     -0.2866
     72  CB        21.9280   39.9410   45.8660 C.3   108  SER108      0.2089
     73  OG        22.4190   40.5730   44.7020 O.3   108  SER108     -0.2183
     74  N         18.4970   37.6370   41.6350 N.3   110  THR110     -0.1218
     75  CA        17.2810   38.2970   41.2140 C.3   110  THR110      0.1862
     76  C         16.7690   37.5720   39.9920 C.2   110  THR110      0.2287
     77  O         17.5620   37.1590   39.1490 O.2   110  THR110     -0.2866
     78  CB        17.5290   39.7690   40.8660 C.3   110  THR110      0.1770
     79  OG1       18.0310   40.4400   42.0200 O.3   110  THR110     -0.2211
     80  CG2       16.2450   40.4420   40.4250 C.3   110  THR110      0.0375
     81  N         14.3650   37.9740   36.6390 N.3   112  VAL112     -0.1245
     82  CA        13.5480   38.8070   35.7790 C.3   112  VAL112      0.1561
     83  C         12.7670   37.8660   34.8890 C.2   112  VAL112      0.2260
     84  O         13.3420   37.0740   34.1530 O.2   112  VAL112     -0.2867
     85  CB        14.3760   39.7850   34.9340 C.3   112  VAL112      0.0252
     86  CG1       13.4650   40.5780   33.9940 C.3   112  VAL112      0.0019
     87  CG2       15.1570   40.7080   35.8430 C.3   112  VAL112      0.0019
@<TRIPOS>BOND
     1    38    37    1
     2    46    45   ar
     3    37    34    1
     4    33    34    1
     5    34    35    1
     6    45    47   ar
     7    45    44    1
     8    42    41    2
     9    43    44    1
    10    43    40    1
    11     6     5    1
    12     6     7    1
    13     5     2    1
    14    41    40    1
    15     8     7    1
    16    35    36    2
    17    40    39    1
    18     2     1    1
    19     2     3    1
    20    53    52    1
    21    17    16    1
    22     3     4    2
    23    31    30    1
    24    31    32    1
    25    52    54    1
    26    52    49    1
    27    30    27    1
    28    16    15    1
    29    15    14    1
    30    32    26    1
    31    48    49    1
    32    49    50    1
    33    14    13    1
    34    13    10    1
    35    86    85    1
    36    84    83    2
    37    10     9    1
    38    10    11    1
    39    27    26    1
    40    27    28    1
    41    83    82    1
    42    85    82    1
    43    85    87    1
    44    50    51    2
    45    28    29    2
    46    11    12    2
    47    82    81    1
    48    25    23    1
    49    23    24    1
    50    23    22    1
    51    59    56    1
    52    55    56    1
    53    56    57    1
    54    18    19    1
    55    19    22    1
    56    19    20    1
    57    77    76    2
    58    57    58    2
    59    20    21    2
    60    76    75    1
    61    80    78    1
    62    78    75    1
    63    78    79    1
    64    75    74    1
    65    66    65    1
    66    60    61    1
    67    61    64    1
    68    61    62    1
    69    64    65    1
    70    65    67    1
    71    62    63    2
    72    71    70    2
    73    70    69    1
    74    73    72    1
    75    69    72    1
    76    69    68    1
