@<TRIPOS>MOLECULE
tmp/4tqkB04.pdb
 91 88 0 0 0
SMALL
GASTEIGER

@<TRIPOS>ATOM
      1  N        -19.7370   21.6700   11.4840 N.3   326  ASP326     -0.1239
      2  CA       -18.7860   20.8550   10.7400 C.3   326  ASP326      0.1674
      3  C        -19.5060   20.1820    9.5750 C.2   326  ASP326      0.2266
      4  O        -20.7280   20.3120    9.4290 O.2   326  ASP326     -0.2867
      5  CB       -18.1160   19.8100   11.6470 C.3   326  ASP326      0.1410
      6  CG       -16.7000   19.4620   11.1880 C.2   326  ASP326      0.3668
      7  OD1      -16.4000   19.6460    9.9890 O.co2 326  ASP326     -0.2456
      8  OD2      -15.8770   19.0190   12.0230 O.co2 326  ASP326     -0.2456
      9  N        -15.6790   23.9390    6.2920 N.3   331  GLN331     -0.1231
     10  CA       -14.6750   23.0470    6.8450 C.3   331  GLN331      0.1698
     11  C        -13.9820   22.2070    5.7720 C.2   331  GLN331      0.2593
     12  O        -13.3890   21.1650    6.0620 O.2   331  GLN331     -0.2718
     13  CB       -15.2630   22.1760    7.9620 C.3   331  GLN331      0.0381
     14  CG       -15.7810   22.9970    9.1550 C.3   331  GLN331      0.0905
     15  CD       -17.2100   23.4960    8.9700 C.2   331  GLN331      0.2608
     16  OE1      -17.9960   22.8950    8.2460 O.2   331  GLN331     -0.2717
     17  NE2      -17.5490   24.5980    9.6340 N.am  331  GLN331     -0.0878
     18  N        -14.0580   22.6750    4.5300 N.am  332  GLY332     -0.1942
     19  CA       -13.3340   22.0760    3.4210 C.3   332  GLY332      0.2014
     20  C        -14.0760   20.9630    2.7020 C.2   332  GLY332      0.2638
     21  O        -13.5240   20.3160    1.8130 O.2   332  GLY332     -0.2714
     22  N        -15.3320   20.7330    3.0690 N.am  333  TRP333     -0.1973
     23  CA       -16.0890   19.6430    2.4510 C.3   333  TRP333      0.1640
     24  C        -16.5270   19.9700    1.0150 C.2   333  TRP333      0.2290
     25  O        -17.0660   21.0490    0.7440 O.2   333  TRP333     -0.2864
     26  CB       -17.2680   19.2270    3.3400 C.3   333  TRP333      0.0576
     27  CG       -16.7810   18.6260    4.6310 C.ar  333  TRP333      0.0006
     28  CD1      -16.3470   19.3000    5.7260 C.ar  333  TRP333      0.0946
     29  CD2      -16.6580   17.2340    4.9400 C.ar  333  TRP333      0.0152
     30  NE1      -15.9560   18.4190    6.7020 N.ar  333  TRP333     -0.2442
     31  CE2      -16.1360   17.1400    6.2420 C.ar  333  TRP333      0.0810
     32  CE3      -16.9280   16.0550    4.2360 C.ar  333  TRP333      0.0012
     33  CZ2      -15.8920   15.9080    6.8650 C.ar  333  TRP333      0.0191
     34  CZ3      -16.6890   14.8360    4.8530 C.ar  333  TRP333      0.0001
     35  CH2      -16.1730   14.7720    6.1530 C.ar  333  TRP333      0.0015
     36  N        -15.4660   14.1580   -1.3530 N.3   338  HIS338     -0.1241
     37  CA       -15.9240   13.5870   -0.0900 C.3   338  HIS338      0.1621
     38  C        -17.3550   13.0520   -0.1460 C.2   338  HIS338      0.2264
     39  O        -18.1630   13.5090   -0.9510 O.2   338  HIS338     -0.2867
     40  CB       -15.8360   14.6480    0.9960 C.3   338  HIS338      0.0745
     41  CG       -14.5360   15.3810    1.0120 C.ar  338  HIS338      0.0817
     42  ND1      -14.4580   16.7620    1.0280 N.ar  338  HIS338     -0.2268
     43  CD2      -13.2570   14.9380    1.0330 C.ar  338  HIS338      0.1154
     44  CE1      -13.1940   17.1290    1.0580 C.ar  338  HIS338      0.1986
     45  NE2      -12.4400   16.0410    1.0560 N.ar  338  HIS338     -0.2212
     46  N        -14.0170   12.1550    4.6750 N.3   357  GLY357     -0.1210
     47  CA       -13.4220   13.4590    4.4360 C.3   357  GLY357      0.1956
     48  C        -12.0760   13.4320    3.7500 C.2   357  GLY357      0.2612
     49  O        -11.7540   12.4760    3.0490 O.2   357  GLY357     -0.2717
     50  N        -11.2900   14.4840    3.9620 N.am  358  GLU358     -0.1965
     51  CA       -10.0050   14.6340    3.2880 C.3   358  GLU358      0.1733
     52  C         -8.9660   13.6030    3.7280 C.2   358  GLU358      0.2616
     53  O         -8.3290   12.9630    2.8880 O.2   358  GLU358     -0.2715
     54  CB        -9.4620   16.0540    3.4730 C.3   358  GLU358      0.0429
     55  CG        -8.2290   16.3740    2.6230 C.3   358  GLU358      0.1163
     56  CD        -8.4950   16.3510    1.1170 C.2   358  GLU358      0.3649
     57  OE1       -9.6720   16.2260    0.7010 O.co2 358  GLU358     -0.2457
     58  OE2       -7.5210   16.4610    0.3430 O.co2 358  GLU358     -0.2457
     59  N         -8.7860   13.4410    5.0370 N.am  359  LYS359     -0.1963
     60  CA        -7.8260   12.4600    5.5420 C.3   359  LYS359      0.1728
     61  C         -8.4270   11.4830    6.5640 C.2   359  LYS359      0.2616
     62  O         -7.7880   10.4980    6.9370 O.2   359  LYS359     -0.2715
     63  CB        -6.6050   13.1650    6.1390 C.3   359  LYS359      0.0311
     64  CG        -6.9500   14.1820    7.2260 C.3   359  LYS359      0.0038
     65  CD        -5.6940   14.7440    7.8940 C.3   359  LYS359      0.0206
     66  CE        -5.9600   16.0890    8.5750 C.3   359  LYS359      0.1093
     67  NZ        -6.8920   15.9870    9.7340 N.3   359  LYS359     -0.1314
     68  N         -9.6490   11.7520    7.0120 N.am  360  GLU360     -0.1977
     69  CA       -10.2880   10.9180    8.0170 C.3   360  GLU360      0.1602
     70  C        -11.7460   10.6070    7.6890 C.2   360  GLU360      0.2287
     71  O        -12.4230   11.3770    6.9960 O.2   360  GLU360     -0.2864
     72  CB       -10.2150   11.5990    9.3820 C.3   360  GLU360      0.0415
     73  CG        -9.4630   10.8160   10.4440 C.3   360  GLU360      0.1163
     74  CD        -8.8960   11.7100   11.5410 C.2   360  GLU360      0.3649
     75  OE1       -9.0390   12.9450   11.4370 O.co2 360  GLU360     -0.2457
     76  OE2       -8.3050   11.1740   12.5050 O.co2 360  GLU360     -0.2457
     77  N        -14.9660   10.7210    9.5130 N.3   362  LEU362     -0.1245
     78  CA       -15.4210   11.4360   10.7080 C.3   362  LEU362      0.1561
     79  C        -16.8990   11.1950   11.0020 C.2   362  LEU362      0.2260
     80  O        -17.6710   10.8690   10.1000 O.2   362  LEU362     -0.2867
     81  CB       -15.1650   12.9330   10.5310 C.3   362  LEU362      0.0270
     82  CG       -13.6880   13.3190   10.4240 C.3   362  LEU362      0.0019
     83  CD1      -13.4880   14.4560    9.4450 C.3   362  LEU362      0.0001
     84  CD2      -13.1660   13.6740   11.8040 C.3   362  LEU362      0.0001
     85  N        -17.3610   16.1080   16.8480 N.3   375  VAL375     -0.1245
     86  CA       -16.9230   15.3070   15.7000 C.3   375  VAL375      0.1561
     87  C        -15.7780   14.3780   16.1130 C.2   375  VAL375      0.2260
     88  O        -14.7410   14.8250   16.6090 O.2   375  VAL375     -0.2867
     89  CB       -16.4800   16.1870   14.4970 C.3   375  VAL375      0.0252
     90  CG1      -15.8510   15.3310   13.4100 C.3   375  VAL375      0.0019
     91  CG2      -17.6720   16.9490   13.9360 C.3   375  VAL375      0.0019
@<TRIPOS>BOND
     1    36    37    1
     2    39    38    2
     3    38    37    1
     4    37    40    1
     5    58    56   ar
     6    57    56   ar
     7    25    24    2
     8    40    41    1
     9    41    42   ar
    10    41    43   ar
    11    24    23    1
    12    42    44   ar
    13    43    45   ar
    14    45    44   ar
    15    56    55    1
    16    21    20    2
    17    23    22    1
    18    23    26    1
    19    55    54    1
    20    20    22   am
    21    20    19    1
    22    53    52    2
    23    49    48    2
    24    51    54    1
    25    51    52    1
    26    51    50    1
    27    26    27    1
    28    19    18    1
    29    52    59   am
    30    48    50   am
    31    48    47    1
    32    32    34   ar
    33    32    29   ar
    34    47    46    1
    35    18    11   am
    36    27    29   ar
    37    27    28   ar
    38    34    35   ar
    39    29    31   ar
    40    59    60    1
    41    60    63    1
    42    60    61    1
    43    28    30   ar
    44    11    12    2
    45    11    10    1
    46    63    64    1
    47    35    33   ar
    48    31    30   ar
    49    31    33   ar
    50     9    10    1
    51    61    62    2
    52    61    68   am
    53    10    13    1
    54    71    70    2
    55    68    69    1
    56    64    65    1
    57    70    69    1
    58    65    66    1
    59    13    14    1
    60    69    72    1
    61    16    15    2
    62    66    67    1
    63    15    14    1
    64    15    17   am
    65    72    73    1
    66     4     3    2
    67    83    82    1
    68    77    78    1
    69     3     2    1
    70     7     6   ar
    71    80    79    2
    72    82    81    1
    73    82    84    1
    74    73    74    1
    75    81    78    1
    76    78    79    1
    77     2     1    1
    78     2     5    1
    79     6     5    1
    80     6     8   ar
    81    75    74   ar
    82    74    76   ar
    83    90    89    1
    84    91    89    1
    85    89    86    1
    86    86    87    1
    87    86    85    1
    88    87    88    2
