@<TRIPOS>MOLECULE
tmp/4tqkB01.pdb
 83 79 0 0 0
SMALL
GASTEIGER

@<TRIPOS>ATOM
      1  N        -27.1960  -10.6400  -18.0010 N.3   103  ASN103     -0.1240
      2  CA       -27.9910   -9.4850  -18.4250 C.3   103  ASN103      0.1653
      3  C        -27.7140   -8.3080  -17.4800 C.2   103  ASN103      0.2266
      4  O        -26.9860   -8.4780  -16.4910 O.2   103  ASN103     -0.2867
      5  CB       -29.4780   -9.8500  -18.4480 C.3   103  ASN103      0.1155
      6  CG       -30.2310   -9.2220  -19.6160 C.2   103  ASN103      0.2627
      7  OD1      -30.0410   -8.0530  -19.9410 O.2   103  ASN103     -0.2716
      8  ND2      -31.1070  -10.0030  -20.2380 N.am  103  ASN103     -0.0877
      9  N        -26.7960   -6.7710  -22.8150 N.3   109  GLY109     -0.1210
     10  CA       -28.0010   -5.9620  -22.7660 C.3   109  GLY109      0.1956
     11  C        -27.7650   -4.4810  -23.0040 C.2   109  GLY109      0.2612
     12  O        -28.7110   -3.6970  -23.0450 O.2   109  GLY109     -0.2717
     13  N        -26.5000   -4.1010  -23.1480 N.am  110  GLY110     -0.1942
     14  CA       -26.1320   -2.7400  -23.4980 C.3   110  GLY110      0.2014
     15  C        -26.5430   -1.6950  -22.4800 C.2   110  GLY110      0.2638
     16  O        -26.9020   -0.5680  -22.8360 O.2   110  GLY110     -0.2714
     17  N        -26.4900   -2.0580  -21.2040 N.am  111  TRP111     -0.1973
     18  CA       -26.8720   -1.1130  -20.1610 C.3   111  TRP111      0.1640
     19  C        -25.8370   -0.0220  -20.0440 C.2   111  TRP111      0.2290
     20  O        -24.6340   -0.2770  -20.1720 O.2   111  TRP111     -0.2864
     21  CB       -27.1010   -1.8240  -18.8330 C.3   111  TRP111      0.0576
     22  CG       -28.2990   -2.6960  -18.9270 C.ar  111  TRP111      0.0006
     23  CD1      -28.3920   -3.8860  -19.5840 C.ar  111  TRP111      0.0946
     24  CD2      -29.5940   -2.4300  -18.3790 C.ar  111  TRP111      0.0152
     25  NE1      -29.6690   -4.3820  -19.4770 N.ar  111  TRP111     -0.2442
     26  CE2      -30.4240   -3.5110  -18.7340 C.ar  111  TRP111      0.0810
     27  CE3      -30.1300   -1.3890  -17.6170 C.ar  111  TRP111      0.0012
     28  CZ2      -31.7650   -3.5760  -18.3530 C.ar  111  TRP111      0.0191
     29  CZ3      -31.4600   -1.4580  -17.2310 C.ar  111  TRP111      0.0001
     30  CH2      -32.2610   -2.5400  -17.6030 C.ar  111  TRP111      0.0015
     31  N        -29.6540    4.5180  -18.1170 N.3   116  HIS116     -0.1241
     32  CA       -30.4500    3.5010  -17.4240 C.3   116  HIS116      0.1621
     33  C        -30.1640    3.4480  -15.9290 C.2   116  HIS116      0.2264
     34  O        -29.1220    3.9220  -15.4770 O.2   116  HIS116     -0.2867
     35  CB       -30.2040    2.1140  -18.0420 C.3   116  HIS116      0.0745
     36  CG       -30.1710    2.1160  -19.5510 C.ar  116  HIS116      0.0817
     37  ND1      -29.1430    1.5640  -20.2670 N.ar  116  HIS116     -0.2268
     38  CD2      -31.0570    2.6070  -20.4470 C.ar  116  HIS116      0.1154
     39  CE1      -29.3930    1.7100  -21.5690 C.ar  116  HIS116      0.1986
     40  NE2      -30.5340    2.3400  -21.6960 N.ar  116  HIS116     -0.2212
     41  N        -34.5610    0.2150  -18.0840 N.3   135  GLY135     -0.1210
     42  CA       -33.7610    0.1130  -19.2910 C.3   135  GLY135      0.1956
     43  C        -34.2950    0.8680  -20.4940 C.2   135  GLY135      0.2612
     44  O        -34.8540    1.9520  -20.3690 O.2   135  GLY135     -0.2717
     45  N        -34.1220    0.2880  -21.6740 N.am  136  GLU136     -0.1965
     46  CA       -34.4250    0.9920  -22.9170 C.3   136  GLU136      0.1733
     47  C        -35.9300    1.0090  -23.2140 C.2   136  GLU136      0.2616
     48  O        -36.5280    2.0720  -23.3710 O.2   136  GLU136     -0.2715
     49  CB       -33.6230    0.3810  -24.0750 C.3   136  GLU136      0.0429
     50  CG       -33.5490    1.2350  -25.3220 C.3   136  GLU136      0.1163
     51  CD       -32.6360    2.4550  -25.1830 C.2   136  GLU136      0.3649
     52  OE1      -31.8240    2.5250  -24.2290 O.co2 136  GLU136     -0.2457
     53  OE2      -32.7330    3.3460  -26.0510 O.co2 136  GLU136     -0.2457
     54  N        -36.5510   -0.1640  -23.2550 N.am  137  LYS137     -0.1977
     55  CA       -37.9810   -0.2460  -23.5380 C.3   137  LYS137      0.1596
     56  C        -38.8530   -0.2100  -22.2810 C.2   137  LYS137      0.2287
     57  O        -40.0550   -0.4440  -22.3630 O.2   137  LYS137     -0.2864
     58  CB       -38.2980   -1.5150  -24.3210 C.3   137  LYS137      0.0298
     59  CG       -37.5750   -1.6470  -25.6500 C.3   137  LYS137      0.0038
     60  CD       -37.9870   -2.9520  -26.3390 C.3   137  LYS137      0.0206
     61  CE       -37.3470   -3.0850  -27.7170 C.3   137  LYS137      0.1093
     62  NZ       -35.8760   -3.3040  -27.6160 N.3   137  LYS137     -0.1314
     63  N        -37.2930   -3.6610  -16.6220 N.3   140  LEU140     -0.1245
     64  CA       -36.9920   -5.0950  -16.7520 C.3   140  LEU140      0.1561
     65  C        -36.7410   -5.6530  -15.3720 C.2   140  LEU140      0.2260
     66  O        -35.9500   -5.1060  -14.6090 O.2   140  LEU140     -0.2867
     67  CB       -35.7540   -5.3790  -17.6070 C.3   140  LEU140      0.0270
     68  CG       -35.5290   -4.8320  -19.0240 C.3   140  LEU140      0.0019
     69  CD1      -35.3310   -5.9810  -20.0070 C.3   140  LEU140      0.0001
     70  CD2      -36.6270   -3.8920  -19.4860 C.3   140  LEU140      0.0001
     71  N        -34.4100  -11.9250  -17.5040 N.3   153  ALA153     -0.1245
     72  CA       -34.6580  -10.4910  -17.4620 C.3   153  ALA153      0.1562
     73  C        -35.8530  -10.2080  -18.3580 C.2   153  ALA153      0.2260
     74  O        -35.8490  -10.5420  -19.5510 O.2   153  ALA153     -0.2867
     75  CB       -33.4360   -9.7270  -17.9390 C.3   153  ALA153      0.0290
     76  N        -39.2750   -7.6960  -19.6200 N.3   155  LEU155     -0.1245
     77  CA       -39.9080   -6.3830  -19.7480 C.3   155  LEU155      0.1561
     78  C        -41.3030   -6.4270  -19.1210 C.2   155  LEU155      0.2260
     79  O        -42.2460   -6.9290  -19.7410 O.2   155  LEU155     -0.2867
     80  CB       -40.0400   -6.0120  -21.2270 C.3   155  LEU155      0.0270
     81  CG       -39.9430   -4.5430  -21.6640 C.3   155  LEU155      0.0019
     82  CD1      -40.8780   -4.2550  -22.8040 C.3   155  LEU155      0.0001
     83  CD2      -40.2230   -3.5860  -20.5310 C.3   155  LEU155      0.0001
@<TRIPOS>BOND
     1    61    62    1
     2    61    60    1
     3    60    59    1
     4    53    51   ar
     5    59    58    1
     6    50    51    1
     7    50    49    1
     8    51    52   ar
     9    58    55    1
    10    49    46    1
    11    55    54    1
    12    55    56    1
    13    14    13    1
    14    14    15    1
    15    48    47    2
    16    54    47   am
    17    47    46    1
    18    13    11   am
    19    12    11    2
    20    11    10    1
    21    46    45    1
    22    16    15    2
    23     9    10    1
    24    82    81    1
    25    15    17   am
    26    57    56    2
    27    40    39   ar
    28    40    38   ar
    29    45    43   am
    30    81    80    1
    31    81    83    1
    32    39    37   ar
    33    80    77    1
    34    17    18    1
    35    43    44    2
    36    43    42    1
    37    38    36   ar
    38    37    36   ar
    39     8     6   am
    40    20    19    2
    41    18    19    1
    42    18    21    1
    43    69    68    1
    44     7     6    2
    45    77    76    1
    46    77    78    1
    47    79    78    2
    48     6     5    1
    49    23    25   ar
    50    23    22   ar
    51    74    73    2
    52    36    35    1
    53    70    68    1
    54    25    26   ar
    55    42    41    1
    56    68    67    1
    57    22    21    1
    58    22    24   ar
    59    26    24   ar
    60    26    28   ar
    61     5     2    1
    62     2     1    1
    63     2     3    1
    64    24    27   ar
    65    73    72    1
    66    28    30   ar
    67    31    32    1
    68    35    32    1
    69    75    72    1
    70    27    29   ar
    71    67    64    1
    72    30    29   ar
    73    71    72    1
    74     3     4    2
    75    32    33    1
    76    64    63    1
    77    64    65    1
    78    33    34    2
    79    65    66    2
