@<TRIPOS>MOLECULE
tmp/4tqkB02.pdb
 98 98 0 0 0
SMALL
GASTEIGER

@<TRIPOS>ATOM
      1  N        -42.9090    1.5140  -19.8000 N.3   159  ASP159     -0.1225
      2  CA       -42.8690    2.9020  -19.3970 C.3   159  ASP159      0.1805
      3  C        -41.6610    3.1110  -18.4980 C.2   159  ASP159      0.2597
      4  O        -41.0170    2.1470  -18.0760 O.2   159  ASP159     -0.2718
      5  CB       -44.1640    3.2980  -18.6790 C.3   159  ASP159      0.1424
      6  CG       -44.5550    4.7490  -18.9340 C.2   159  ASP159      0.3668
      7  OD1      -43.6820    5.5250  -19.3680 O.co2 159  ASP159     -0.2456
      8  OD2      -45.7280    5.1160  -18.7020 O.co2 159  ASP159     -0.2456
      9  N        -41.3540    4.3690  -18.2190 N.am  160  PHE160     -0.1976
     10  CA       -40.1680    4.7340  -17.4390 C.3   160  PHE160      0.1639
     11  C        -38.8570    4.2580  -18.0740 C.2   160  PHE160      0.2290
     12  O        -37.8620    4.0130  -17.3820 O.2   160  PHE160     -0.2864
     13  CB       -40.2560    4.2160  -16.0040 C.3   160  PHE160      0.0560
     14  CG       -41.5320    4.5720  -15.3030 C.ar  160  PHE160     -0.0200
     15  CD1      -41.7590    5.8640  -14.8730 C.ar  160  PHE160     -0.0042
     16  CD2      -42.4880    3.6020  -15.0430 C.ar  160  PHE160     -0.0042
     17  CE1      -42.9090    6.1900  -14.2080 C.ar  160  PHE160     -0.0003
     18  CE2      -43.6350    3.9160  -14.3910 C.ar  160  PHE160     -0.0003
     19  CZ       -43.8610    5.2140  -13.9730 C.ar  160  PHE160     -0.0000
     20  N        -41.2990    6.3540  -21.9090 N.3   165  GLY165     -0.1210
     21  CA       -41.1830    7.1770  -23.0940 C.3   165  GLY165      0.1956
     22  C        -40.4820    8.4790  -22.7250 C.2   165  GLY165      0.2612
     23  O        -41.0400    9.3430  -22.0540 O.2   165  GLY165     -0.2717
     24  N        -39.2300    8.5990  -23.1460 N.am  166  GLY166     -0.1942
     25  CA       -38.4890    9.8380  -23.0250 C.3   166  GLY166      0.2014
     26  C        -37.8170   10.0960  -21.6950 C.2   166  GLY166      0.2638
     27  O        -37.3820   11.2140  -21.4330 O.2   166  GLY166     -0.2714
     28  N        -37.7090    9.0770  -20.8480 N.am  167  TRP167     -0.1973
     29  CA       -37.1270    9.3020  -19.5310 C.3   167  TRP167      0.1640
     30  C        -35.6350    9.5940  -19.6390 C.2   167  TRP167      0.2290
     31  O        -34.9130    8.8990  -20.3520 O.2   167  TRP167     -0.2864
     32  CB       -37.4790    8.1690  -18.5670 C.3   167  TRP167      0.0576
     33  CG       -38.9300    8.2270  -18.2520 C.ar  167  TRP167      0.0006
     34  CD1      -39.9590    7.8710  -19.0740 C.ar  167  TRP167      0.0946
     35  CD2      -39.5330    8.7430  -17.0580 C.ar  167  TRP167      0.0152
     36  NE1      -41.1650    8.1000  -18.4540 N.ar  167  TRP167     -0.2442
     37  CE2      -40.9300    8.6410  -17.2160 C.ar  167  TRP167      0.0810
     38  CE3      -39.0250    9.2720  -15.8640 C.ar  167  TRP167      0.0012
     39  CZ2      -41.8240    9.0450  -16.2280 C.ar  167  TRP167      0.0191
     40  CZ3      -39.9130    9.6700  -14.8830 C.ar  167  TRP167      0.0001
     41  CH2      -41.2940    9.5560  -15.0680 C.ar  167  TRP167      0.0015
     42  N        -35.5970   13.8900  -15.3300 N.3   172  HIS172     -0.1241
     43  CA       -36.5530   13.1360  -14.5250 C.3   172  HIS172      0.1621
     44  C        -35.8930   12.3440  -13.4190 C.2   172  HIS172      0.2264
     45  O        -34.6770   12.1480  -13.4280 O.2   172  HIS172     -0.2867
     46  CB       -37.3170   12.1680  -15.4190 C.3   172  HIS172      0.0745
     47  CG       -37.7050   12.7630  -16.7320 C.ar  172  HIS172      0.0817
     48  ND1      -37.3530   12.2000  -17.9320 N.ar  172  HIS172     -0.2268
     49  CD2      -38.3830   13.9000  -17.0200 C.ar  172  HIS172      0.1154
     50  CE1      -37.8170   12.9540  -18.9170 C.ar  172  HIS172      0.1986
     51  NE2      -38.4390   13.9900  -18.3900 N.ar  172  HIS172     -0.2212
     52  N        -41.8110   12.9380  -13.9040 N.3   191  GLY191     -0.1210
     53  CA       -41.6790   13.0720  -15.3430 C.3   191  GLY191      0.1956
     54  C        -41.5480   14.5140  -15.7840 C.2   191  GLY191      0.2612
     55  O        -40.9390   15.3470  -15.1020 O.2   191  GLY191     -0.2717
     56  N        -42.1230   14.8170  -16.9350 N.am  192  ASP192     -0.1959
     57  CA       -42.0960   16.1790  -17.4410 C.3   192  ASP192      0.1840
     58  C        -43.1150   17.0400  -16.7210 C.2   192  ASP192      0.2622
     59  O        -42.7990   18.1480  -16.2750 O.2   192  ASP192     -0.2715
     60  CB       -42.3340   16.2100  -18.9500 C.3   192  ASP192      0.1450
     61  CG       -41.0530   16.0140  -19.7470 C.2   192  ASP192      0.3671
     62  OD1      -39.9500   16.1170  -19.1720 O.co2 192  ASP192     -0.2456
     63  OD2      -41.1410   15.7860  -20.9620 O.co2 192  ASP192     -0.2456
     64  N        -44.3300   16.5200  -16.5770 N.am  193  LYS193     -0.1963
     65  CA       -45.4340   17.3270  -16.0600 C.3   193  LYS193      0.1728
     66  C        -46.1820   16.6970  -14.8980 C.2   193  LYS193      0.2616
     67  O        -47.1110   17.2980  -14.3650 O.2   193  LYS193     -0.2715
     68  CB       -46.4180   17.6610  -17.1880 C.3   193  LYS193      0.0311
     69  CG       -45.7510   18.2290  -18.4350 C.3   193  LYS193      0.0038
     70  CD       -46.7720   18.7530  -19.4200 C.3   193  LYS193      0.0206
     71  CE       -47.3420   20.0700  -18.9380 C.3   193  LYS193      0.1093
     72  NZ       -46.2520   21.0650  -18.7720 N.3   193  LYS193     -0.1314
     73  N        -45.7890   15.4900  -14.5100 N.am  194  HIS194     -0.1973
     74  CA       -46.5020   14.7640  -13.4570 C.3   194  HIS194      0.1656
     75  C        -45.5940   13.8120  -12.7120 C.2   194  HIS194      0.2291
     76  O        -44.7470   13.1540  -13.3140 O.2   194  HIS194     -0.2864
     77  CB       -47.6680   13.9610  -14.0550 C.3   194  HIS194      0.0771
     78  CG       -48.5510   14.7670  -14.9450 C.ar  194  HIS194      0.0820
     79  ND1      -49.5320   15.6100  -14.4600 N.ar  194  HIS194     -0.2267
     80  CD2      -48.5830   14.8980  -16.2930 C.ar  194  HIS194      0.1154
     81  CE1      -50.1350   16.2090  -15.4670 C.ar  194  HIS194      0.1986
     82  NE2      -49.5770   15.7910  -16.5940 N.ar  194  HIS194     -0.2212
     83  N        -45.6840   10.3410  -11.3970 N.3   196  PHE196     -0.1241
     84  CA       -46.4760    9.1640  -11.7310 C.3   196  PHE196      0.1605
     85  C        -46.2360    8.0710  -10.6980 C.2   196  PHE196      0.2264
     86  O        -45.1200    7.9050  -10.2140 O.2   196  PHE196     -0.2867
     87  CB       -46.0730    8.6250  -13.1090 C.3   196  PHE196      0.0534
     88  CG       -46.4020    9.5510  -14.2470 C.ar  196  PHE196     -0.0203
     89  CD1      -47.6280    9.4700  -14.8910 C.ar  196  PHE196     -0.0042
     90  CD2      -45.4860   10.5030  -14.6750 C.ar  196  PHE196     -0.0042
     91  CE1      -47.9310   10.3250  -15.9350 C.ar  196  PHE196     -0.0003
     92  CE2      -45.7870   11.3560  -15.7220 C.ar  196  PHE196     -0.0003
     93  CZ       -47.0130   11.2660  -16.3520 C.ar  196  PHE196     -0.0000
     94  N        -48.5810    3.3600  -15.4110 N.3   209  ALA209     -0.1245
     95  CA       -48.3880    4.5950  -14.6460 C.3   209  ALA209      0.1562
     96  C        -49.6570    5.4450  -14.5640 C.2   209  ALA209      0.2260
     97  O        -50.3690    5.6040  -15.5430 O.2   209  ALA209     -0.2867
     98  CB       -47.2510    5.4020  -15.2360 C.3   209  ALA209      0.0290
@<TRIPOS>BOND
     1    24    25    1
     2    24    22   am
     3    21    22    1
     4    21    20    1
     5    25    26    1
     6    22    23    2
     7    26    27    2
     8    26    28   am
     9    63    61   ar
    10    28    29    1
    11    31    30    2
    12     1     2    1
    13    61    62   ar
    14    61    60    1
    15    30    29    1
    16    29    32    1
    17    70    71    1
    18    70    69    1
    19     2     5    1
    20     2     3    1
    21     7     6   ar
    22    34    36   ar
    23    34    33   ar
    24    60    57    1
    25    71    72    1
    26     6     8   ar
    27     6     5    1
    28    50    51   ar
    29    50    48   ar
    30    32    33    1
    31     3     9   am
    32     3     4    2
    33    36    37   ar
    34    69    68    1
    35    51    49   ar
    36    33    35   ar
    37     9    10    1
    38    11    10    1
    39    11    12    2
    40    48    47   ar
    41    57    56    1
    42    57    58    1
    43    10    13    1
    44    37    35   ar
    45    37    39   ar
    46    68    65    1
    47    35    38   ar
    48    49    47   ar
    49    56    54   am
    50    47    46    1
    51    58    64   am
    52    58    59    2
    53    82    80   ar
    54    82    81   ar
    55    64    65    1
    56    93    91   ar
    57    93    92   ar
    58    80    78   ar
    59    39    41   ar
    60    65    66    1
    61    13    14    1
    62    91    89   ar
    63    38    40   ar
    64    54    53    1
    65    54    55    2
    66    92    90   ar
    67    97    96    2
    68    81    79   ar
    69    46    43    1
    70    94    95    1
    71    53    52    1
    72    42    43    1
    73    14    16   ar
    74    14    15   ar
    75    98    95    1
    76    41    40   ar
    77    16    18   ar
    78    78    79   ar
    79    78    77    1
    80    66    73   am
    81    66    67    2
    82    89    88   ar
    83    15    17   ar
    84    90    88   ar
    85    95    96    1
    86    43    44    1
    87    73    74    1
    88    18    19   ar
    89    88    87    1
    90    17    19   ar
    91    77    74    1
    92    74    75    1
    93    45    44    2
    94    76    75    2
    95    87    84    1
    96    84    83    1
    97    84    85    1
    98    85    86    2
