@<TRIPOS>MOLECULE
tmp/4tqkB00.pdb
 83 83 0 0 0
SMALL
GASTEIGER

@<TRIPOS>ATOM
      1  N        -11.8200   -7.8690   -5.9260 N.3    46  ASN46      -0.1240
      2  CA       -12.5730   -7.7330   -7.1690 C.3    46  ASN46       0.1653
      3  C        -13.4450   -6.4850   -7.0810 C.2    46  ASN46       0.2266
      4  O        -13.3310   -5.7080   -6.1260 O.2    46  ASN46      -0.2867
      5  CB       -13.4400   -8.9790   -7.4230 C.3    46  ASN46       0.1155
      6  CG       -13.4980   -9.3640   -8.8980 C.2    46  ASN46       0.2627
      7  OD1      -13.5770   -8.5070   -9.7710 O.2    46  ASN46      -0.2716
      8  ND2      -13.4280  -10.6590   -9.1770 N.am   46  ASN46      -0.0877
      9  N        -10.3560   -6.4190  -11.4650 N.3    52  GLY52      -0.1210
     10  CA       -11.5910   -6.7620  -12.1490 C.3    52  GLY52       0.1956
     11  C        -11.9610   -5.7670  -13.2380 C.2    52  GLY52       0.2612
     12  O        -12.8270   -6.0420  -14.0700 O.2    52  GLY52      -0.2717
     13  N        -11.3130   -4.6060  -13.2370 N.am   53  GLY53      -0.1942
     14  CA       -11.5470   -3.6130  -14.2700 C.3    53  GLY53       0.2014
     15  C        -12.8650   -2.8580  -14.1400 C.2    53  GLY53       0.2638
     16  O        -13.4600   -2.4410  -15.1410 O.2    53  GLY53      -0.2714
     17  N        -13.3150   -2.6680  -12.9030 N.am   54  TRP54      -0.1973
     18  CA       -14.5780   -1.9810  -12.6350 C.3    54  TRP54       0.1640
     19  C        -14.4440   -0.4550  -12.6730 C.2    54  TRP54       0.2290
     20  O        -13.5560    0.1270  -12.0490 O.2    54  TRP54      -0.2864
     21  CB       -15.1770   -2.4560  -11.3030 C.3    54  TRP54       0.0576
     22  CG       -15.5450   -3.9180  -11.3290 C.ar   54  TRP54       0.0006
     23  CD1      -14.6840   -4.9780  -11.2990 C.ar   54  TRP54       0.0946
     24  CD2      -16.8680   -4.4770  -11.4160 C.ar   54  TRP54       0.0152
     25  NE1      -15.3870   -6.1600  -11.3570 N.ar   54  TRP54      -0.2442
     26  CE2      -16.7270   -5.8810  -11.4290 C.ar   54  TRP54       0.0810
     27  CE3      -18.1530   -3.9280  -11.4860 C.ar   54  TRP54       0.0012
     28  CZ2      -17.8270   -6.7450  -11.5010 C.ar   54  TRP54       0.0191
     29  CZ3      -19.2480   -4.7920  -11.5660 C.ar   54  TRP54       0.0001
     30  CH2      -19.0770   -6.1810  -11.5620 C.ar   54  TRP54       0.0015
     31  N        -20.0980    0.7720  -14.7330 N.3    59  HIS59      -0.1241
     32  CA       -20.5590   -0.2840  -13.8420 C.3    59  HIS59       0.1621
     33  C        -21.2990    0.2330  -12.6250 C.2    59  HIS59       0.2264
     34  O        -21.1390    1.3980  -12.2470 O.2    59  HIS59      -0.2867
     35  CB       -19.3730   -1.1590  -13.4300 C.3    59  HIS59       0.0745
     36  CG       -18.5920   -1.6690  -14.5960 C.ar   59  HIS59       0.0817
     37  ND1      -17.2730   -1.3350  -14.8180 N.ar   59  HIS59      -0.2268
     38  CD2      -18.9620   -2.4500  -15.6350 C.ar   59  HIS59       0.1154
     39  CE1      -16.8590   -1.9120  -15.9320 C.ar   59  HIS59       0.1986
     40  NE2      -17.8680   -2.5910  -16.4500 N.ar   59  HIS59      -0.2212
     41  N        -21.3660   -5.8080  -14.0500 N.3    78  GLY78      -0.1210
     42  CA       -20.1640   -5.6090  -14.8310 C.3    78  GLY78       0.1956
     43  C        -20.4820   -5.5930  -16.3050 C.2    78  GLY78       0.2612
     44  O        -21.5300   -5.1020  -16.7200 O.2    78  GLY78      -0.2717
     45  N        -19.5720   -6.1540  -17.0900 N.am   79  ASN79      -0.1960
     46  CA       -19.6840   -6.1490  -18.5360 C.3    79  ASN79       0.1819
     47  C        -20.5640   -7.2730  -19.0370 C.2    79  ASN79       0.2621
     48  O        -21.5040   -7.0400  -19.7920 O.2    79  ASN79      -0.2715
     49  CB       -18.3000   -6.2770  -19.1650 C.3    79  ASN79       0.1195
     50  CG       -17.4660   -5.0370  -18.9770 C.2    79  ASN79       0.2630
     51  OD1      -17.9980   -3.9290  -18.8590 O.2    79  ASN79      -0.2716
     52  ND2      -16.1450   -5.2130  -18.9440 N.am   79  ASN79      -0.0877
     53  N        -20.2450   -8.4930  -18.6120 N.am   80  ALA80      -0.1977
     54  CA       -20.9260   -9.6920  -19.0980 C.3    80  ALA80       0.1597
     55  C        -22.1880  -10.0280  -18.3100 C.2    80  ALA80       0.2287
     56  O        -22.9380  -10.9270  -18.6890 O.2    80  ALA80      -0.2864
     57  CB       -19.9670  -10.8760  -19.0820 C.3    80  ALA80       0.0319
     58  N        -22.4880   -9.8800  -10.9780 N.3    83  TYR83      -0.1241
     59  CA       -21.5490  -10.6880  -10.1910 C.3    83  TYR83       0.1605
     60  C        -21.8630  -10.5750   -8.7140 C.2    83  TYR83       0.2264
     61  O        -21.9580   -9.4700   -8.1960 O.2    83  TYR83      -0.2867
     62  CB       -20.1030  -10.2100  -10.4100 C.3    83  TYR83       0.0534
     63  CG       -19.5330  -10.5760  -11.7580 C.ar   83  TYR83      -0.0201
     64  CD1      -18.6510  -11.6430  -11.8940 C.ar   83  TYR83      -0.0009
     65  CD2      -19.8870   -9.8690  -12.8980 C.ar   83  TYR83      -0.0009
     66  CE1      -18.1240  -11.9910  -13.1330 C.ar   83  TYR83       0.0417
     67  CE2      -19.3720  -10.1990  -14.1280 C.ar   83  TYR83       0.0417
     68  CZ       -18.4890  -11.2680  -14.2470 C.ar   83  TYR83       0.1957
     69  OH       -17.9720  -11.6090  -15.4770 O.3    83  TYR83      -0.2866
     70  N        -13.3230  -15.8120   -5.6130 N.3    96  PRO96      -0.2103
     71  CA       -13.9980  -14.8380   -6.4790 C.3    96  PRO96       0.1489
     72  C        -15.5230  -14.9330   -6.4600 C.2    96  PRO96       0.2417
     73  O        -16.0940  -15.9520   -6.0320 O.2    96  PRO96      -0.2734
     74  CB       -13.4940  -15.2270   -7.8690 C.3    96  PRO96       0.0282
     75  CG       -13.3860  -16.7280   -7.7870 C.3    96  PRO96       0.0208
     76  CD       -12.9400  -17.0270   -6.3580 C.3    96  PRO96       0.0893
     77  N        -16.1820  -13.8710   -6.9500 N.am   97  PRO97      -0.2729
     78  CA       -17.6400  -13.8050   -7.0680 C.3    97  PRO97       0.1401
     79  C        -18.1560  -14.7530   -8.1350 C.2    97  PRO97       0.2269
     80  O        -17.3610  -15.3160   -8.8950 O.2    97  PRO97      -0.2865
     81  CB       -17.8810  -12.3690   -7.5090 C.3    97  PRO97       0.0296
     82  CG       -16.6530  -12.0130   -8.2640 C.3    97  PRO97       0.0237
     83  CD       -15.5370  -12.6660   -7.5020 C.3    97  PRO97       0.0939
@<TRIPOS>BOND
     1    48    47    2
     2    49    50    1
     3    49    46    1
     4    54    57    1
     5    54    53    1
     6    54    55    1
     7    47    53   am
     8    47    46    1
     9    50    52   am
    10    50    51    2
    11    56    55    2
    12    46    45    1
    13    45    43   am
    14    44    43    2
    15    40    39   ar
    16    40    38   ar
    17    43    42    1
    18    39    37   ar
    19    38    36   ar
    20    69    68    1
    21    16    15    2
    22    42    41    1
    23    37    36   ar
    24    31    32    1
    25    36    35    1
    26    14    15    1
    27    14    13    1
    28    68    67   ar
    29    68    66   ar
    30    15    17   am
    31    67    65   ar
    32    12    11    2
    33    32    35    1
    34    32    33    1
    35    11    13   am
    36    11    10    1
    37    66    64   ar
    38    17    18    1
    39    65    63   ar
    40    19    18    1
    41    19    20    2
    42    18    21    1
    43    33    34    2
    44    10     9    1
    45    64    63   ar
    46    63    62    1
    47    29    30   ar
    48    29    27   ar
    49    30    28   ar
    50    28    26   ar
    51    27    24   ar
    52    26    24   ar
    53    26    25   ar
    54    24    22   ar
    55    25    23   ar
    56    22    21    1
    57    22    23   ar
    58    58    59    1
    59    62    59    1
    60    59    60    1
    61     7     6    2
    62     8     6   am
    63     6     5    1
    64    80    79    2
    65    60    61    2
    66    82    81    1
    67    82    83    1
    68    79    78    1
    69    74    75    1
    70    74    71    1
    71    75    76    1
    72    81    78    1
    73    83    77    1
    74     5     2    1
    75     2     3    1
    76     2     1    1
    77     3     4    2
    78    78    77    1
    79    77    72   am
    80    71    72    1
    81    71    70    1
    82    72    73    2
    83    76    70    1
