@<TRIPOS>MOLECULE
tmp/4tqmA08.pdb
 79 78 0 0 0
SMALL
GASTEIGER

@<TRIPOS>ATOM
      1  N          9.2870   -6.2970  -40.7850 N.3   214  ASN214     -0.1240
      2  CA        10.7250   -6.3390  -40.5550 C.3   214  ASN214      0.1653
      3  C         10.9670   -6.9430  -39.1750 C.2   214  ASN214      0.2266
      4  O         10.0100   -7.3020  -38.4870 O.2   214  ASN214     -0.2867
      5  CB        11.3060   -4.9230  -40.6250 C.3   214  ASN214      0.1155
      6  CG        12.6740   -4.8770  -41.2840 C.2   214  ASN214      0.2627
      7  OD1       13.5660   -5.6610  -40.9590 O.2   214  ASN214     -0.2716
      8  ND2       12.8430   -3.9530  -42.2240 N.am  214  ASN214     -0.0877
      9  N         13.4810   -9.7860  -43.2070 N.3   220  GLY220     -0.1210
     10  CA        14.7410   -9.1620  -42.8460 C.3   220  GLY220      0.1956
     11  C         15.7970  -10.1740  -42.4360 C.2   220  GLY220      0.2612
     12  O         16.9630   -9.8180  -42.2360 O.2   220  GLY220     -0.2717
     13  N         15.3880  -11.4350  -42.3110 N.am  221  GLY221     -0.1942
     14  CA        16.3000  -12.5030  -41.9420 C.3   221  GLY221      0.2014
     15  C         16.8150  -12.4160  -40.5130 C.2   221  GLY221      0.2638
     16  O         17.9810  -12.7160  -40.2480 O.2   221  GLY221     -0.2714
     17  N         15.9510  -12.0050  -39.5910 N.am  222  TRP222     -0.1973
     18  CA        16.3310  -11.8920  -38.1810 C.3   222  TRP222      0.1640
     19  C         16.2110  -13.2300  -37.4550 C.2   222  TRP222      0.2290
     20  O         15.1310  -13.8120  -37.3820 O.2   222  TRP222     -0.2864
     21  CB        15.4800  -10.8310  -37.4820 C.3   222  TRP222      0.0576
     22  CG        15.7650   -9.4450  -37.9730 C.ar  222  TRP222      0.0006
     23  CD1       15.4170   -8.9160  -39.1830 C.ar  222  TRP222      0.0946
     24  CD2       16.4650   -8.4140  -37.2700 C.ar  222  TRP222      0.0152
     25  NE1       15.8570   -7.6180  -39.2770 N.ar  222  TRP222     -0.2442
     26  CE2       16.5040   -7.2840  -38.1140 C.ar  222  TRP222      0.0810
     27  CE3       17.0620   -8.3310  -36.0090 C.ar  222  TRP222      0.0012
     28  CZ2       17.1150   -6.0920  -37.7370 C.ar  222  TRP222      0.0191
     29  CZ3       17.6700   -7.1500  -35.6380 C.ar  222  TRP222      0.0001
     30  CH2       17.6930   -6.0450  -36.4980 C.ar  222  TRP222      0.0015
     31  N         20.5470  -12.2790  -33.8150 N.3   227  HIS227     -0.1241
     32  CA        20.1000  -10.9050  -33.9980 C.3   227  HIS227      0.1621
     33  C         19.0780  -10.5240  -32.9290 C.2   227  HIS227      0.2264
     34  O         17.8700  -10.5400  -33.1790 O.2   227  HIS227     -0.2867
     35  CB        19.4980  -10.7360  -35.3930 C.3   227  HIS227      0.0745
     36  CG        20.3320  -11.3260  -36.4880 C.ar  227  HIS227      0.0817
     37  ND1       19.8890  -12.3480  -37.2980 N.ar  227  HIS227     -0.2268
     38  CD2       21.5940  -11.0420  -36.9030 C.ar  227  HIS227      0.1154
     39  CE1       20.8320  -12.6650  -38.1690 C.ar  227  HIS227      0.1986
     40  NE2       21.8760  -11.8830  -37.9470 N.ar  227  HIS227     -0.2212
     41  N         21.0570   -6.1400  -35.8290 N.3   246  GLY246     -0.1210
     42  CA        21.0740   -6.9690  -37.0200 C.3   246  GLY246      0.1956
     43  C         22.4720   -7.3240  -37.4850 C.2   246  GLY246      0.2612
     44  O         23.3750   -7.5290  -36.6720 O.2   246  GLY246     -0.2717
     45  N         22.6470   -7.4070  -38.8010 N.am  247  LYS247     -0.1965
     46  CA        23.9410   -7.7450  -39.3790 C.3   247  LYS247      0.1728
     47  C         24.8780   -6.5400  -39.4500 C.2   247  LYS247      0.2616
     48  O         25.9720   -6.5670  -38.8890 O.2   247  LYS247     -0.2715
     49  CB        23.7630   -8.3680  -40.7680 C.3   247  LYS247      0.0311
     50  CG        23.1580   -9.7620  -40.7310 C.3   247  LYS247      0.0038
     51  CD        22.7320  -10.2330  -42.1090 C.3   247  LYS247      0.0206
     52  CE        22.1120  -11.6180  -42.0370 C.3   247  LYS247      0.1093
     53  NZ        21.5860  -12.0680  -43.3550 N.3   247  LYS247     -0.1314
     54  N         24.4410   -5.4820  -40.1280 N.am  248  ALA248     -0.1977
     55  CA        25.2830   -4.3040  -40.3370 C.3   248  ALA248      0.1597
     56  C         25.2210   -3.3130  -39.1790 C.2   248  ALA248      0.2287
     57  O         25.9160   -2.2950  -39.1880 O.2   248  ALA248     -0.2864
     58  CB        24.9200   -3.6090  -41.6490 C.3   248  ALA248      0.0319
     59  N         19.1200   -1.4910  -35.9100 N.3   251  TRP251     -0.1241
     60  CA        18.0040   -0.9180  -36.6480 C.3   251  TRP251      0.1605
     61  C         16.8940   -0.5240  -35.6840 C.2   251  TRP251      0.2264
     62  O         16.5760   -1.2630  -34.7510 O.2   251  TRP251     -0.2867
     63  CB        17.4580   -1.9150  -37.6690 C.3   251  TRP251      0.0550
     64  CG        18.4260   -2.3090  -38.7410 C.ar  251  TRP251      0.0003
     65  CD1       19.3880   -3.2710  -38.6620 C.ar  251  TRP251      0.0946
     66  CD2       18.5030   -1.7730  -40.0680 C.ar  251  TRP251      0.0152
     67  NE1       20.0680   -3.3610  -39.8520 N.ar  251  TRP251     -0.2442
     68  CE2       19.5450   -2.4490  -40.7330 C.ar  251  TRP251      0.0810
     69  CE3       17.7990   -0.7800  -40.7570 C.ar  251  TRP251      0.0012
     70  CZ2       19.8990   -2.1690  -42.0510 C.ar  251  TRP251      0.0191
     71  CZ3       18.1520   -0.5020  -42.0680 C.ar  251  TRP251      0.0001
     72  CH2       19.1920   -1.1930  -42.7000 C.ar  251  TRP251      0.0015
     73  N         11.9330    1.4860  -40.5980 N.3   264  VAL264     -0.1245
     74  CA        13.1000    0.8590  -39.9840 C.3   264  VAL264      0.1561
     75  C         14.3960    1.4750  -40.5050 C.2   264  VAL264      0.2260
     76  O         14.6790    1.4290  -41.7050 O.2   264  VAL264     -0.2867
     77  CB        13.1080   -0.6600  -40.2430 C.3   264  VAL264      0.0252
     78  CG1       14.3300   -1.3100  -39.6110 C.3   264  VAL264      0.0019
     79  CG2       11.8290   -1.2900  -39.7110 C.3   264  VAL264      0.0019
@<TRIPOS>BOND
     1    53    52    1
     2     9    10    1
     3    10    11    1
     4    72    71   ar
     5    72    70   ar
     6    11    13   am
     7    11    12    2
     8    13    14    1
     9     8     6   am
    10    51    52    1
    11    51    50    1
    12    71    69   ar
    13    70    68   ar
    14    14    15    1
    15    76    75    2
    16    58    55    1
    17     6     7    2
    18     6     5    1
    19     1     2    1
    20    49    50    1
    21    49    46    1
    22    69    66   ar
    23    68    66   ar
    24    68    67   ar
    25     5     2    1
    26    73    74    1
    27     2     3    1
    28    15    16    2
    29    15    17   am
    30    75    74    1
    31    55    54    1
    32    55    56    1
    33    77    74    1
    34    77    79    1
    35    77    78    1
    36    54    47   am
    37    66    64   ar
    38    67    65   ar
    39    17    18    1
    40    47    46    1
    41    47    48    2
    42    46    45    1
    43    25    23   ar
    44    25    26   ar
    45    57    56    2
    46    23    22   ar
    47     3     4    2
    48    45    43   am
    49    64    65   ar
    50    64    63    1
    51    18    21    1
    52    18    19    1
    53    39    40   ar
    54    39    37   ar
    55    26    28   ar
    56    26    24   ar
    57    22    21    1
    58    22    24   ar
    59    40    38   ar
    60    28    30   ar
    61    63    60    1
    62    43    42    1
    63    43    44    2
    64    19    20    2
    65    37    36   ar
    66    24    27   ar
    67    42    41    1
    68    38    36   ar
    69    60    59    1
    70    60    61    1
    71    30    29   ar
    72    36    35    1
    73    27    29   ar
    74    61    62    2
    75    35    32    1
    76    32    31    1
    77    32    33    1
    78    34    33    2
