@<TRIPOS>MOLECULE
tmp/4tqnA00.pdb
 120 114 0 0 0
SMALL
GASTEIGER

@<TRIPOS>ATOM
      1  N        -13.7230   -3.4750  -10.2990 N.3    26  LEU26      -0.1231
      2  CA       -15.0150   -3.2540   -9.6400 C.3    26  LEU26       0.1678
      3  C        -14.9190   -2.5210   -8.2920 C.2    26  LEU26       0.2434
      4  O        -15.7490   -1.6390   -8.0230 O.2    26  LEU26      -0.2733
      5  CB       -15.7660   -4.5740   -9.4630 C.3    26  LEU26       0.0284
      6  CG       -16.0360   -5.2280  -10.8170 C.3    26  LEU26       0.0019
      7  CD1      -16.8850   -6.4610  -10.6320 C.3    26  LEU26       0.0001
      8  CD2      -16.6990   -4.2300  -11.7560 C.3    26  LEU26       0.0001
      9  N        -13.9150   -2.8480   -7.4480 N.am   27  PRO27      -0.2718
     10  CA       -13.8460   -2.0830   -6.1960 C.3    27  PRO27       0.1535
     11  C        -13.4250   -0.6420   -6.3640 C.2    27  PRO27       0.2598
     12  O        -13.4150    0.0870   -5.3830 O.2    27  PRO27      -0.2715
     13  CB       -12.7650   -2.8190   -5.3880 C.3    27  PRO27       0.0310
     14  CG       -12.7540   -4.1990   -5.9540 C.3    27  PRO27       0.0237
     15  CD       -12.9920   -4.0010   -7.4220 C.3    27  PRO27       0.0939
     16  N        -13.0720   -0.2490   -7.5800 N.am   28  PHE28      -0.1974
     17  CA       -12.4420    1.0490   -7.7990 C.3    28  PHE28       0.1639
     18  C        -13.2830    1.9610   -8.6680 C.2    28  PHE28       0.2290
     19  O        -12.9090    3.0990   -8.9120 O.2    28  PHE28      -0.2864
     20  CB       -11.0690    0.8610   -8.4280 C.3    28  PHE28       0.0560
     21  CG       -10.1410    0.0620   -7.5750 C.ar   28  PHE28      -0.0200
     22  CD1       -9.3500    0.6930   -6.6430 C.ar   28  PHE28      -0.0042
     23  CD2      -10.0910   -1.3210   -7.6750 C.ar   28  PHE28      -0.0042
     24  CE1       -8.4870   -0.0370   -5.8390 C.ar   28  PHE28      -0.0003
     25  CE2       -9.2300   -2.0590   -6.8700 C.ar   28  PHE28      -0.0003
     26  CZ        -8.4370   -1.4150   -5.9470 C.ar   28  PHE28      -0.0000
     27  N        -15.2900    4.7710   -2.4340 N.3    32  VAL32      -0.1245
     28  CA       -15.5130    3.9040   -1.2890 C.3    32  VAL32       0.1561
     29  C        -16.5910    4.5110   -0.3990 C.2    32  VAL32       0.2260
     30  O        -16.4820    5.6750   -0.0140 O.2    32  VAL32      -0.2867
     31  CB       -14.2180    3.7140   -0.4760 C.3    32  VAL32       0.0252
     32  CG1      -14.5300    3.1840    0.9120 C.3    32  VAL32       0.0019
     33  CG2      -13.2650    2.7880   -1.2080 C.3    32  VAL32       0.0019
     34  N        -19.7920   -0.7610    2.7750 N.3    37  LEU37      -0.1245
     35  CA       -18.7460   -1.7480    2.5530 C.3    37  LEU37       0.1561
     36  C        -18.2870   -2.3980    3.8390 C.2    37  LEU37       0.2260
     37  O        -17.4480   -3.2980    3.8120 O.2    37  LEU37      -0.2867
     38  CB       -17.5660   -1.1030    1.8440 C.3    37  LEU37       0.0270
     39  CG       -17.8960   -0.6840    0.4160 C.3    37  LEU37       0.0019
     40  CD1      -16.7420    0.0420   -0.2100 C.3    37  LEU37       0.0001
     41  CD2      -18.2780   -1.9000   -0.4140 C.3    37  LEU37       0.0001
     42  N        -16.6290   -1.0260    6.3240 N.3    39  ILE39      -0.1245
     43  CA       -15.2840   -0.5820    6.6830 C.3    39  ILE39       0.1561
     44  C        -15.3330    0.8020    7.3080 C.2    39  ILE39       0.2260
     45  O        -14.8090    1.7740    6.7490 O.2    39  ILE39      -0.2867
     46  CB       -14.3490   -0.6030    5.4630 C.3    39  ILE39       0.0252
     47  CG1      -15.0100    0.0410    4.2480 C.3    39  ILE39       0.0019
     48  CG2      -13.9820   -2.0470    5.1320 C.3    39  ILE39       0.0019
     49  CD1      -14.1640    0.0180    3.0090 C.3    39  ILE39       0.0001
     50  N        -12.6740    3.6500    7.4990 N.3    42  TYR42      -0.1241
     51  CA       -11.9710    3.9240    6.2540 C.3    42  TYR42       0.1605
     52  C        -11.5260    5.3820    6.1620 C.2    42  TYR42       0.2264
     53  O        -10.3810    5.6570    5.8110 O.2    42  TYR42      -0.2867
     54  CB       -12.8450    3.5530    5.0550 C.3    42  TYR42       0.0534
     55  CG       -12.1600    3.7770    3.7330 C.ar   42  TYR42      -0.0201
     56  CD1      -11.3060    2.8170    3.2020 C.ar   42  TYR42      -0.0009
     57  CD2      -12.3690    4.9470    3.0120 C.ar   42  TYR42      -0.0009
     58  CE1      -10.6820    3.0190    1.9880 C.ar   42  TYR42       0.0417
     59  CE2      -11.7450    5.1600    1.8100 C.ar   42  TYR42       0.0417
     60  CZ       -10.9080    4.1900    1.3000 C.ar   42  TYR42       0.1957
     61  OH       -10.2800    4.3970    0.1020 O.3    42  TYR42      -0.2866
     62  N         -9.7010    8.3320   -3.5110 N.3    50  MET50      -0.1245
     63  CA        -9.6520    8.5070   -4.9430 C.3    50  MET50       0.1570
     64  C        -10.1780    7.2440   -5.5870 C.2    50  MET50       0.2261
     65  O         -9.9350    6.1490   -5.0860 O.2    50  MET50      -0.2867
     66  CB        -8.2190    8.8080   -5.4010 C.3    50  MET50       0.0387
     67  CG        -8.0880    9.1630   -6.8820 C.3    50  MET50       0.0595
     68  SD        -9.0640   10.6100   -7.3980 S.3    50  MET50      -0.1393
     69  CE        -8.5230   11.8760   -6.2480 C.3    50  MET50       0.0692
     70  N         -5.0000    6.3740   -5.8250 N.3    77  MET77      -0.1245
     71  CA        -6.0400    5.3670   -5.7130 C.3    77  MET77       0.1570
     72  C         -5.4550    4.0070   -5.3230 C.2    77  MET77       0.2261
     73  O         -5.9580    3.3450   -4.4190 O.2    77  MET77      -0.2867
     74  CB        -6.8060    5.2670   -7.0270 C.3    77  MET77       0.0387
     75  CG        -7.8520    4.1850   -7.0160 C.3    77  MET77       0.0595
     76  SD        -8.6560    4.1320   -8.6260 S.3    77  MET77      -0.1393
     77  CE        -7.3420    3.4030   -9.5950 C.3    77  MET77       0.0692
     78  N         -5.7300    1.8890   -1.4310 N.3    81  ALA81      -0.1245
     79  CA        -6.2270    0.5230   -1.3310 C.3    81  ALA81       0.1562
     80  C         -5.1960   -0.4030   -0.6890 C.2    81  ALA81       0.2260
     81  O         -5.5410   -1.2800    0.1230 O.2    81  ALA81      -0.2867
     82  CB        -6.6160    0.0060   -2.7240 C.3    81  ALA81       0.0290
     83  N         -5.1920    0.6350    3.1280 N.3    84  TYR84      -0.1227
     84  CA        -6.3180    0.2490    3.9600 C.3    84  TYR84       0.1736
     85  C         -6.4910   -1.2560    4.0890 C.2    84  TYR84       0.2595
     86  O         -6.7820   -1.7790    5.1770 O.2    84  TYR84      -0.2718
     87  CB        -7.6300    0.8630    3.4360 C.3    84  TYR84       0.0548
     88  CG        -8.7290    0.5030    4.3820 C.ar   84  TYR84      -0.0200
     89  CD1       -8.8520    1.1660    5.6000 C.ar   84  TYR84      -0.0009
     90  CD2       -9.5840   -0.5640    4.1190 C.ar   84  TYR84      -0.0009
     91  CE1       -9.8240    0.7890    6.5210 C.ar   84  TYR84       0.0417
     92  CE2      -10.5470   -0.9440    5.0320 C.ar   84  TYR84       0.0417
     93  CZ       -10.6630   -0.2650    6.2260 C.ar   84  TYR84       0.1957
     94  OH       -11.6070   -0.6540    7.1370 O.3    84  TYR84      -0.2866
     95  N         -6.3230   -1.9570    2.9820 N.am   85  ASN85      -0.1974
     96  CA        -6.6480   -3.3630    2.9430 C.3    85  ASN85       0.1688
     97  C         -5.4780   -4.2680    3.2690 C.2    85  ASN85       0.2292
     98  O         -4.3260   -3.8990    3.0390 O.2    85  ASN85      -0.2864
     99  CB        -7.1900   -3.6980    1.5660 C.3    85  ASN85       0.1181
    100  CG        -8.4350   -2.9270    1.2560 C.2    85  ASN85       0.2629
    101  OD1       -9.5210   -3.2770    1.7170 O.2    85  ASN85      -0.2716
    102  ND2       -8.2950   -1.8740    0.4720 N.am   85  ASN85      -0.0877
    103  N         -9.1940   -9.3810   -1.2540 N.3    90  ARG90      -0.1231
    104  CA        -9.5760   -9.3300   -2.6500 C.3    90  ARG90       0.1694
    105  C         -9.2170   -7.9740   -3.2530 C.2    90  ARG90       0.2591
    106  O         -8.7080   -7.8690   -4.3670 O.2    90  ARG90      -0.2718
    107  CB       -11.0790   -9.5820   -2.7500 C.3    90  ARG90       0.0321
    108  CG       -11.6730   -9.5430   -4.1360 C.3    90  ARG90       0.0489
    109  CD       -13.1180   -9.9240   -3.9900 C.3    90  ARG90       0.2205
    110  NE       -13.8050  -10.0280   -5.2700 N.pl3  90  ARG90      -0.0865
    111  CZ       -14.4650   -9.0310   -5.8460 C.cat  90  ARG90       0.5346
    112  NH1      -14.5140   -7.8290   -5.2670 N.pl3  90  ARG90       0.1354
    113  NH2      -15.0690   -9.2420   -7.0110 N.pl3  90  ARG90       0.1354
    114  N         -9.4990   -6.9190   -2.5040 N.am   91  VAL91      -0.1980
    115  CA        -9.2860   -5.5790   -3.0240 C.3    91  VAL91       0.1595
    116  C         -7.8050   -5.3010   -3.1830 C.2    91  VAL91       0.2287
    117  O         -7.3900   -4.7170   -4.1760 O.2    91  VAL91      -0.2864
    118  CB        -9.9310   -4.5250   -2.1190 C.3    91  VAL91       0.0276
    119  CG1       -9.6440   -3.1090   -2.6400 C.3    91  VAL91       0.0022
    120  CG2      -11.4300   -4.7740   -2.0720 C.3    91  VAL91       0.0022
@<TRIPOS>BOND
     1     8     6    1
     2     6     7    1
     3     6     5    1
     4     1     2    1
     5     2     5    1
     6     2     3    1
     7    77    76    1
     8    19    18    2
     9    18    17    1
    10    76    75    1
    11    20    17    1
    12    20    21    1
    13     3     4    2
    14     3     9   am
    15    17    16    1
    16    23    21   ar
    17    23    25   ar
    18    16    11   am
    19    21    22   ar
    20     9    15    1
    21     9    10    1
    22    15    14    1
    23    68    67    1
    24    68    69    1
    25    74    75    1
    26    74    71    1
    27   113   111    1
    28    67    66    1
    29    25    26   ar
    30    22    24   ar
    31    11    10    1
    32    11    12    2
    33    10    13    1
    34    14    13    1
    35    26    24   ar
    36   111   110    2
    37   111   112    1
    38    70    71    1
    39    71    72    1
    40    64    65    2
    41    64    63    1
    42    66    63    1
    43    72    73    2
    44   110   109    1
    45    63    62    1
    46   106   105    2
    47   117   116    2
    48   108   109    1
    49   108   107    1
    50   105   104    1
    51   105   114   am
    52   116   115    1
    53   115   114    1
    54   115   118    1
    55   107   104    1
    56    82    79    1
    57   104   103    1
    58   119   118    1
    59    27    28    1
    60   118   120    1
    61    78    79    1
    62    79    80    1
    63    28    31    1
    64    28    29    1
    65    33    31    1
    66    80    81    2
    67    31    32    1
    68    41    39    1
    69    29    30    2
    70    40    39    1
    71    61    60    1
    72    39    38    1
    73   102   100   am
    74   100    99    1
    75   100   101    2
    76    60    59   ar
    77    60    58   ar
    78    99    96    1
    79    59    57   ar
    80    38    35    1
    81    58    56   ar
    82    35    34    1
    83    35    36    1
    84    96    95    1
    85    96    97    1
    86    95    85   am
    87    49    47    1
    88    57    55   ar
    89    98    97    2
    90    83    84    1
    91    56    55   ar
    92    87    84    1
    93    87    88    1
    94    55    54    1
    95    37    36    2
    96    84    85    1
    97    85    86    2
    98    90    88   ar
    99    90    92   ar
   100    47    46    1
   101    88    89   ar
   102    92    93   ar
   103    54    51    1
   104    48    46    1
   105    46    43    1
   106    89    91   ar
   107    53    52    2
   108    52    51    1
   109    93    91   ar
   110    93    94    1
   111    51    50    1
   112    42    43    1
   113    43    44    1
   114    45    44    2
