@<TRIPOS>MOLECULE
tmp/4tqoK00.pdb
 186 177 0 0 0
SMALL
GASTEIGER

@<TRIPOS>ATOM
      1  N         40.1560  -51.1530  -54.0820 N.3    55  GLU55      -0.1245
      2  CA        40.0240  -50.9920  -55.5210 C.3    55  GLU55       0.1567
      3  C         40.5950  -52.1910  -56.2650 C.2    55  GLU55       0.2260
      4  O         41.2440  -53.0590  -55.6770 O.2    55  GLU55      -0.2867
      5  CB        40.7040  -49.7030  -55.9830 C.3    55  GLU55       0.0388
      6  CG        39.9610  -48.4570  -55.5570 C.3    55  GLU55       0.1160
      7  CD        40.6200  -47.1790  -56.0180 C.2    55  GLU55       0.3649
      8  OE1       39.9920  -46.1130  -55.8640 O.co2  55  GLU55      -0.2457
      9  OE2       41.7550  -47.2330  -56.5300 O.co2  55  GLU55      -0.2457
     10  N         47.4470  -39.0690  -51.1490 N.3   103  CYS103     -0.1221
     11  CA        46.4750  -37.9810  -51.2230 C.3   103  CYS103      0.1808
     12  C         45.0580  -38.4290  -50.8770 C.2   103  CYS103      0.2601
     13  O         44.3480  -37.7420  -50.1450 O.2   103  CYS103     -0.2717
     14  CB        46.4770  -37.3570  -52.6230 C.3   103  CYS103      0.0970
     15  SG        45.5300  -38.2920  -53.8600 S.3   103  CYS103     -0.0800
     16  N         44.6600  -39.5830  -51.4090 N.am  104  CYS104     -0.1956
     17  CA        43.2540  -39.9750  -51.4400 C.3   104  CYS104      0.1843
     18  C         43.0420  -41.4320  -51.0280 C.2   104  CYS104      0.2625
     19  O         42.6610  -42.2650  -51.8590 O.2   104  CYS104     -0.2714
     20  CB        42.6840  -39.7520  -52.8470 C.3   104  CYS104      0.0997
     21  SG        43.4930  -38.4270  -53.7770 S.3   104  CYS104     -0.0797
     22  N         43.2880  -41.7170  -49.7490 N.am  105  ASP105     -0.1971
     23  CA        43.2020  -43.0650  -49.1630 C.3   105  ASP105      0.1709
     24  C         44.2850  -43.9950  -49.7150 C.2   105  ASP105      0.2293
     25  O         44.7590  -43.8270  -50.8410 O.2   105  ASP105     -0.2864
     26  CB        41.8120  -43.6790  -49.3780 C.3   105  ASP105      0.1436
     27  CG        41.5180  -44.8080  -48.4040 C.2   105  ASP105      0.3671
     28  OD1       42.1940  -44.8810  -47.3540 O.co2 105  ASP105     -0.2456
     29  OD2       40.5980  -45.6080  -48.6810 O.co2 105  ASP105     -0.2456
     30  N         44.7340  -46.7210  -51.2280 N.3   107  VAL107     -0.1245
     31  CA        44.2060  -47.7420  -52.1300 C.3   107  VAL107      0.1561
     32  C         45.2760  -48.3860  -53.0090 C.2   107  VAL107      0.2260
     33  O         46.3780  -47.8580  -53.1660 O.2   107  VAL107     -0.2867
     34  CB        43.1190  -47.1570  -53.0430 C.3   107  VAL107      0.0252
     35  CG1       41.8590  -46.8540  -52.2440 C.3   107  VAL107      0.0019
     36  CG2       43.6370  -45.9080  -53.7310 C.3   107  VAL107      0.0019
     37  N         45.3730  -50.8280  -56.8160 N.3   109  ARG109     -0.1245
     38  CA        44.4830  -51.2210  -57.9070 C.3   109  ARG109      0.1563
     39  C         44.7660  -52.6210  -58.4410 C.2   109  ARG109      0.2260
     40  O         44.2610  -52.9990  -59.4990 O.2   109  ARG109     -0.2867
     41  CB        44.5390  -50.1800  -59.0280 C.3   109  ARG109      0.0307
     42  CG        43.9160  -48.8790  -58.5640 C.3   109  ARG109      0.0489
     43  CD        43.8040  -47.7960  -59.6170 C.3   109  ARG109      0.2205
     44  NE        43.2960  -46.5840  -58.9780 N.pl3 109  ARG109     -0.0865
     45  CZ        44.0610  -45.6940  -58.3560 C.cat 109  ARG109      0.5346
     46  NH1       43.5170  -44.6350  -57.7810 N.pl3 109  ARG109      0.1354
     47  NH2       45.3750  -45.8610  -58.3170 N.pl3 109  ARG109      0.1354
     48  N         54.5780  -42.2980  -54.4420 N.3   157  THR157     -0.1218
     49  CA        54.0370  -43.6140  -54.0900 C.3   157  THR157      0.1862
     50  C         53.5490  -44.4090  -55.3020 C.2   157  THR157      0.2287
     51  O         53.6230  -43.9420  -56.4420 O.2   157  THR157     -0.2866
     52  CB        52.8540  -43.4820  -53.1140 C.3   157  THR157      0.1770
     53  OG1       51.8510  -42.6540  -53.7110 O.3   157  THR157     -0.2211
     54  CG2       53.2950  -42.8490  -51.8000 C.3   157  THR157      0.0375
     55  N         50.0450  -46.7370  -56.6040 N.3   159  THR159     -0.1218
     56  CA        48.6690  -47.1540  -56.3550 C.3   159  THR159      0.1862
     57  C         48.0730  -47.9090  -57.5470 C.2   159  THR159      0.2287
     58  O         47.1910  -48.7560  -57.3790 O.2   159  THR159     -0.2866
     59  CB        47.7680  -45.9560  -56.0330 C.3   159  THR159      0.1770
     60  OG1       47.8450  -45.0070  -57.1030 O.3   159  THR159     -0.2211
     61  CG2       48.1880  -45.2900  -54.7310 C.3   159  THR159      0.0375
     62  N         52.8860  -41.9230  -58.8850 N.3   174  ALA174     -0.1231
     63  CA        51.8500  -41.2490  -58.1170 C.3   174  ALA174      0.1694
     64  C         52.4480  -40.2020  -57.1880 C.2   174  ALA174      0.2593
     65  O         53.5850  -40.3390  -56.7300 O.2   174  ALA174     -0.2718
     66  CB        51.0390  -42.2590  -57.3180 C.3   174  ALA174      0.0304
     67  N         51.6720  -39.1580  -56.9140 N.am  175  GLY175     -0.1942
     68  CA        52.0900  -38.1080  -56.0070 C.3   175  GLY175      0.2014
     69  C         52.1950  -36.7400  -56.6570 C.2   175  GLY175      0.2639
     70  O         53.0040  -35.9100  -56.2380 O.2   175  GLY175     -0.2714
     71  N         51.3810  -36.4960  -57.6780 N.am  176  ALA176     -0.1963
     72  CA        51.3920  -35.2030  -58.3550 C.3   176  ALA176      0.1728
     73  C         50.9040  -34.1190  -57.4010 C.2   176  ALA176      0.2616
     74  O         51.3380  -32.9680  -57.4760 O.2   176  ALA176     -0.2715
     75  CB        50.5410  -35.2430  -59.6140 C.3   176  ALA176      0.0334
     76  N         50.0200  -34.4980  -56.4820 N.am  177  GLU177     -0.1977
     77  CA        49.5690  -33.5810  -55.4380 C.3   177  GLU177      0.1602
     78  C         50.6980  -33.2610  -54.4670 C.2   177  GLU177      0.2287
     79  O         50.5450  -32.4360  -53.5710 O.2   177  GLU177     -0.2864
     80  CB        48.3720  -34.1590  -54.6810 C.3   177  GLU177      0.0415
     81  CG        47.0390  -33.9190  -55.3730 C.3   177  GLU177      0.1163
     82  CD        46.9000  -34.6920  -56.6730 C.2   177  GLU177      0.3649
     83  OE1       46.7410  -35.9320  -56.6150 O.co2 177  GLU177     -0.2457
     84  OE2       46.9550  -34.0580  -57.7490 O.co2 177  GLU177     -0.2457
     85  N         52.0930  -37.8960  -63.3440 N.3   241  THR241     -0.1218
     86  CA        52.1540  -39.2940  -62.9130 C.3   241  THR241      0.1862
     87  C         51.0520  -40.1270  -63.5630 C.2   241  THR241      0.2287
     88  O         49.9880  -39.6060  -63.9080 O.2   241  THR241     -0.2866
     89  CB        52.0380  -39.4300  -61.3750 C.3   241  THR241      0.1770
     90  OG1       50.8710  -38.7380  -60.9080 O.3   241  THR241     -0.2211
     91  CG2       53.2710  -38.8630  -60.6850 C.3   241  THR241      0.0375
     92  N         48.8130  -43.3660  -62.6990 N.3   243  TRP243     -0.1241
     93  CA        48.3910  -44.3250  -61.6870 C.3   243  TRP243      0.1605
     94  C         47.1460  -45.0820  -62.1520 C.2   243  TRP243      0.2264
     95  O         46.5080  -45.7880  -61.3730 O.2   243  TRP243     -0.2867
     96  CB        48.1310  -43.6010  -60.3620 C.3   243  TRP243      0.0550
     97  CG        47.4340  -42.2840  -60.5460 C.ar  243  TRP243      0.0003
     98  CD1       48.0120  -41.0810  -60.8530 C.ar  243  TRP243      0.0946
     99  CD2       46.0280  -42.0370  -60.4480 C.ar  243  TRP243      0.0152
    100  NE1       47.0500  -40.1050  -60.9540 N.ar  243  TRP243     -0.2442
    101  CE2       45.8260  -40.6650  -60.7050 C.ar  243  TRP243      0.0810
    102  CE3       44.9190  -42.8440  -60.1700 C.ar  243  TRP243      0.0012
    103  CZ2       44.5620  -40.0870  -60.7010 C.ar  243  TRP243      0.0191
    104  CZ3       43.6630  -42.2650  -60.1540 C.ar  243  TRP243      0.0001
    105  CH2       43.4950  -40.8990  -60.4140 C.ar  243  TRP243      0.0015
    106  N         47.7740  -35.1700  -64.0570 N.3   261  ASN261     -0.1240
    107  CA        47.6800  -33.7170  -63.9680 C.3   261  ASN261      0.1653
    108  C         48.9900  -33.0290  -63.6010 C.2   261  ASN261      0.2266
    109  O         49.8510  -33.6210  -62.9510 O.2   261  ASN261     -0.2867
    110  CB        46.6110  -33.3400  -62.9460 C.3   261  ASN261      0.1155
    111  CG        47.0090  -33.7080  -61.5460 C.2   261  ASN261      0.2627
    112  OD1       47.0530  -34.8880  -61.1920 O.2   261  ASN261     -0.2716
    113  ND2       47.2940  -32.7000  -60.7300 N.am  261  ASN261     -0.0877
    114  N         42.4750  -30.2150  -62.2420 N.3   303  ASP303     -0.1239
    115  CA        42.9230  -31.5480  -61.8260 C.3   303  ASP303      0.1674
    116  C         42.1220  -32.6340  -62.5530 C.2   303  ASP303      0.2266
    117  O         41.5740  -33.5490  -61.9340 O.2   303  ASP303     -0.2867
    118  CB        42.8200  -31.7180  -60.3020 C.3   303  ASP303      0.1410
    119  CG        43.3330  -33.0640  -59.8270 C.2   303  ASP303      0.3668
    120  OD1       44.3700  -33.5180  -60.3470 O.co2 303  ASP303     -0.2456
    121  OD2       42.6870  -33.6810  -58.9530 O.co2 303  ASP303     -0.2456
    122  N         43.0650  -35.1700  -64.0910 N.3   305  ALA305     -0.1245
    123  CA        44.1340  -36.1490  -64.3000 C.3   305  ALA305      0.1562
    124  C         43.7610  -37.1850  -65.3560 C.2   305  ALA305      0.2260
    125  O         42.7900  -37.9290  -65.1970 O.2   305  ALA305     -0.2867
    126  CB        44.4820  -36.8340  -62.9870 C.3   305  ALA305      0.0290
    127  N         38.6800  -37.6680  -67.1940 N.3   330  ARG330     -0.1245
    128  CA        38.1240  -36.9500  -66.0480 C.3   330  ARG330      0.1563
    129  C         37.4590  -35.6360  -66.4600 C.2   330  ARG330      0.2260
    130  O         36.5570  -35.1570  -65.7830 O.2   330  ARG330     -0.2867
    131  CB        39.2160  -36.6690  -65.0100 C.3   330  ARG330      0.0307
    132  CG        39.6950  -37.8970  -64.2540 C.3   330  ARG330      0.0489
    133  CD        39.2280  -37.8780  -62.8020 C.3   330  ARG330      0.2205
    134  NE        39.9290  -36.8600  -62.0250 N.pl3 330  ARG330     -0.0865
    135  CZ        41.0660  -37.0730  -61.3680 C.cat 330  ARG330      0.5346
    136  NH1       41.6330  -38.2730  -61.3800 N.pl3 330  ARG330      0.1354
    137  NH2       41.6410  -36.0850  -60.6970 N.pl3 330  ARG330      0.1354
    138  N         36.2030  -41.4800  -63.3100 N.3   393  ASN393     -0.1225
    139  CA        37.4470  -41.6520  -62.5690 C.3   393  ASN393      0.1785
    140  C         38.1320  -42.9950  -62.8820 C.2   393  ASN393      0.2597
    141  O         38.1320  -43.4380  -64.0290 O.2   393  ASN393     -0.2718
    142  CB        37.1910  -41.5080  -61.0630 C.3   393  ASN393      0.1169
    143  CG        38.4100  -40.9950  -60.3100 C.2   393  ASN393      0.2627
    144  OD1       39.2140  -41.7720  -59.7930 O.2   393  ASN393     -0.2716
    145  ND2       38.5510  -39.6790  -60.2480 N.am  393  ASN393     -0.0877
    146  N         38.6930  -43.6430  -61.8590 N.am  394  GLN394     -0.1979
    147  CA        39.5980  -44.7800  -62.0500 C.3   394  GLN394      0.1601
    148  C         38.9180  -46.1230  -62.3600 C.2   394  GLN394      0.2287
    149  O         39.5830  -47.1580  -62.4130 O.2   394  GLN394     -0.2864
    150  CB        40.4830  -44.9390  -60.8070 C.3   394  GLN394      0.0394
    151  CG        39.7170  -45.2090  -59.5120 C.3   394  GLN394      0.0908
    152  CD        39.4310  -46.6860  -59.2860 C.2   394  GLN394      0.2608
    153  OE1       40.3470  -47.5090  -59.2460 O.2   394  GLN394     -0.2717
    154  NE2       38.1530  -47.0280  -59.1410 N.am  394  GLN394     -0.0878
    155  N         31.8890  -45.5540  -59.1340 N.3   469  TRP469     -0.1241
    156  CA        33.3270  -45.3450  -59.0500 C.3   469  TRP469      0.1605
    157  C         34.1630  -46.5360  -59.5120 C.2   469  TRP469      0.2264
    158  O         35.2900  -46.3710  -59.9820 O.2   469  TRP469     -0.2867
    159  CB        33.6840  -45.0000  -57.6000 C.3   469  TRP469      0.0550
    160  CG        34.9740  -44.2650  -57.4090 C.ar  469  TRP469      0.0003
    161  CD1       36.1730  -44.7940  -57.0220 C.ar  469  TRP469      0.0946
    162  CD2       35.1880  -42.8590  -57.5680 C.ar  469  TRP469      0.0152
    163  NE1       37.1210  -43.8030  -56.9400 N.ar  469  TRP469     -0.2442
    164  CE2       36.5420  -42.6070  -57.2720 C.ar  469  TRP469      0.0810
    165  CE3       34.3670  -41.7890  -57.9390 C.ar  469  TRP469      0.0012
    166  CZ2       37.0920  -41.3310  -57.3310 C.ar  469  TRP469      0.0191
    167  CZ3       34.9160  -40.5230  -58.0030 C.ar  469  TRP469      0.0001
    168  CH2       36.2670  -40.3050  -57.7000 C.ar  469  TRP469      0.0015
    169  N         38.8900  -44.8250  -50.9650 N.3   532  GLY532     -0.1210
    170  CA        39.2810  -43.9960  -52.0890 C.3   532  GLY532      0.1956
    171  C         38.9040  -42.5470  -51.8660 C.2   532  GLY532      0.2611
    172  O         38.5460  -42.1510  -50.7590 O.2   532  GLY532     -0.2717
    173  N         38.9720  -41.7480  -52.9200 N.am  533  TRP533     -0.1976
    174  CA        38.6860  -40.3280  -52.7770 C.3   533  TRP533      0.1640
    175  C         37.2460  -40.0210  -52.3120 C.2   533  TRP533      0.2290
    176  O         37.0500  -39.1260  -51.4900 O.2   533  TRP533     -0.2864
    177  CB        38.9870  -39.5970  -54.0830 C.3   533  TRP533      0.0576
    178  CG        39.1670  -38.1280  -53.8870 C.ar  533  TRP533      0.0006
    179  CD1       39.1690  -37.4520  -52.6990 C.ar  533  TRP533      0.0946
    180  CD2       39.3670  -37.1440  -54.9070 C.ar  533  TRP533      0.0152
    181  NE1       39.3570  -36.1080  -52.9190 N.ar  533  TRP533     -0.2442
    182  CE2       39.4790  -35.8930  -54.2670 C.ar  533  TRP533      0.0810
    183  CE3       39.4510  -37.1970  -56.3000 C.ar  533  TRP533      0.0012
    184  CZ2       39.6780  -34.7080  -54.9740 C.ar  533  TRP533      0.0191
    185  CZ3       39.6550  -36.0240  -57.0000 C.ar  533  TRP533      0.0001
    186  CH2       39.7670  -34.7950  -56.3370 C.ar  533  TRP533      0.0015
@<TRIPOS>BOND
     1   127   128    1
     2   129   128    1
     3   129   130    2
     4   128   131    1
     5   124   125    2
     6   124   123    1
     7   131   132    1
     8   123   122    1
     9   123   126    1
    10   132   133    1
    11   106   107    1
    12   141   140    2
    13   107   108    1
    14   107   110    1
    15    88    87    2
    16   108   109    2
    17    87    86    1
    18    85    86    1
    19   138   139    1
    20   110   111    1
    21    86    89    1
    22   140   139    1
    23   140   146   am
    24   133   134    1
    25    92    93    1
    26   139   142    1
    27   116   117    2
    28   116   115    1
    29   149   148    2
    30   148   147    1
    31   114   115    1
    32    94    93    1
    33    94    95    2
    34   147   146    1
    35   147   150    1
    36   134   135    2
    37   115   118    1
    38    93    96    1
    39   111   112    2
    40   111   113   am
    41   136   135    1
    42    89    90    1
    43    89    91    1
    44   135   137    1
    45   142   143    1
    46   100    98   ar
    47   100   101   ar
    48    98    97   ar
    49   150   151    1
    50   101   103   ar
    51   101    99   ar
    52   103   105   ar
    53    97    99   ar
    54    97    96    1
    55    99   102   ar
    56   105   104   ar
    57   120   119   ar
    58   143   145   am
    59   143   144    2
    60   118   119    1
    61   102   104   ar
    62   158   157    2
    63   119   121   ar
    64    43    44    1
    65    43    42    1
    66    75    72    1
    67   151   152    1
    68   157   156    1
    69    40    39    2
    70   152   153    2
    71   152   154   am
    72   155   156    1
    73   156   159    1
    74    41    42    1
    75    41    38    1
    76    44    45    2
    77    62    63    1
    78    39    38    1
    79    45    47    1
    80    45    46    1
    81    72    71    1
    82    72    73    1
    83    63    66    1
    84    63    64    1
    85   167   165   ar
    86   167   168   ar
    87   165   162   ar
    88    38    37    1
    89    84    82   ar
    90   168   166   ar
    91    71    69   am
    92   159   160    1
    93   162   160   ar
    94   162   164   ar
    95    57    58    2
    96    57    56    1
    97    74    73    2
    98   160   161   ar
    99    73    76   am
   100   166   164   ar
   101   164   163   ar
   102    64    67   am
   103    64    65    2
   104    60    59    1
   105   161   163   ar
   106   185   186   ar
   107   185   183   ar
   108    67    68    1
   109    82    83   ar
   110    82    81    1
   111    69    70    2
   112    69    68    1
   113    55    56    1
   114     9     7   ar
   115    76    77    1
   116    51    50    2
   117    56    59    1
   118   186   184   ar
   119   183   180   ar
   120     3     4    2
   121     3     2    1
   122    59    61    1
   123     7     8   ar
   124     7     6    1
   125     5     6    1
   126     5     2    1
   127     2     1    1
   128    77    80    1
   129    77    78    1
   130    81    80    1
   131    50    49    1
   132   184   182   ar
   133   180   182   ar
   134   180   178   ar
   135    78    79    2
   136    48    49    1
   137   182   181   ar
   138    49    52    1
   139   177   178    1
   140   177   174    1
   141   178   179   ar
   142    15    21    1
   143    15    14    1
   144    21    20    1
   145    36    34    1
   146    53    52    1
   147    33    32    2
   148    52    54    1
   149    34    35    1
   150    34    31    1
   151    32    31    1
   152   173   174    1
   153   173   171   am
   154   181   179   ar
   155    20    17    1
   156   174   175    1
   157    14    11    1
   158   175   176    2
   159    31    30    1
   160   170   171    1
   161   170   169    1
   162   171   172    2
   163    19    18    2
   164    17    16    1
   165    17    18    1
   166    16    12   am
   167    11    10    1
   168    11    12    1
   169    18    22   am
   170    12    13    2
   171    25    24    2
   172    22    23    1
   173    24    23    1
   174    26    23    1
   175    26    27    1
   176    29    27   ar
   177    27    28   ar
