@<TRIPOS>MOLECULE
tmp/4tqpB00.pdb
 77 70 0 0 0
SMALL
GASTEIGER

@<TRIPOS>ATOM
      1  N         23.7640   31.6660   64.1270 N.3     4  MET4       -0.1245
      2  CA        22.5300   32.4580   64.3000 C.3     4  MET4        0.1570
      3  C         22.0080   32.6840   62.8820 C.2     4  MET4        0.2261
      4  O         22.7980   32.7130   61.9010 O.2     4  MET4       -0.2867
      5  CB        22.8340   33.8290   64.9750 C.3     4  MET4        0.0387
      6  CG        21.5780   34.5500   65.5710 C.3     4  MET4        0.0595
      7  SD        20.7560   35.8240   64.5460 S.3     4  MET4       -0.1393
      8  CE        21.8020   37.2470   64.9050 C.3     4  MET4        0.0692
      9  N         19.3710   35.4500   60.7610 N.3     6  LYS6       -0.1245
     10  CA        18.5590   36.6460   60.9020 C.3     6  LYS6        0.1561
     11  C         17.9230   36.9440   59.5870 C.2     6  LYS6        0.2260
     12  O         18.6300   36.9190   58.5630 O.2     6  LYS6       -0.2867
     13  CB        19.4030   37.8440   61.3010 C.3     6  LYS6        0.0271
     14  CG        18.6030   39.0890   61.5090 C.3     6  LYS6        0.0035
     15  CD        19.1860   40.0290   62.5060 C.3     6  LYS6        0.0206
     16  CE        18.2920   41.2640   62.4800 C.3     6  LYS6        0.1093
     17  NZ        17.3410   41.5380   63.6410 N.3     6  LYS6       -0.1314
     18  N         15.2700   39.4570   57.2410 N.3     8  LEU8       -0.1245
     19  CA        14.5780   40.7730   57.1220 C.3     8  LEU8        0.1561
     20  C         13.7140   40.7890   55.8610 C.2     8  LEU8        0.2260
     21  O         14.0450   40.1510   54.8360 O.2     8  LEU8       -0.2867
     22  CB        15.6330   41.8980   56.9660 C.3     8  LEU8        0.0270
     23  CG        16.5530   42.1170   58.2150 C.3     8  LEU8        0.0019
     24  CD1       17.5050   43.2070   57.8660 C.3     8  LEU8        0.0001
     25  CD2       15.7270   42.5140   59.4000 C.3     8  LEU8        0.0001
     26  N         26.8430   34.3700   61.7070 N.3    97  THR97      -0.1218
     27  CA        25.4870   34.8630   61.5810 C.3    97  THR97       0.1862
     28  C         25.1880   34.8570   60.1110 C.2    97  THR97       0.2287
     29  O         25.8620   35.5120   59.3080 O.2    97  THR97      -0.2866
     30  CB        25.3640   36.3050   62.1480 C.3    97  THR97       0.1770
     31  OG1       25.6570   36.2830   63.5610 O.3    97  THR97      -0.2211
     32  CG2       23.9860   36.8740   61.8640 C.3    97  THR97       0.0375
     33  N         22.7160   36.1700   57.5010 N.3    99  ALA99      -0.1231
     34  CA        21.6760   37.1490   57.3840 C.3    99  ALA99       0.1694
     35  C         21.0280   37.0160   56.0210 C.2    99  ALA99       0.2592
     36  O         21.6940   36.7510   55.0480 O.2    99  ALA99      -0.2718
     37  CB        22.2660   38.5120   57.5490 C.3    99  ALA99       0.0304
     38  N         19.7270   37.1540   55.9510 N.am  100  ALA100     -0.1966
     39  CA        19.0300   37.0440   54.6610 C.3   100  ALA100      0.1728
     40  C         18.0720   38.1990   54.5460 C.2   100  ALA100      0.2616
     41  O         17.3180   38.4540   55.4920 O.2   100  ALA100     -0.2715
     42  CB        18.3140   35.8090   54.4900 C.3   100  ALA100      0.0334
     43  N         18.0750   38.8680   53.3830 N.am  101  LEU101     -0.1977
     44  CA        17.1950   40.0330   53.1070 C.3   101  LEU101      0.1596
     45  C         16.2760   39.5360   51.9960 C.2   101  LEU101      0.2287
     46  O         16.7370   39.1610   50.9130 O.2   101  LEU101     -0.2864
     47  CB        18.0380   41.1820   52.6350 C.3   101  LEU101      0.0297
     48  CG        17.2090   42.4070   52.1880 C.3   101  LEU101      0.0022
     49  CD1       16.4330   42.9340   53.4630 C.3   101  LEU101      0.0001
     50  CD2       18.2270   43.4920   51.6290 C.3   101  LEU101      0.0001
     51  N         19.0460   38.2280   49.1750 N.3   108  SER108     -0.1202
     52  CA        20.4580   38.4790   49.3790 C.3   108  SER108      0.2020
     53  C         20.8740   37.8440   50.7160 C.2   108  SER108      0.2619
     54  O         20.1650   37.9960   51.7240 O.2   108  SER108     -0.2717
     55  CB        20.6980   39.9750   49.4160 C.3   108  SER108      0.2103
     56  OG        22.0480   40.2250   49.7840 O.3   108  SER108     -0.2182
     57  N         22.0020   37.1350   50.7420 N.am  109  THR109     -0.1938
     58  CA        22.4040   36.4970   51.9730 C.3   109  THR109      0.2028
     59  C         23.8190   36.8630   52.2530 C.2   109  THR109      0.2642
     60  O         24.6290   36.8920   51.3000 O.2   109  THR109     -0.2714
     61  CB        22.1530   34.9940   51.9890 C.3   109  THR109      0.1808
     62  OG1       22.5460   34.5510   53.2720 O.3   109  THR109     -0.2208
     63  CG2       22.9830   34.1940   50.8940 C.3   109  THR109      0.0379
     64  N         24.1430   37.2380   53.4840 N.am  110  THR110     -0.1950
     65  CA        25.5470   37.4980   53.8130 C.3   110  THR110      0.1897
     66  C         25.8560   36.6880   55.0590 C.2   110  THR110      0.2313
     67  O         24.9540   36.2980   55.8090 O.2   110  THR110     -0.2863
     68  CB        25.8500   39.0230   53.9970 C.3   110  THR110      0.1794
     69  OG1       27.2620   39.2420   54.0940 O.3   110  THR110     -0.2208
     70  CG2       25.1980   39.5310   55.2310 C.3   110  THR110      0.0378
     71  N         28.1820   36.9450   58.3980 N.3   112  VAL112     -0.1245
     72  CA        29.0360   37.7900   59.2550 C.3   112  VAL112      0.1561
     73  C         29.7010   36.8280   60.2230 C.2   112  VAL112      0.2260
     74  O         28.9910   36.1190   60.9970 O.2   112  VAL112     -0.2867
     75  CB        28.2070   38.8170   60.0570 C.3   112  VAL112      0.0252
     76  CG1       29.1830   39.8280   60.8350 C.3   112  VAL112      0.0019
     77  CG2       27.2610   39.5280   59.0470 C.3   112  VAL112      0.0019
@<TRIPOS>BOND
     1    51    52    1
     2    52    55    1
     3    52    53    1
     4    55    56    1
     5    53    57   am
     6    53    54    2
     7    57    58    1
     8    63    61    1
     9    46    45    2
    10    60    59    2
    11    50    48    1
    12    58    61    1
    13    58    59    1
    14    61    62    1
    15    45    44    1
    16    48    47    1
    17    48    49    1
    18    59    64   am
    19    47    44    1
    20    44    43    1
    21    43    40   am
    22    64    65    1
    23    65    68    1
    24    65    66    1
    25    68    69    1
    26    68    70    1
    27    42    39    1
    28    40    39    1
    29    40    41    2
    30    39    38    1
    31    21    20    2
    32    36    35    2
    33    66    67    2
    34    20    19    1
    35    38    35   am
    36    35    34    1
    37    22    19    1
    38    22    23    1
    39    19    18    1
    40    34    33    1
    41    34    37    1
    42    24    23    1
    43    23    25    1
    44    71    72    1
    45    12    11    2
    46    77    75    1
    47    72    75    1
    48    72    73    1
    49    29    28    2
    50    11    10    1
    51    75    76    1
    52    28    27    1
    53    73    74    2
    54     9    10    1
    55    10    13    1
    56    13    14    1
    57    14    15    1
    58    27    26    1
    59    27    30    1
    60    32    30    1
    61     4     3    2
    62    30    31    1
    63    16    15    1
    64    16    17    1
    65     3     2    1
    66     1     2    1
    67     2     5    1
    68     7     8    1
    69     7     6    1
    70     5     6    1
