@<TRIPOS>MOLECULE
tmp/4tqpA00.pdb
 95 86 0 0 0
SMALL
GASTEIGER

@<TRIPOS>ATOM
      1  N         18.1310   32.0420   31.0900 N.3     4  MET4       -0.1245
      2  CA        19.4320   32.6680   30.9460 C.3     4  MET4        0.1570
      3  C         19.9550   32.8500   32.3680 C.2     4  MET4        0.2261
      4  O         19.1700   33.0230   33.3010 O.2     4  MET4       -0.2867
      5  CB        19.2960   34.0500   30.2930 C.3     4  MET4        0.0387
      6  CG        20.6750   34.5430   29.6930 C.3     4  MET4        0.0595
      7  SD        21.4650   35.7090   30.8440 S.3     4  MET4       -0.1393
      8  CE        20.7960   37.2820   30.3740 C.3     4  MET4        0.0692
      9  N         22.9040   35.1780   34.4510 N.3     6  LYS6       -0.1245
     10  CA        23.8600   36.2890   34.3250 C.3     6  LYS6        0.1561
     11  C         24.5360   36.4730   35.6600 C.2     6  LYS6        0.2260
     12  O         23.8590   36.4990   36.6970 O.2     6  LYS6       -0.2867
     13  CB        23.0890   37.5640   33.8960 C.3     6  LYS6        0.0271
     14  CG        23.9970   38.8140   33.9130 C.3     6  LYS6        0.0035
     15  CD        23.6930   39.8150   32.7660 C.3     6  LYS6        0.0206
     16  CE        24.8800   40.8650   32.6060 C.3     6  LYS6        0.1093
     17  NZ        25.2190   41.2310   31.2390 N.3     6  LYS6       -0.1314
     18  N         27.5180   38.6040   37.9750 N.3     8  LEU8       -0.1245
     19  CA        28.3560   39.8210   38.1360 C.3     8  LEU8        0.1561
     20  C         29.2140   39.7260   39.4050 C.2     8  LEU8        0.2260
     21  O         28.7990   39.0740   40.3870 O.2     8  LEU8       -0.2867
     22  CB        27.4150   41.0200   38.2510 C.3     8  LEU8        0.0270
     23  CG        26.6000   41.3750   36.9880 C.3     8  LEU8        0.0019
     24  CD1       25.7820   42.6510   37.3070 C.3     8  LEU8        0.0001
     25  CD2       27.5090   41.7180   35.7940 C.3     8  LEU8        0.0001
     26  N         31.5730   41.5790   34.7370 N.3    15  PRO15      -0.2116
     27  CA        30.9810   40.2180   34.5610 C.3    15  PRO15       0.1372
     28  C         31.8570   39.1990   35.2910 C.2    15  PRO15       0.2244
     29  O         33.0970   39.3790   35.3800 O.2    15  PRO15      -0.2868
     30  CB        31.0430   39.9940   33.0200 C.3    15  PRO15       0.0268
     31  CG        32.1590   40.9560   32.5610 C.3    15  PRO15       0.0207
     32  CD        32.1230   42.1480   33.4570 C.3    15  PRO15       0.0892
     33  N         32.3500   35.7230   28.4570 N.3    42  GLU42      -0.1231
     34  CA        33.0470   36.9370   28.8570 C.3    42  GLU42       0.1699
     35  C         32.1070   38.1170   29.1300 C.2    42  GLU42       0.2592
     36  O         32.5740   39.1740   29.5970 O.2    42  GLU42      -0.2718
     37  CB        34.0760   37.3190   27.7980 C.3    42  GLU42       0.0402
     38  CG        34.9940   36.1540   27.4410 C.3    42  GLU42       0.1161
     39  CD        36.2040   35.9980   28.3500 C.2    42  GLU42       0.3649
     40  OE1       36.6880   37.0080   28.9100 O.co2  42  GLU42      -0.2457
     41  OE2       36.6950   34.8490   28.4920 O.co2  42  GLU42      -0.2457
     42  N         30.8060   37.9560   28.8640 N.am   43  SER43      -0.1952
     43  CA        29.8220   38.9460   29.2850 C.3    43  SER43       0.1924
     44  C         29.1810   38.5710   30.6320 C.2    43  SER43       0.2314
     45  O         28.2330   39.2620   31.1130 O.2    43  SER43      -0.2863
     46  CB        28.7280   39.0840   28.2200 C.3    43  SER43       0.2116
     47  OG        27.9820   37.8650   28.1280 O.3    43  SER43      -0.2180
     48  N         27.3430   35.9500   30.9570 N.3    45  GLU45      -0.1245
     49  CA        26.0460   35.3590   30.6360 C.3    45  GLU45       0.1567
     50  C         26.1470   33.9440   30.1310 C.2    45  GLU45       0.2260
     51  O         27.1320   33.5410   29.5300 O.2    45  GLU45      -0.2867
     52  CB        25.2990   36.2100   29.5830 C.3    45  GLU45       0.0388
     53  CG        25.0530   37.6400   30.0670 C.3    45  GLU45       0.1160
     54  CD        24.3140   38.5010   29.0840 C.2    45  GLU45       0.3649
     55  OE1       24.0380   38.0700   27.9320 O.co2  45  GLU45      -0.2457
     56  OE2       24.1080   39.6850   29.4450 O.co2  45  GLU45      -0.2457
     57  N         15.3000   35.0790   33.4790 N.3    97  THR97      -0.1218
     58  CA        16.7200   35.4460   33.6790 C.3    97  THR97       0.1862
     59  C         17.0290   35.4120   35.1660 C.2    97  THR97       0.2287
     60  O         16.3870   36.0880   35.9950 O.2    97  THR97      -0.2866
     61  CB        16.9840   36.8560   33.1320 C.3    97  THR97       0.1770
     62  OG1       16.7060   36.8610   31.7250 O.3    97  THR97      -0.2211
     63  CG2       18.4460   37.2970   33.3820 C.3    97  THR97       0.0375
     64  N         19.7780   36.2510   37.7530 N.3    99  ALA99      -0.1231
     65  CA        20.9060   37.1210   37.8770 C.3    99  ALA99       0.1694
     66  C         21.5140   36.8910   39.2540 C.2    99  ALA99       0.2592
     67  O         20.7780   36.7530   40.2330 O.2    99  ALA99      -0.2718
     68  CB        20.4790   38.5320   37.6990 C.3    99  ALA99       0.0304
     69  N         22.8250   36.7630   39.3360 N.am  100  ALA100     -0.1966
     70  CA        23.5000   36.6070   40.6290 C.3   100  ALA100      0.1728
     71  C         24.6080   37.6450   40.7430 C.2   100  ALA100      0.2616
     72  O         25.3710   37.8620   39.7790 O.2   100  ALA100     -0.2715
     73  CB        24.0880   35.2240   40.7730 C.3   100  ALA100      0.0334
     74  N         24.6580   38.3480   41.8860 N.am  101  LEU101     -0.1977
     75  CA        25.7290   39.3830   42.1730 C.3   101  LEU101      0.1596
     76  C         26.5950   38.8390   43.2870 C.2   101  LEU101      0.2287
     77  O         26.0750   38.5020   44.3710 O.2   101  LEU101     -0.2864
     78  CB        24.9730   40.6900   42.6370 C.3   101  LEU101      0.0297
     79  CG        25.9760   41.7990   43.0090 C.3   101  LEU101      0.0022
     80  CD1       26.8500   42.2720   41.7820 C.3   101  LEU101      0.0001
     81  CD2       25.1640   42.9390   43.6550 C.3   101  LEU101      0.0001
     82  N         18.4050   37.4180   41.7570 N.3   110  THR110     -0.1218
     83  CA        17.1880   38.1380   41.3460 C.3   110  THR110      0.1862
     84  C         16.6900   37.4700   40.0770 C.2   110  THR110      0.2287
     85  O         17.5030   37.1630   39.1890 O.2   110  THR110     -0.2866
     86  CB        17.5590   39.5870   40.9940 C.3   110  THR110      0.1770
     87  OG1       18.0430   40.2100   42.1550 O.3   110  THR110     -0.2211
     88  CG2       16.4510   40.3980   40.3220 C.3   110  THR110      0.0375
     89  N         14.2360   37.8390   36.7390 N.3   112  VAL112     -0.1245
     90  CA        13.4390   38.6870   35.8990 C.3   112  VAL112      0.1561
     91  C         12.6520   37.7480   35.0130 C.2   112  VAL112      0.2260
     92  O         13.2580   36.8800   34.3070 O.2   112  VAL112     -0.2867
     93  CB        14.2980   39.6560   35.0450 C.3   112  VAL112      0.0252
     94  CG1       13.3210   40.5120   34.1180 C.3   112  VAL112      0.0019
     95  CG2       15.1660   40.4940   35.9510 C.3   112  VAL112      0.0019
@<TRIPOS>BOND
     1    38    37    1
     2    38    39    1
     3    37    34    1
     4    55    54   ar
     5    47    46    1
     6    46    43    1
     7    39    41   ar
     8    39    40   ar
     9    33    34    1
    10    34    35    1
    11    42    35   am
    12    42    43    1
    13    54    56   ar
    14    54    53    1
    15    35    36    2
    16    43    44    1
    17    51    50    2
    18    52    53    1
    19    52    49    1
    20     6     5    1
    21     6     7    1
    22    50    49    1
    23     5     2    1
    24     8     7    1
    25    44    45    2
    26    49    48    1
    27     2     1    1
    28     2     3    1
    29    17    16    1
    30    62    61    1
    31     3     4    2
    32    31    30    1
    33    31    32    1
    34    16    15    1
    35    15    14    1
    36    30    27    1
    37    61    63    1
    38    61    58    1
    39    32    26    1
    40    57    58    1
    41    58    59    1
    42    13    14    1
    43    13    10    1
    44    94    93    1
    45    92    91    2
    46    10     9    1
    47    10    11    1
    48    27    26    1
    49    27    28    1
    50    91    90    1
    51    93    90    1
    52    93    95    1
    53    59    60    2
    54    28    29    2
    55    11    12    2
    56    25    23    1
    57    90    89    1
    58    23    24    1
    59    23    22    1
    60    68    65    1
    61    64    65    1
    62    65    66    1
    63    18    19    1
    64    19    22    1
    65    19    20    1
    66    85    84    2
    67    66    69   am
    68    66    67    2
    69    69    70    1
    70    20    21    2
    71    72    71    2
    72    84    83    1
    73    88    86    1
    74    70    71    1
    75    70    73    1
    76    71    74   am
    77    86    83    1
    78    86    87    1
    79    83    82    1
    80    80    79    1
    81    74    75    1
    82    75    78    1
    83    75    76    1
    84    78    79    1
    85    79    81    1
    86    76    77    2
