@<TRIPOS>MOLECULE
tmp/4tr0B00.pdb
 117 119 0 0 0
SMALL
GASTEIGER

@<TRIPOS>ATOM
      1  N          9.1200    1.3500   33.8610 N.3     9  LYS9       -0.1231
      2  CA         8.1400    2.3540   33.4080 C.3     9  LYS9        0.1693
      3  C          8.8720    3.2320   32.4030 C.2     9  LYS9        0.2592
      4  O         10.1050    3.2630   32.3970 O.2     9  LYS9       -0.2718
      5  CB         7.5760    3.1970   34.5710 C.3     9  LYS9        0.0285
      6  CG         6.7490    2.3280   35.5780 C.3     9  LYS9        0.0035
      7  CD         6.2650    3.2200   36.7160 C.3     9  LYS9        0.0206
      8  CE         5.4820    2.4970   37.8290 C.3     9  LYS9        0.1093
      9  NZ         5.3020    3.5370   39.0100 N.3     9  LYS9       -0.1314
     10  N          8.1090    3.8840   31.5290 N.am   10  ASN10      -0.1960
     11  CA         8.6410    4.8220   30.5440 C.3    10  ASN10       0.1819
     12  C          9.2180    6.0430   31.2800 C.2    10  ASN10       0.2621
     13  O          8.8550    6.3090   32.4410 O.2    10  ASN10      -0.2715
     14  CB         7.5350    5.2770   29.5900 C.3    10  ASN10       0.1195
     15  CG         7.0490    4.1670   28.6760 C.2    10  ASN10       0.2630
     16  OD1        6.1590    4.3790   27.9110 O.2    10  ASN10      -0.2716
     17  ND2        7.6380    2.9730   28.7730 N.am   10  ASN10      -0.0877
     18  N         10.1170    6.7600   30.6210 N.am   11  TYR11      -0.1960
     19  CA        10.8230    7.9190   31.2230 C.3    11  TYR11       0.1771
     20  C         11.5350    7.5750   32.5270 C.2    11  TYR11       0.2620
     21  O         11.3490    8.2400   33.5420 O.2    11  TYR11      -0.2715
     22  CB         9.8970    9.1420   31.3880 C.3    11  TYR11       0.0574
     23  CG         9.2830    9.5380   30.0670 C.ar   11  TYR11      -0.0198
     24  CD1        9.9970   10.2850   29.1510 C.ar   11  TYR11      -0.0009
     25  CD2        7.9800    9.1420   29.7370 C.ar   11  TYR11      -0.0009
     26  CE1        9.4400   10.6110   27.9050 C.ar   11  TYR11       0.0417
     27  CE2        7.4140    9.4610   28.4980 C.ar   11  TYR11       0.0417
     28  CZ         8.1590   10.1970   27.5890 C.ar   11  TYR11       0.1957
     29  OH         7.6230   10.5360   26.3630 O.3    11  TYR11      -0.2866
     30  N         12.4030    6.5790   32.4660 N.am   12  CYS12      -0.1954
     31  CA        13.0280    6.0330   33.6750 C.3    12  CYS12       0.1828
     32  C         14.4970    5.7820   33.3710 C.2    12  CYS12       0.2467
     33  O         14.8380    4.7620   32.8190 O.2    12  CYS12      -0.2730
     34  CB        12.3130    4.7490   34.0580 C.3    12  CYS12       0.0996
     35  SG        13.0740    3.9140   35.4680 S.3    12  CYS12      -0.0797
     36  N         15.3870    6.7630   33.6560 N.am   13  PRO13      -0.2715
     37  CA        16.8270    6.6090   33.3570 C.3    13  PRO13       0.1536
     38  C         17.4510    5.3580   34.0300 C.2    13  PRO13       0.2598
     39  O         18.3150    4.6830   33.4480 O.2    13  PRO13      -0.2715
     40  CB        17.4470    7.8930   33.9610 C.3    13  PRO13       0.0310
     41  CG        16.3560    8.8820   33.9580 C.3    13  PRO13       0.0237
     42  CD        15.0510    8.1030   34.1610 C.3    13  PRO13       0.0939
     43  N         17.0000    5.0550   35.2470 N.am   14  TYR14      -0.1974
     44  CA        17.4460    3.8650   35.9840 C.3    14  TYR14       0.1639
     45  C         17.0740    2.5880   35.2220 C.2    14  TYR14       0.2290
     46  O         17.8460    1.6040   35.2140 O.2    14  TYR14      -0.2864
     47  CB        16.8310    3.8420   37.4010 C.3    14  TYR14       0.0560
     48  CG        17.5150    4.8250   38.3330 C.ar   14  TYR14      -0.0198
     49  CD1       17.1630    6.1620   38.3260 C.ar   14  TYR14      -0.0009
     50  CD2       18.5500    4.4300   39.1560 C.ar   14  TYR14      -0.0009
     51  CE1       17.8300    7.1070   39.1300 C.ar   14  TYR14       0.0417
     52  CE2       19.2150    5.3600   39.9710 C.ar   14  TYR14       0.0417
     53  CZ        18.8470    6.6910   39.9250 C.ar   14  TYR14       0.1957
     54  OH        19.4700    7.5960   40.7120 O.3    14  TYR14      -0.2866
     55  N          9.2870   -2.4850   47.5500 N.3    50  TRP50      -0.1227
     56  CA         9.8770   -1.3120   46.8950 C.3    50  TRP50       0.1737
     57  C          8.8780   -0.5860   46.0070 C.2    50  TRP50       0.2595
     58  O          8.1740   -1.2350   45.2460 O.2    50  TRP50      -0.2718
     59  CB        11.0300   -1.7410   46.0120 C.3    50  TRP50       0.0564
     60  CG        12.2470   -2.2740   46.7700 C.ar   50  TRP50       0.0003
     61  CD1       12.2760   -2.9900   47.9400 C.ar   50  TRP50       0.0946
     62  CD2       13.5800   -2.0950   46.3630 C.ar   50  TRP50       0.0152
     63  NE1       13.5900   -3.2840   48.2800 N.ar   50  TRP50      -0.2442
     64  CE2       14.4090   -2.7240   47.3240 C.ar   50  TRP50       0.0810
     65  CE3       14.1720   -1.4140   45.2800 C.ar   50  TRP50       0.0012
     66  CZ2       15.8160   -2.7280   47.2200 C.ar   50  TRP50       0.0191
     67  CZ3       15.5780   -1.4390   45.1700 C.ar   50  TRP50       0.0001
     68  CH2       16.3750   -2.1040   46.1300 C.ar   50  TRP50       0.0015
     69  N          8.8670    0.7440   46.0130 N.am   51  ASP51      -0.1960
     70  CA         7.9070    1.4540   45.1650 C.3    51  ASP51       0.1840
     71  C          8.5150    2.0410   43.8860 C.2    51  ASP51       0.2623
     72  O          7.8570    2.7950   43.1430 O.2    51  ASP51      -0.2715
     73  CB         7.1610    2.5220   45.9930 C.3    51  ASP51       0.1450
     74  CG         8.0510    3.6890   46.3930 C.2    51  ASP51       0.3671
     75  OD1        9.2570    3.6640   46.1020 O.co2  51  ASP51      -0.2456
     76  OD2        7.5580    4.6390   47.0260 O.co2  51  ASP51      -0.2456
     77  N          9.7640    1.6920   43.6080 N.am   52  THR52      -0.1937
     78  CA        10.4510    2.2730   42.4680 C.3    52  THR52       0.2028
     79  C         10.6400    1.2720   41.3240 C.2    52  THR52       0.2642
     80  O         10.5130    0.0390   41.5130 O.2    52  THR52      -0.2714
     81  CB        11.8750    2.8010   42.8390 C.3    52  THR52       0.1808
     82  OG1       12.6380    1.7750   43.4990 O.3    52  THR52      -0.2208
     83  CG2       11.8020    4.0450   43.7140 C.3    52  THR52       0.0379
     84  N         10.9890    1.7910   40.1470 N.am   53  VAL53      -0.1963
     85  CA        11.4540    0.9070   39.0740 C.3    53  VAL53       0.1712
     86  C         12.8760    1.3350   38.7390 C.2    53  VAL53       0.2458
     87  O         13.2030    2.4830   38.9050 O.2    53  VAL53      -0.2730
     88  CB        10.5230    0.9950   37.8360 C.3    53  VAL53       0.0289
     89  CG1        9.2330    0.1920   38.0690 C.3    53  VAL53       0.0023
     90  CG2       10.2450    2.4290   37.4550 C.3    53  VAL53       0.0023
     91  N         13.7220    0.4220   38.2110 N.am   54  PRO54      -0.2727
     92  CA        13.3240   -0.9280   37.8210 C.3    54  PRO54       0.1402
     93  C         13.3750   -1.9250   39.0130 C.2    54  PRO54       0.2269
     94  O         14.0290   -1.6740   40.0590 O.2    54  PRO54      -0.2865
     95  CB        14.3640   -1.2800   36.7290 C.3    54  PRO54       0.0296
     96  CG        15.7000   -0.6160   37.2920 C.3    54  PRO54       0.0237
     97  CD        15.1510    0.7240   37.9070 C.3    54  PRO54       0.0939
     98  N         17.0870   -2.9380   42.2630 N.3    65  GLY65      -0.1225
     99  CA        16.9530   -2.0750   41.1060 C.3    65  GLY65       0.1811
    100  C         18.2730   -1.8380   40.3780 C.2    65  GLY65       0.2280
    101  O         19.1410   -2.7020   40.3960 O.2    65  GLY65      -0.2866
    102  N         20.8580    0.2980   40.8530 N.3    66  ASP66      -0.1225
    103  CA        22.0570    0.5130   41.6930 C.3    66  ASP66       0.1805
    104  C         22.4850   -0.8310   42.2040 C.2    66  ASP66       0.2597
    105  O         23.6700   -1.1840   42.1990 O.2    66  ASP66      -0.2718
    106  CB        21.7760    1.4860   42.8820 C.3    66  ASP66       0.1424
    107  CG        21.5850    2.9410   42.4490 C.2    66  ASP66       0.3668
    108  OD1       22.0920    3.3810   41.3830 O.co2  66  ASP66      -0.2456
    109  OD2       20.9040    3.6810   43.1900 O.co2  66  ASP66      -0.2456
    110  N         21.4960   -1.6300   42.6040 N.am   67  ASP67      -0.1974
    111  CA        21.7720   -2.9310   43.1790 C.3    67  ASP67       0.1709
    112  C         22.4360   -3.9140   42.2070 C.2    67  ASP67       0.2293
    113  O         23.4250   -4.5530   42.5620 O.2    67  ASP67      -0.2864
    114  CB        20.4840   -3.4970   43.7460 C.3    67  ASP67       0.1436
    115  CG        19.7980   -2.4940   44.6120 C.2    67  ASP67       0.3671
    116  OD1       20.1490   -2.4780   45.8090 O.co2  67  ASP67      -0.2456
    117  OD2       18.9840   -1.6740   44.0760 O.co2  67  ASP67      -0.2456
@<TRIPOS>BOND
     1    29    28    1
     2    28    26   ar
     3    28    27   ar
     4    26    24   ar
     5    16    15    2
     6    27    25   ar
     7    15    17   am
     8    15    14    1
     9    24    23   ar
    10    14    11    1
    11    25    23   ar
    12    23    22    1
    13    11    12    1
    14    11    10    1
    15    18    19    1
    16    18    12   am
    17    19    22    1
    18    19    20    1
    19    12    13    2
    20    10     3   am
    21     4     3    2
    22     3     2    1
    23    30    20   am
    24    30    31    1
    25    20    21    2
    26    33    32    2
    27    37    36    1
    28    37    40    1
    29    37    38    1
    30    32    36   am
    31    32    31    1
    32     2     1    1
    33     2     5    1
    34    39    38    2
    35    36    42    1
    36    31    34    1
    37    41    40    1
    38    41    42    1
    39    38    43   am
    40    34    35    1
    41     5     6    1
    42    46    45    2
    43    45    44    1
    44    43    44    1
    45     6     7    1
    46    44    47    1
    47     7     8    1
    48    95    96    1
    49    95    92    1
    50    96    97    1
    51    47    48    1
    52    90    88    1
    53    92    91    1
    54    92    93    1
    55     8     9    1
    56    88    89    1
    57    88    85    1
    58    97    91    1
    59    91    86   am
    60    49    48   ar
    61    49    51   ar
    62    48    50   ar
    63    86    87    2
    64    86    85    1
    65    93    94    2
    66    85    84    1
    67    51    53   ar
    68    50    52   ar
    69    53    52   ar
    70    53    54    1
    71    84    79   am
    72   100   101    2
    73   100    99    1
    74   102   103    1
    75    99    98    1
    76    79    80    2
    77    79    78    1
    78   108   107   ar
    79   103   104    1
    80   103   106    1
    81   105   104    2
    82   104   110   am
    83   112   113    2
    84   112   111    1
    85   107   106    1
    86   107   109   ar
    87    78    81    1
    88    78    77    1
    89   110   111    1
    90    81    82    1
    91    81    83    1
    92    72    71    2
    93   111   114    1
    94    77    71   am
    95   114   115    1
    96    71    70    1
    97   117   115   ar
    98   115   116   ar
    99    70    73    1
   100    70    69    1
   101    67    65   ar
   102    67    68   ar
   103    58    57    2
   104    65    62   ar
   105    73    74    1
   106    57    69   am
   107    57    56    1
   108    59    60    1
   109    59    56    1
   110    75    74   ar
   111    68    66   ar
   112    62    60   ar
   113    62    64   ar
   114    74    76   ar
   115    60    61   ar
   116    56    55    1
   117    66    64   ar
   118    64    63   ar
   119    61    63   ar
