@<TRIPOS>MOLECULE
tmp/4tr9A02.pdb
 136 124 0 0 0
SMALL
GASTEIGER

@<TRIPOS>ATOM
      1  N         -2.8010  -12.9920   17.4380 N.3    33  ALA33      -0.1245
      2  CA        -2.9650  -13.6610   18.7230 C.3    33  ALA33       0.1562
      3  C         -3.8690  -14.8830   18.5990 C.2    33  ALA33       0.2260
      4  O         -5.0880  -14.7800   18.7320 O.2    33  ALA33      -0.2867
      5  CB        -3.5210  -12.6930   19.7570 C.3    33  ALA33       0.0290
      6  N         -3.4310  -17.7810   20.5180 N.3    35  ASP35      -0.1225
      7  CA        -2.9990  -18.6170   21.6310 C.3    35  ASP35       0.1805
      8  C         -4.1140  -18.8370   22.6480 C.2    35  ASP35       0.2598
      9  O         -3.8880  -18.7610   23.8550 O.2    35  ASP35      -0.2718
     10  CB        -1.7810  -17.9970   22.3190 C.3    35  ASP35       0.1424
     11  CG        -1.9870  -16.5360   22.6600 C.2    35  ASP35       0.3668
     12  OD1       -2.7110  -15.8460   21.9130 O.co2  35  ASP35      -0.2456
     13  OD2       -1.4230  -16.0760   23.6750 O.co2  35  ASP35      -0.2456
     14  N         -5.3160  -19.1140   22.1540 N.am   36  GLU36      -0.1965
     15  CA        -6.4540  -19.3860   23.0230 C.3    36  GLU36       0.1733
     16  C         -6.3090  -20.7490   23.6900 C.2    36  GLU36       0.2617
     17  O         -5.9160  -21.7230   23.0480 O.2    36  GLU36      -0.2715
     18  CB        -7.7680  -19.3280   22.2380 C.3    36  GLU36       0.0429
     19  CG        -8.0730  -17.9780   21.6050 C.3    36  GLU36       0.1163
     20  CD        -7.3540  -17.7690   20.2850 C.2    36  GLU36       0.3649
     21  OE1       -6.7860  -18.7450   19.7530 O.co2  36  GLU36      -0.2457
     22  OE2       -7.3590  -16.6260   19.7810 O.co2  36  GLU36      -0.2457
     23  N         -6.6270  -20.8140   24.9790 N.am   37  SER37      -0.1950
     24  CA        -6.5740  -22.0740   25.7110 C.3    37  SER37       0.1924
     25  C         -7.7220  -22.9850   25.2870 C.2    37  SER37       0.2314
     26  O         -8.5560  -22.6030   24.4660 O.2    37  SER37      -0.2863
     27  CB        -6.6200  -21.8280   27.2200 C.3    37  SER37       0.2116
     28  OG        -7.8340  -21.2090   27.6040 O.3    37  SER37      -0.2180
     29  N        -10.3430  -24.1400   27.0440 N.3    39  GLN39      -0.1231
     30  CA       -11.6370  -23.6280   27.4800 C.3    39  GLN39       0.1698
     31  C        -11.9620  -22.2970   26.8060 C.2    39  GLN39       0.2592
     32  O        -13.1250  -21.9050   26.7170 O.2    39  GLN39      -0.2718
     33  CB       -11.6670  -23.4680   29.0010 C.3    39  GLN39       0.0381
     34  CG       -10.6580  -22.4690   29.5430 C.3    39  GLN39       0.0905
     35  CD       -10.7480  -22.3080   31.0480 C.2    39  GLN39       0.2608
     36  OE1      -11.4520  -23.0590   31.7230 O.2    39  GLN39      -0.2717
     37  NE2      -10.0340  -21.3230   31.5810 N.am   39  GLN39      -0.0878
     38  N        -10.9280  -21.6080   26.3320 N.am   40  THR40      -0.1953
     39  CA       -11.1060  -20.3250   25.6600 C.3    40  THR40       0.1897
     40  C        -11.5500  -20.5230   24.2150 C.2    40  THR40       0.2313
     41  O        -12.4870  -19.8750   23.7480 O.2    40  THR40      -0.2863
     42  CB        -9.8120  -19.4890   25.6780 C.3    40  THR40       0.1794
     43  OG1       -9.3860  -19.2890   27.0310 O.3    40  THR40      -0.2208
     44  CG2      -10.0420  -18.1380   25.0190 C.3    40  THR40       0.0378
     45  N        -15.3590  -21.7330   23.7180 N.3    43  LYS43      -0.1231
     46  CA       -16.4400  -20.7580   23.6400 C.3    43  LYS43       0.1693
     47  C        -16.5380  -20.1370   22.2490 C.2    43  LYS43       0.2591
     48  O        -17.5590  -19.5510   21.8920 O.2    43  LYS43      -0.2718
     49  CB       -16.2480  -19.6650   24.6930 C.3    43  LYS43       0.0285
     50  CG       -16.2030  -20.1870   26.1200 C.3    43  LYS43       0.0035
     51  CD       -16.0650  -19.0540   27.1230 C.3    43  LYS43       0.0206
     52  CE       -16.0000  -19.5860   28.5460 C.3    43  LYS43       0.1093
     53  NZ       -17.2020  -20.3950   28.8900 N.3    43  LYS43      -0.1314
     54  N        -15.4690  -20.2670   21.4690 N.am   44  ARG44      -0.1980
     55  CA       -15.4660  -19.7950   20.0900 C.3    44  ARG44       0.1597
     56  C        -16.1620  -20.8000   19.1800 C.2    44  ARG44       0.2287
     57  O        -16.9810  -20.4270   18.3410 O.2    44  ARG44      -0.2864
     58  CB       -14.0360  -19.5460   19.6080 C.3    44  ARG44       0.0334
     59  CG       -13.2700  -18.5590   20.4670 C.3    44  ARG44       0.0492
     60  CD       -13.9650  -17.2110   20.4980 C.3    44  ARG44       0.2205
     61  NE       -13.6130  -16.4490   21.6910 N.pl3  44  ARG44      -0.0865
     62  CZ       -14.3670  -16.3830   22.7830 C.cat  44  ARG44       0.5346
     63  NH1      -13.9680  -15.6670   23.8250 N.pl3  44  ARG44       0.1354
     64  NH2      -15.5240  -17.0300   22.8310 N.pl3  44  ARG44       0.1354
     65  N          2.4350  -18.6180   24.3040 N.3   108  LYS108     -0.1245
     66  CA         1.8450  -18.1850   25.5630 C.3   108  LYS108      0.1561
     67  C          2.4230  -19.0120   26.7070 C.2   108  LYS108      0.2260
     68  O          2.3270  -20.2380   26.7000 O.2   108  LYS108     -0.2867
     69  CB         0.3230  -18.3250   25.5070 C.3   108  LYS108      0.0271
     70  CG        -0.3920  -18.0600   26.8150 C.3   108  LYS108      0.0035
     71  CD        -1.8570  -18.4510   26.7030 C.3   108  LYS108      0.0206
     72  CE        -2.6210  -18.1300   27.9730 C.3   108  LYS108      0.1093
     73  NZ        -2.6840  -16.6640   28.2110 N.3   108  LYS108     -0.1314
     74  N          4.6580  -14.6400   25.5650 N.3   147  LYS147     -0.1245
     75  CA         3.6100  -13.7320   26.0190 C.3   147  LYS147      0.1561
     76  C          3.1290  -14.0960   27.4250 C.2   147  LYS147      0.2260
     77  O          3.1700  -15.2580   27.8250 O.2   147  LYS147     -0.2867
     78  CB         2.4360  -13.7420   25.0410 C.3   147  LYS147      0.0271
     79  CG         1.6150  -12.4640   25.0520 C.3   147  LYS147      0.0035
     80  CD         0.1380  -12.7700   24.9350 C.3   147  LYS147      0.0206
     81  CE        -0.3130  -13.6430   26.0900 C.3   147  LYS147      0.1093
     82  NZ        -1.7630  -13.9460   26.0240 N.3   147  LYS147     -0.1314
     83  N         -0.0120  -12.6400   30.0500 N.3   149  ARG149     -0.1245
     84  CA        -1.1310  -11.7200   30.2330 C.3   149  ARG149      0.1563
     85  C         -1.4980  -11.5010   31.6980 C.2   149  ARG149      0.2260
     86  O         -1.7710  -12.4490   32.4310 O.2   149  ARG149     -0.2867
     87  CB        -2.3560  -12.2260   29.4700 C.3   149  ARG149      0.0307
     88  CG        -3.6180  -11.4100   29.7010 C.3   149  ARG149      0.0489
     89  CD        -4.7530  -11.9060   28.8210 C.3   149  ARG149      0.2205
     90  NE        -5.9990  -11.1840   29.0570 N.pl3 149  ARG149     -0.0865
     91  CZ        -6.9750  -11.6150   29.8500 C.cat 149  ARG149      0.5346
     92  NH1       -8.0750  -10.8920   30.0040 N.pl3 149  ARG149      0.1354
     93  NH2       -6.8500  -12.7700   30.4900 N.pl3 149  ARG149      0.1354
     94  N          2.2560   -7.7700   28.9040 N.3   190  GLU190     -0.1245
     95  CA         0.8470   -7.4280   28.7500 C.3   190  GLU190      0.1567
     96  C          0.1780   -7.1110   30.0860 C.2   190  GLU190      0.2260
     97  O         -0.3420   -8.0050   30.7540 O.2   190  GLU190     -0.2867
     98  CB         0.0980   -8.5660   28.0500 C.3   190  GLU190      0.0388
     99  CG        -1.3690   -8.2690   27.7690 C.3   190  GLU190      0.1160
    100  CD        -2.0880   -9.4370   27.1250 C.2   190  GLU190      0.3649
    101  OE1       -1.4130  -10.4210   26.7550 O.co2 190  GLU190     -0.2457
    102  OE2       -3.3290   -9.3740   26.9900 O.co2 190  GLU190     -0.2457
    103  N         -2.8090   -5.7710   30.8400 N.3   192  GLU192     -0.1245
    104  CA        -4.1200   -5.3880   30.3320 C.3   192  GLU192      0.1567
    105  C         -5.0200   -4.8030   31.4120 C.2   192  GLU192      0.2260
    106  O         -5.2900   -5.4420   32.4290 O.2   192  GLU192     -0.2867
    107  CB        -4.8220   -6.5820   29.6840 C.3   192  GLU192      0.0388
    108  CG        -6.2150   -6.2490   29.1650 C.3   192  GLU192      0.1160
    109  CD        -6.9410   -7.4560   28.6090 C.2   192  GLU192      0.3649
    110  OE1       -6.3740   -8.5680   28.6560 O.co2 192  GLU192     -0.2457
    111  OE2       -8.0810   -7.2920   28.1260 O.co2 192  GLU192     -0.2457
    112  N         -8.7550   -3.7960   32.0610 N.3   194  LEU194     -0.1245
    113  CA       -10.0960   -4.0330   31.5350 C.3   194  LEU194      0.1561
    114  C        -10.8790   -2.7350   31.3650 C.2   194  LEU194      0.2260
    115  O        -10.7930   -1.8330   32.1980 O.2   194  LEU194     -0.2867
    116  CB       -10.8660   -4.9850   32.4510 C.3   194  LEU194      0.0270
    117  CG       -10.2880   -6.3920   32.6010 C.3   194  LEU194      0.0019
    118  CD1      -11.1910   -7.2530   33.4700 C.3   194  LEU194      0.0001
    119  CD2      -10.0810   -7.0300   31.2370 C.3   194  LEU194      0.0001
    120  N          2.2440   -4.8850   25.4340 N.3   232  LYS232     -0.1245
    121  CA         0.8910   -5.1640   24.9680 C.3   232  LYS232      0.1561
    122  C         -0.1430   -4.5970   25.9350 C.2   232  LYS232      0.2260
    123  O         -0.7020   -5.3260   26.7540 O.2   232  LYS232     -0.2867
    124  CB         0.6800   -6.6700   24.7850 C.3   232  LYS232      0.0271
    125  CG        -0.6490   -7.0420   24.1410 C.3   232  LYS232      0.0035
    126  CD        -0.7440   -8.5360   23.8820 C.3   232  LYS232      0.0206
    127  CE        -2.0710   -8.9020   23.2360 C.3   232  LYS232      0.1093
    128  NZ        -2.1510  -10.3530   22.9130 N.3   232  LYS232     -0.1314
    129  N         -3.8920   -4.5670   22.1570 N.3   273  LEU273     -0.1245
    130  CA        -4.8320   -5.6780   22.1860 C.3   273  LEU273      0.1561
    131  C         -6.2330   -5.1790   21.8470 C.2   273  LEU273      0.2260
    132  O         -6.6260   -4.0870   22.2560 O.2   273  LEU273     -0.2867
    133  CB        -4.8110   -6.3700   23.5520 C.3   273  LEU273      0.0270
    134  CG        -5.0560   -5.5260   24.8070 C.3   273  LEU273      0.0019
    135  CD1       -6.5280   -5.5250   25.2000 C.3   273  LEU273      0.0001
    136  CD2       -4.1900   -6.0170   25.9590 C.3   273  LEU273      0.0001
@<TRIPOS>BOND
     1     1     2    1
     2    57    56    2
     3     3     2    1
     4     3     4    2
     5     2     5    1
     6    56    55    1
     7    58    55    1
     8    58    59    1
     9    21    20   ar
    10    22    20   ar
    11    55    54    1
    12    20    19    1
    13    59    60    1
    14    60    61    1
    15     6     7    1
    16    54    47   am
    17    19    18    1
    18     7    10    1
    19     7     8    1
    20    61    62    2
    21   131   130    1
    22   131   132    2
    23    48    47    2
    24    12    11   ar
    25    14     8   am
    26    14    15    1
    27   129   130    1
    28   130   133    1
    29    18    15    1
    30    47    46    1
    31    10    11    1
    32     8     9    2
    33    11    13   ar
    34    62    64    1
    35    62    63    1
    36   128   127    1
    37    15    16    1
    38    17    16    2
    39   127   126    1
    40   133   134    1
    41    46    45    1
    42    46    49    1
    43    16    23   am
    44    41    40    2
    45   126   125    1
    46   125   124    1
    47    40    39    1
    48    65    66    1
    49    26    25    2
    50    49    50    1
    51   124   121    1
    52   134   135    1
    53   134   136    1
    54    80    79    1
    55    80    81    1
    56   121   120    1
    57   121   122    1
    58    23    24    1
    59    44    42    1
    60    78    79    1
    61    78    75    1
    62    25    24    1
    63    69    66    1
    64    69    70    1
    65    66    67    1
    66    74    75    1
    67    39    42    1
    68    39    38    1
    69    42    43    1
    70    24    27    1
    71   122   123    2
    72    75    76    1
    73    82    81    1
    74    50    51    1
    75    38    31   am
    76    68    67    2
    77    71    70    1
    78    71    72    1
    79    32    31    2
    80   101   100   ar
    81    31    30    1
    82   102   100   ar
    83    29    30    1
    84    51    52    1
    85   100    99    1
    86    27    28    1
    87    76    77    2
    88    30    33    1
    89    99    98    1
    90    72    73    1
    91    98    95    1
    92   111   109   ar
    93    52    53    1
    94   109   110   ar
    95   109   108    1
    96    95    94    1
    97    95    96    1
    98    89    90    1
    99    89    88    1
   100    33    34    1
   101    90    91    2
   102   108   107    1
   103    87    88    1
   104    87    84    1
   105    34    35    1
   106   107   104    1
   107    91    92    1
   108    91    93    1
   109    83    84    1
   110    96    97    2
   111    84    85    1
   112   104   103    1
   113   104   105    1
   114    35    37   am
   115    35    36    2
   116   119   117    1
   117   114   113    1
   118   114   115    2
   119   105   106    2
   120   113   112    1
   121   113   116    1
   122    85    86    2
   123   116   117    1
   124   117   118    1
