@<TRIPOS>MOLECULE
tmp/4tr9A00.pdb
 81 81 0 0 0
SMALL
GASTEIGER

@<TRIPOS>ATOM
      1  N         -5.8530   10.2720   20.9100 N.3   253  PHE253     -0.1241
      2  CA        -5.1240   11.3290   21.6050 C.3   253  PHE253      0.1605
      3  C         -4.6460   10.8890   22.9850 C.2   253  PHE253      0.2264
      4  O         -3.4620   10.9980   23.3080 O.2   253  PHE253     -0.2867
      5  CB        -5.9930   12.5820   21.7370 C.3   253  PHE253      0.0534
      6  CG        -5.4440   13.6000   22.7000 C.ar  253  PHE253     -0.0203
      7  CD1       -4.3720   14.4020   22.3440 C.ar  253  PHE253     -0.0042
      8  CD2       -6.0030   13.7570   23.9590 C.ar  253  PHE253     -0.0042
      9  CE1       -3.8650   15.3380   23.2270 C.ar  253  PHE253     -0.0003
     10  CE2       -5.5000   14.6910   24.8460 C.ar  253  PHE253     -0.0003
     11  CZ        -4.4300   15.4830   24.4800 C.ar  253  PHE253     -0.0000
     12  N         -1.9120    8.0570   22.8360 N.3   256  VAL256     -0.1231
     13  CA        -0.5820    8.5410   22.4800 C.3   256  VAL256      0.1692
     14  C          0.0410    9.3230   23.6340 C.2   256  VAL256      0.2591
     15  O          1.2180    9.1450   23.9510 O.2   256  VAL256     -0.2718
     16  CB        -0.6230    9.4280   21.2160 C.3   256  VAL256      0.0266
     17  CG1        0.7050   10.1400   21.0110 C.3   256  VAL256      0.0020
     18  CG2       -0.9740    8.5920   19.9940 C.3   256  VAL256      0.0020
     19  N         -0.7570   10.1790   24.2660 N.am  257  ARG257     -0.1980
     20  CA        -0.2880   10.9680   25.4000 C.3   257  ARG257      0.1597
     21  C          0.1520   10.0720   26.5540 C.2   257  ARG257      0.2287
     22  O          1.1650   10.3320   27.2010 O.2   257  ARG257     -0.2864
     23  CB        -1.3770   11.9300   25.8780 C.3   257  ARG257      0.0334
     24  CG        -0.9050   12.9060   26.9460 C.3   257  ARG257      0.0492
     25  CD        -2.0560   13.7140   27.5160 C.3   257  ARG257      0.2205
     26  NE        -2.8680   12.9290   28.4400 N.pl3 257  ARG257     -0.0865
     27  CZ        -3.9040   13.4110   29.1160 C.cat 257  ARG257      0.5346
     28  NH1       -4.5870   12.6250   29.9380 N.pl3 257  ARG257      0.1354
     29  NH2       -4.2590   14.6800   28.9710 N.pl3 257  ARG257      0.1354
     30  N          3.5250    8.3120   25.5370 N.3   260  ARG260     -0.1245
     31  CA         4.6430    9.2480   25.4860 C.3   260  ARG260      0.1563
     32  C          5.1070    9.6480   26.8830 C.2   260  ARG260      0.2260
     33  O          6.2750    9.9750   27.0860 O.2   260  ARG260     -0.2867
     34  CB         4.2650   10.4940   24.6830 C.3   260  ARG260      0.0307
     35  CG         4.1250   10.2500   23.1890 C.3   260  ARG260      0.0489
     36  CD         3.8140   11.5370   22.4450 C.3   260  ARG260      0.2205
     37  NE         4.8540   12.5430   22.6350 N.pl3 260  ARG260     -0.0865
     38  CZ         5.9450   12.6400   21.8830 C.cat 260  ARG260      0.5346
     39  NH1        6.8390   13.5880   22.1270 N.pl3 260  ARG260      0.1354
     40  NH2        6.1450   11.7880   20.8860 N.pl3 260  ARG260      0.1354
     41  N         -2.5820    7.9110   13.0440 N.3   291  ALA291     -0.1231
     42  CA        -2.8340    9.0990   12.2400 C.3   291  ALA291      0.1694
     43  C         -2.1730   10.3230   12.8650 C.2   291  ALA291      0.2592
     44  O         -2.1180   11.3890   12.2530 O.2   291  ALA291     -0.2718
     45  CB        -4.3300    9.3270   12.0750 C.3   291  ALA291      0.0304
     46  N         -1.6680   10.1630   14.0850 N.am  292  LEU292     -0.1966
     47  CA        -1.0290   11.2610   14.8020 C.3   292  LEU292      0.1728
     48  C          0.4810   11.2940   14.5720 C.2   292  LEU292      0.2617
     49  O          1.2590   11.4540   15.5130 O.2   292  LEU292     -0.2715
     50  CB        -1.3290   11.1640   16.2990 C.3   292  LEU292      0.0311
     51  CG        -2.8050   11.2650   16.6950 C.3   292  LEU292      0.0022
     52  CD1       -2.9690   11.1510   18.2020 C.3   292  LEU292      0.0001
     53  CD2       -3.4120   12.5630   16.1850 C.3   292  LEU292      0.0001
     54  N          0.8870   11.1290   13.3150 N.am  293  GLY293     -0.1941
     55  CA         2.2800   11.2600   12.9230 C.3   293  GLY293      0.1998
     56  C          3.1890   10.1390   13.3900 C.2   293  GLY293      0.2481
     57  O          2.8240    9.3660   14.2740 O.2   293  GLY293     -0.2729
     58  N          4.3920   10.0530   12.8010 N.am  294  PRO294     -0.2715
     59  CA         5.3770    9.0140   13.1270 C.3   294  PRO294      0.1536
     60  C          5.8030    9.0480   14.5950 C.2   294  PRO294      0.2599
     61  O          6.3660   10.0410   15.0570 O.2   294  PRO294     -0.2715
     62  CB         6.5560    9.3450   12.2050 C.3   294  PRO294      0.0310
     63  CG         6.3870   10.7900   11.8680 C.3   294  PRO294      0.0237
     64  CD         4.9080   11.0120   11.8110 C.3   294  PRO294      0.0939
     65  N          5.5330    7.9620   15.3120 N.am  295  HIS295     -0.1960
     66  CA         5.8210    7.8800   16.7400 C.3   295  HIS295      0.1772
     67  C          7.2310    7.3520   17.0030 C.2   295  HIS295      0.2462
     68  O          7.8140    6.6930   16.1430 O.2   295  HIS295     -0.2730
     69  CB         4.7840    6.9890   17.4320 C.3   295  HIS295      0.0785
     70  CG         3.3740    7.4510   17.2460 C.ar  295  HIS295      0.0821
     71  ND1        2.9010    8.6330   17.7720 N.ar  295  HIS295     -0.2267
     72  CD2        2.3290    6.8870   16.5920 C.ar  295  HIS295      0.1154
     73  CE1        1.6280    8.7800   17.4500 C.ar  295  HIS295      0.1986
     74  NE2        1.2580    7.7330   16.7340 N.ar  295  HIS295     -0.2212
     75  N          7.7860    7.6510   18.1910 N.am  296  PRO296     -0.2727
     76  CA         9.1000    7.1350   18.5970 C.3   296  PRO296      0.1402
     77  C          9.1770    5.6100   18.5650 C.2   296  PRO296      0.2269
     78  O         10.2560    5.0530   18.3650 O.2   296  PRO296     -0.2865
     79  CB         9.2500    7.6530   20.0300 C.3   296  PRO296      0.0296
     80  CG         8.4350    8.8900   20.0590 C.3   296  PRO296      0.0237
     81  CD         7.2570    8.6200   19.1690 C.3   296  PRO296      0.0939
@<TRIPOS>BOND
     1    64    63    1
     2    64    58    1
     3    63    62    1
     4    45    42    1
     5    62    59    1
     6    42    43    1
     7    42    41    1
     8    44    43    2
     9    58    59    1
    10    58    56   am
    11    43    46   am
    12    55    54    1
    13    55    56    1
    14    59    60    1
    15    54    48   am
    16    56    57    2
    17    46    47    1
    18    48    47    1
    19    48    49    2
    20    60    61    2
    21    60    65   am
    22    47    50    1
    23    65    66    1
    24    68    67    2
    25    53    51    1
    26    50    51    1
    27    72    74   ar
    28    72    70   ar
    29    51    52    1
    30    74    73   ar
    31    66    67    1
    32    66    69    1
    33    67    75   am
    34    70    69    1
    35    70    71   ar
    36    73    71   ar
    37    75    76    1
    38    75    81    1
    39    78    77    2
    40    77    76    1
    41    76    79    1
    42    81    80    1
    43    18    16    1
    44    79    80    1
    45    40    38    1
    46     1     2    1
    47    17    16    1
    48    16    13    1
    49     2     5    1
    50     2     3    1
    51     5     6    1
    52    38    39    1
    53    38    37    2
    54     7     6   ar
    55     7     9   ar
    56    36    37    1
    57    36    35    1
    58    13    12    1
    59    13    14    1
    60     6     8   ar
    61     3     4    2
    62    35    34    1
    63     9    11   ar
    64    14    15    2
    65    14    19   am
    66     8    10   ar
    67    19    20    1
    68    11    10   ar
    69    34    31    1
    70    20    23    1
    71    20    21    1
    72    31    30    1
    73    31    32    1
    74    23    24    1
    75    21    22    2
    76    32    33    2
    77    24    25    1
    78    25    26    1
    79    26    27    2
    80    29    27    1
    81    27    28    1
