@<TRIPOS>MOLECULE
tmp/4trfA00.pdb
 93 91 0 0 0
SMALL
GASTEIGER

@<TRIPOS>ATOM
      1  N         -6.1560   58.5990  114.2800 N.3     1  PRO1       -0.2102
      2  CA        -5.8940   59.0130  112.8780 C.3     1  PRO1        0.1504
      3  C         -6.9390   59.9500  112.3250 C.2     1  PRO1        0.2575
      4  O         -8.0510   59.8640  112.6630 O.2     1  PRO1       -0.2718
      5  CB        -5.9770   57.7550  112.0650 C.3     1  PRO1        0.0282
      6  CG        -6.1610   56.6440  113.0090 C.3     1  PRO1        0.0208
      7  CD        -6.5520   57.2040  114.3460 C.3     1  PRO1        0.0893
      8  N         -6.4540   60.9090  111.5790 N.am    2  MET2       -0.1980
      9  CA        -7.2830   61.9390  111.0770 C.3     2  MET2        0.1605
     10  C         -6.8990   62.1670  109.6280 C.2     2  MET2        0.2287
     11  O         -5.7820   62.3750  109.3700 O.2     2  MET2       -0.2864
     12  CB        -6.9600   63.2320  111.7430 C.3     2  MET2        0.0413
     13  CG        -6.8080   63.2050  113.2190 C.3     2  MET2        0.0598
     14  SD        -6.4330   64.8670  113.8850 S.3     2  MET2       -0.1393
     15  CE        -6.8970   65.9400  112.4920 C.3     2  MET2        0.0692
     16  N         -6.4200   50.8590  113.7890 N.3    32  LYS32      -0.1231
     17  CA        -7.0540   51.5650  114.8900 C.3    32  LYS32       0.1678
     18  C         -8.5890   51.3670  114.8810 C.2    32  LYS32       0.2434
     19  O         -9.1420   51.1530  113.8520 O.2    32  LYS32      -0.2733
     20  CB        -6.7170   53.0460  114.8270 C.3    32  LYS32       0.0284
     21  CG        -5.2650   53.3420  114.9590 C.3    32  LYS32       0.0035
     22  CD        -4.7350   53.1300  116.3580 C.3    32  LYS32       0.0206
     23  CE        -3.2260   53.1610  116.3740 C.3    32  LYS32       0.1093
     24  NZ        -2.7800   53.0220  117.7650 N.3    32  LYS32      -0.1314
     25  N         -9.2680   51.4730  116.0220 N.am   33  PRO33      -0.2729
     26  CA       -10.7150   51.2650  115.9910 C.3    33  PRO33       0.1401
     27  C        -11.3300   52.3800  115.2010 C.2    33  PRO33       0.2269
     28  O        -10.9250   53.5330  115.3280 O.2    33  PRO33      -0.2865
     29  CB       -11.1450   51.4020  117.4640 C.3    33  PRO33       0.0296
     30  CG        -9.9020   51.1550  118.2110 C.3    33  PRO33       0.0237
     31  CD        -8.7820   51.7200  117.3850 C.3    33  PRO33       0.0939
     32  N        -12.1060   56.0500  116.6820 N.3    36  TYR36      -0.1241
     33  CA       -11.1170   57.0840  116.8720 C.3    36  TYR36       0.1605
     34  C        -10.7130   57.7320  115.5600 C.2    36  TYR36       0.2264
     35  O         -9.8810   58.5630  115.5480 O.2    36  TYR36      -0.2867
     36  CB        -9.9370   56.5700  117.6340 C.3    36  TYR36       0.0534
     37  CG       -10.3670   56.1580  119.0290 C.ar   36  TYR36      -0.0201
     38  CD1      -10.6820   57.1210  119.9910 C.ar   36  TYR36      -0.0009
     39  CD2      -10.4370   54.8580  119.3760 C.ar   36  TYR36      -0.0009
     40  CE1      -11.0790   56.7610  121.2560 C.ar   36  TYR36       0.0417
     41  CE2      -10.8290   54.4710  120.6540 C.ar   36  TYR36       0.0417
     42  CZ       -11.1510   55.4190  121.5910 C.ar   36  TYR36       0.1957
     43  OH       -11.5640   55.1130  122.8790 O.3    36  TYR36      -0.2866
     44  N         -2.8700   62.4690  109.7570 N.3    62  HIS62      -0.1226
     45  CA        -2.2430   62.5840  111.0630 C.3    62  HIS62       0.1752
     46  C         -2.5130   61.3050  111.8380 C.2    62  HIS62       0.2597
     47  O         -3.6050   60.7770  111.8030 O.2    62  HIS62      -0.2718
     48  CB        -2.8210   63.7400  111.8140 C.3    62  HIS62       0.0759
     49  CG        -2.5560   65.0890  111.2610 C.ar   62  HIS62       0.0818
     50  ND1       -3.2660   65.6900  110.2560 N.ar   62  HIS62      -0.2268
     51  CD2       -1.5860   65.9450  111.5980 C.ar   62  HIS62       0.1154
     52  CE1       -2.7940   66.9080  110.0480 C.ar   62  HIS62       0.1986
     53  NE2       -1.7570   67.0830  110.8500 N.ar   62  HIS62      -0.2212
     54  N         -1.4580   60.7500  112.4690 N.am   63  SER63      -0.1938
     55  CA        -1.6790   59.5800  113.3450 C.3    63  SER63       0.2055
     56  C         -0.6870   59.5850  114.4470 C.2    63  SER63       0.2639
     57  O          0.4190   60.0670  114.2530 O.2    63  SER63      -0.2714
     58  CB        -1.6060   58.3250  112.4810 C.3    63  SER63       0.2130
     59  OG        -1.7910   57.1370  113.2140 O.3    63  SER63      -0.2179
     60  N         -1.0640   59.0550  115.6120 N.am   64  ILE64      -0.2030
     61  CA        -0.1070   58.8450  116.6750 C.3    64  ILE64       0.1282
     62  C          0.5400   57.5270  116.3940 C.3    64  ILE64       0.2035
     63  O         -0.0880   56.4270  116.6580 O.3    64  ILE64      -0.2185
     64  CB        -0.7410   58.9080  118.0620 C.3    64  ILE64       0.0226
     65  CG1       -1.4610   60.1890  118.2850 C.3    64  ILE64       0.0018
     66  CG2        0.2410   58.5930  119.1460 C.3    64  ILE64       0.0018
     67  CD1       -2.3840   60.1780  119.5130 C.3    64  ILE64       0.0001
     68  N          2.2270   62.1730  114.9340 N.3   101  MET101     -0.1245
     69  CA         2.0400   63.0370  116.0430 C.3   101  MET101      0.1570
     70  C          2.5000   62.4230  117.3370 C.2   101  MET101      0.2261
     71  O          2.2140   61.2360  117.5920 O.2   101  MET101     -0.2867
     72  CB         0.5500   63.3750  116.1950 C.3   101  MET101      0.0387
     73  CG        -0.1220   64.0800  115.0280 C.3   101  MET101      0.0595
     74  SD         0.6680   65.6620  114.6350 S.3   101  MET101     -0.1393
     75  CE         0.3060   66.6140  116.0520 C.3   101  MET101      0.0692
     76  N         -1.5920   65.7170  121.0200 N.3   106  VAL106     -0.1245
     77  CA        -2.9160   65.5180  120.5330 C.3   106  VAL106      0.1561
     78  C         -3.9310   65.6490  121.6880 C.2   106  VAL106      0.2260
     79  O         -3.8860   64.7930  122.6070 O.2   106  VAL106     -0.2867
     80  CB        -3.0980   64.1880  119.8180 C.3   106  VAL106      0.0252
     81  CG1       -4.5030   64.0330  119.3350 C.3   106  VAL106      0.0019
     82  CG2       -2.0790   64.0420  118.6610 C.3   106  VAL106      0.0019
     83  N         -3.5130   62.7520  124.9050 N.3   113  PHE113     -0.1241
     84  CA        -3.1580   61.3570  124.9900 C.3   113  PHE113      0.1605
     85  C         -1.7550   61.1570  125.5580 C.2   113  PHE113      0.2264
     86  O         -1.0440   62.0930  125.7750 O.2   113  PHE113     -0.2867
     87  CB        -3.2150   60.7420  123.5830 C.3   113  PHE113      0.0534
     88  CG        -4.6010   60.6240  123.0100 C.ar  113  PHE113     -0.0203
     89  CD1       -5.5070   59.7780  123.5550 C.ar  113  PHE113     -0.0042
     90  CD2       -4.9850   61.3410  121.9350 C.ar  113  PHE113     -0.0042
     91  CE1       -6.7490   59.6510  123.0230 C.ar  113  PHE113     -0.0003
     92  CE2       -6.2100   61.2540  121.3900 C.ar  113  PHE113     -0.0003
     93  CZ        -7.1180   60.3830  121.9320 C.ar  113  PHE113     -0.0000
@<TRIPOS>BOND
     1    11    10    2
     2    10     9    1
     3    44    45    1
     4    52    50   ar
     5    52    53   ar
     6    50    49   ar
     7    53    51   ar
     8    45    48    1
     9    45    46    1
    10     9     8    1
    11     9    12    1
    12    49    51   ar
    13    49    48    1
    14     8     3   am
    15    12    13    1
    16    47    46    2
    17    46    54   am
    18     5     2    1
    19     5     6    1
    20     3     4    2
    21     3     2    1
    22    54    55    1
    23    58    59    1
    24    58    55    1
    25    15    14    1
    26     2     1    1
    27     6     7    1
    28    13    14    1
    29    55    56    1
    30    16    17    1
    31    19    18    2
    32    57    56    2
    33     1     7    1
    34    56    60   am
    35    74    73    1
    36    74    75    1
    37    20    17    1
    38    20    21    1
    39    18    17    1
    40    18    25   am
    41    68    69    1
    42    21    22    1
    43    73    72    1
    44    27    28    2
    45    27    26    1
    46    35    34    2
    47    34    33    1
    48    60    61    1
    49    26    25    1
    50    26    29    1
    51    25    31    1
    52    69    72    1
    53    69    70    1
    54    22    23    1
    55    23    24    1
    56    62    63    1
    57    62    61    1
    58    61    64    1
    59    32    33    1
    60    33    36    1
    61    70    71    2
    62    31    30    1
    63    29    30    1
    64    36    37    1
    65    64    65    1
    66    64    66    1
    67    65    67    1
    68    82    80    1
    69    37    39   ar
    70    37    38   ar
    71    81    80    1
    72    39    41   ar
    73    80    77    1
    74    38    40   ar
    75    77    76    1
    76    77    78    1
    77    41    42   ar
    78    40    42   ar
    79    92    93   ar
    80    92    90   ar
    81    42    43    1
    82    78    79    2
    83    93    91   ar
    84    90    88   ar
    85    88    89   ar
    86    88    87    1
    87    91    89   ar
    88    87    84    1
    89    83    84    1
    90    84    85    1
    91    85    86    2
