@<TRIPOS>MOLECULE
tmp/4triB00.pdb
 185 173 0 0 0
SMALL
GASTEIGER

@<TRIPOS>ATOM
      1  N          1.2370   87.4600   44.6920 N.3    67  ILE67      -0.1231
      2  CA         2.1220   88.6110   44.8530 C.3    67  ILE67       0.1692
      3  C          2.2460   89.5020   43.6210 C.2    67  ILE67       0.2591
      4  O          2.8410   90.5680   43.7210 O.2    67  ILE67      -0.2718
      5  CB         3.5490   88.1740   45.2700 C.3    67  ILE67       0.0266
      6  CG1        4.0400   87.0190   44.3870 C.3    67  ILE67       0.0019
      7  CG2        3.5700   87.7750   46.7410 C.3    67  ILE67       0.0020
      8  CD1        5.5440   87.0110   44.1920 C.3    67  ILE67       0.0001
      9  N          1.6870   89.0790   42.4790 N.am   68  ARG68      -0.1980
     10  CA         1.7460   89.8680   41.2420 C.3    68  ARG68       0.1597
     11  C          0.3690   90.4600   40.9360 C.2    68  ARG68       0.2287
     12  O         -0.6440   89.8380   41.2330 O.2    68  ARG68      -0.2864
     13  CB         2.2170   89.0250   40.0410 C.3    68  ARG68       0.0334
     14  CG         3.5690   88.3380   40.2040 C.3    68  ARG68       0.0492
     15  CD         4.5940   89.2800   40.8130 C.3    68  ARG68       0.2205
     16  NE         4.8460   90.4800   40.0130 N.pl3  68  ARG68      -0.0865
     17  CZ         4.9510   91.7120   40.5170 C.cat  68  ARG68       0.5346
     18  NH1        4.8160   91.9200   41.8260 N.pl3  68  ARG68       0.1354
     19  NH2        5.2090   92.7400   39.7140 N.pl3  68  ARG68       0.1354
     20  N         -1.8160   88.0390   38.4510 N.3    71  GLN71      -0.1245
     21  CA        -1.8330   86.5810   38.6000 C.3    71  GLN71       0.1566
     22  C         -2.4450   86.2070   39.9440 C.2    71  GLN71       0.2260
     23  O         -2.2950   86.9490   40.9050 O.2    71  GLN71      -0.2867
     24  CB        -0.4170   85.9930   38.4810 C.3    71  GLN71       0.0367
     25  CG         0.2380   86.1200   37.0970 C.3    71  GLN71       0.0905
     26  CD        -0.4140   85.2230   36.0570 C.2    71  GLN71       0.2608
     27  OE1       -1.0830   84.2470   36.3950 O.2    71  GLN71      -0.2717
     28  NE2       -0.2250   85.5540   34.7860 N.am   71  GLN71      -0.0878
     29  N         -0.4990   81.2870   44.0450 N.3    74  MET74      -0.1245
     30  CA         0.1410   80.0590   43.6020 C.3    74  MET74       0.1570
     31  C          0.6650   79.2730   44.7990 C.2    74  MET74       0.2261
     32  O          0.8250   79.8190   45.8790 O.2    74  MET74      -0.2867
     33  CB         1.2770   80.3830   42.6220 C.3    74  MET74       0.0387
     34  CG         0.7700   80.8940   41.2870 C.3    74  MET74       0.0595
     35  SD         1.9320   81.9710   40.4200 S.3    74  MET74      -0.1393
     36  CE         0.8320   82.5000   39.1020 C.3    74  MET74       0.0692
     37  N          3.1790   78.5870   46.5680 N.3    76  TYR76      -0.1241
     38  CA         4.4460   78.7810   47.2730 C.3    76  TYR76       0.1605
     39  C          4.2470   79.7140   48.4630 C.2    76  TYR76       0.2264
     40  O          3.2420   80.4260   48.5780 O.2    76  TYR76      -0.2867
     41  CB         5.6010   79.3390   46.4150 C.3    76  TYR76       0.0534
     42  CG         5.2740   80.3800   45.3840 C.ar   76  TYR76      -0.0201
     43  CD1        4.2980   81.3370   45.6090 C.ar   76  TYR76      -0.0009
     44  CD2        6.1470   80.6010   44.3230 C.ar   76  TYR76      -0.0009
     45  CE1        4.0530   82.3300   44.6820 C.ar   76  TYR76       0.0417
     46  CE2        5.9350   81.6310   43.4210 C.ar   76  TYR76       0.0417
     47  CZ         4.8750   82.4860   43.5990 C.ar   76  TYR76       0.1957
     48  OH         4.6550   83.5190   42.7090 O.3    76  TYR76      -0.2866
     49  N          5.3210   82.4760   49.6130 N.3    78  ILE78      -0.1245
     50  CA         5.1850   83.9240   49.5140 C.3    78  ILE78       0.1561
     51  C          3.7390   84.3220   49.1730 C.2    78  ILE78       0.2260
     52  O          3.3570   85.4870   49.2910 O.2    78  ILE78      -0.2867
     53  CB         6.1790   84.4980   48.4770 C.3    78  ILE78       0.0252
     54  CG1        6.3960   85.9910   48.7310 C.3    78  ILE78       0.0019
     55  CG2        5.7170   84.1850   47.0650 C.3    78  ILE78       0.0019
     56  CD1        7.6510   86.5900   48.0820 C.3    78  ILE78       0.0001
     57  N         11.8730   84.0270   32.4560 N.3   161  LEU161     -0.1231
     58  CA        10.6620   84.1970   33.2670 C.3   161  LEU161      0.1693
     59  C         10.4910   85.6590   33.6940 C.2   161  LEU161      0.2591
     60  O          9.4550   86.2650   33.4180 O.2   161  LEU161     -0.2718
     61  CB        10.6890   83.2810   34.5010 C.3   161  LEU161      0.0284
     62  CG        10.5310   81.7670   34.2860 C.3   161  LEU161      0.0019
     63  CD1       10.9140   80.9880   35.5320 C.3   161  LEU161      0.0001
     64  CD2        9.0960   81.4240   33.8880 C.3   161  LEU161      0.0001
     65  N         11.5010   86.2500   34.3430 N.am  162  VAL162     -0.1980
     66  CA        11.3000   87.5860   34.9180 C.3   162  VAL162      0.1595
     67  C         11.2440   88.6890   33.8630 C.2   162  VAL162      0.2287
     68  O         10.6580   89.7450   34.1020 O.2   162  VAL162     -0.2864
     69  CB        12.3810   87.9560   35.9580 C.3   162  VAL162      0.0276
     70  CG1       12.2420   87.0690   37.1900 C.3   162  VAL162      0.0022
     71  CG2       13.7970   87.8960   35.3610 C.3   162  VAL162      0.0022
     72  N          7.7680   89.4980   32.6570 N.3   165  LEU165     -0.1245
     73  CA         6.8890   90.1840   33.6040 C.3   165  LEU165      0.1561
     74  C          6.7380   91.6670   33.2740 C.2   165  LEU165      0.2260
     75  O          7.3980   92.5220   33.8750 O.2   165  LEU165     -0.2867
     76  CB         7.4220   90.0150   35.0290 C.3   165  LEU165      0.0270
     77  CG         7.5890   88.5500   35.4490 C.3   165  LEU165      0.0019
     78  CD1        8.1710   88.4600   36.8540 C.3   165  LEU165      0.0001
     79  CD2        6.2630   87.7730   35.3320 C.3   165  LEU165      0.0001
     80  N          7.8820   82.6910   28.2100 N.3   177  LEU177     -0.1231
     81  CA         7.7290   82.5660   29.6520 C.3   177  LEU177      0.1693
     82  C          6.9710   81.2820   29.9770 C.2   177  LEU177      0.2591
     83  O          7.3440   80.5540   30.8930 O.2   177  LEU177     -0.2718
     84  CB         7.0170   83.7940   30.2180 C.3   177  LEU177      0.0284
     85  CG         6.5920   83.8150   31.6840 C.3   177  LEU177      0.0019
     86  CD1        6.5990   85.2540   32.1420 C.3   177  LEU177      0.0001
     87  CD2        5.2040   83.1990   31.8520 C.3   177  LEU177      0.0001
     88  N          5.9130   80.9970   29.2160 N.am  178  MET178     -0.1979
     89  CA         5.1540   79.7730   29.4440 C.3   178  MET178      0.1605
     90  C          5.9740   78.5280   29.1180 C.2   178  MET178      0.2287
     91  O          5.9190   77.5370   29.8500 O.2   178  MET178     -0.2864
     92  CB         3.8600   79.7710   28.6230 C.3   178  MET178      0.0413
     93  CG         2.8160   80.7930   29.0860 C.3   178  MET178      0.0598
     94  SD         2.3480   80.5910   30.8050 S.3   178  MET178     -0.1393
     95  CE         1.6170   78.9570   30.7550 C.3   178  MET178      0.0692
     96  N          8.5270   77.9270   31.8860 N.3   181  PHE181     -0.1241
     97  CA         7.9350   77.3050   33.0730 C.3   181  PHE181      0.1605
     98  C          7.7310   75.8130   32.8550 C.2   181  PHE181      0.2264
     99  O          8.0350   75.0030   33.7320 O.2   181  PHE181     -0.2867
    100  CB         6.6070   77.9530   33.4500 C.3   181  PHE181      0.0534
    101  CG         6.0280   77.4110   34.7230 C.ar  181  PHE181     -0.0203
    102  CD1        6.6310   77.6870   35.9430 C.ar  181  PHE181     -0.0042
    103  CD2        4.9070   76.6100   34.7070 C.ar  181  PHE181     -0.0042
    104  CE1        6.1070   77.1780   37.1130 C.ar  181  PHE181     -0.0003
    105  CE2        4.3830   76.1020   35.8780 C.ar  181  PHE181     -0.0003
    106  CZ         4.9950   76.3860   37.0810 C.ar  181  PHE181     -0.0000
    107  N          6.7840   75.1310   42.5310 N.3   224  PHE224     -0.1241
    108  CA         6.7680   76.5490   42.8570 C.3   224  PHE224      0.1605
    109  C          7.7100   76.9330   44.0100 C.2   224  PHE224      0.2264
    110  O          8.3600   77.9730   43.9300 O.2   224  PHE224     -0.2867
    111  CB         5.3520   77.0000   43.1750 C.3   224  PHE224      0.0534
    112  CG         4.5230   77.2560   41.9430 C.ar  224  PHE224     -0.0203
    113  CD1        4.4890   78.5130   41.3650 C.ar  224  PHE224     -0.0042
    114  CD2        3.8120   76.2240   41.3440 C.ar  224  PHE224     -0.0042
    115  CE1        3.7210   78.7540   40.2240 C.ar  224  PHE224     -0.0003
    116  CE2        3.0590   76.4480   40.2020 C.ar  224  PHE224     -0.0003
    117  CZ         3.0150   77.7160   39.6390 C.ar  224  PHE224     -0.0000
    118  N         11.2140   77.0030   42.6990 N.3   227  LEU227     -0.1231
    119  CA        11.3620   78.1150   41.7540 C.3   227  LEU227      0.1693
    120  C         11.4830   79.4320   42.5030 C.2   227  LEU227      0.2591
    121  O         12.2600   80.3090   42.1270 O.2   227  LEU227     -0.2718
    122  CB        10.1830   78.1850   40.7780 C.3   227  LEU227      0.0284
    123  CG        10.3390   79.1570   39.5910 C.3   227  LEU227      0.0019
    124  CD1       11.6700   78.9480   38.8440 C.3   227  LEU227      0.0001
    125  CD2        9.1550   79.0260   38.6140 C.3   227  LEU227      0.0001
    126  N         10.6810   79.5680   43.5500 N.am  228  LEU228     -0.1980
    127  CA        10.7450   80.7290   44.4130 C.3   228  LEU228      0.1596
    128  C         12.1680   80.9170   44.9310 C.2   228  LEU228      0.2287
    129  O         12.7270   82.0110   44.8650 O.2   228  LEU228     -0.2864
    130  CB         9.7730   80.5720   45.5790 C.3   228  LEU228      0.0297
    131  CG         9.9270   81.5660   46.7160 C.3   228  LEU228      0.0022
    132  CD1        9.8430   82.9990   46.1850 C.3   228  LEU228      0.0001
    133  CD2        8.8610   81.3040   47.7850 C.3   228  LEU228      0.0001
    134  N         14.6950   81.8070   41.9400 N.3   231  ILE231     -0.1231
    135  CA        14.5300   83.1780   41.4530 C.3   231  ILE231      0.1692
    136  C         14.8900   84.2010   42.5260 C.2   231  ILE231      0.2592
    137  O         15.5730   85.1860   42.2460 O.2   231  ILE231     -0.2718
    138  CB        13.0790   83.4650   40.9580 C.3   231  ILE231      0.0266
    139  CG1       12.6670   82.4910   39.8460 C.3   231  ILE231      0.0019
    140  CG2       12.9640   84.8850   40.4490 C.3   231  ILE231      0.0020
    141  CD1       13.5910   82.5100   38.6710 C.3   231  ILE231      0.0001
    142  N         14.4160   83.9810   43.7500 N.am  232  GLY232     -0.1957
    143  CA        14.8930   84.7660   44.8810 C.3   232  GLY232      0.1869
    144  C         16.4280   84.8130   44.9540 C.2   232  GLY232      0.2309
    145  O         17.0260   85.8460   45.2480 O.2   232  GLY232     -0.2863
    146  N         18.0270   88.8100   42.0300 N.3   236  THR236     -0.1218
    147  CA        17.8810   89.8600   43.0270 C.3   236  THR236      0.1862
    148  C         19.2370   90.4570   43.3850 C.2   236  THR236      0.2287
    149  O         19.5240   91.6040   43.0300 O.2   236  THR236     -0.2866
    150  CB        17.1900   89.3460   44.3090 C.3   236  THR236      0.1770
    151  OG1       17.9320   88.2470   44.8480 O.3   236  THR236     -0.2211
    152  CG2       15.7630   88.8770   44.0080 C.3   236  THR236      0.0375
    153  N         13.7750   94.2610   44.1620 N.3   279  VAL279     -0.1245
    154  CA        12.3380   93.9530   44.1200 C.3   279  VAL279      0.1561
    155  C         11.5680   95.2560   44.1780 C.2   279  VAL279      0.2260
    156  O         11.5310   95.9100   45.2240 O.2   279  VAL279     -0.2867
    157  CB        11.8960   93.0320   45.2780 C.3   279  VAL279      0.0252
    158  CG1       10.4010   92.6940   45.1650 C.3   279  VAL279      0.0019
    159  CG2       12.7430   91.7660   45.3070 C.3   279  VAL279      0.0019
    160  N          5.6840   94.1440   45.6450 N.3   282  MET282     -0.1245
    161  CA         4.9750   92.9130   45.9620 C.3   282  MET282      0.1570
    162  C          3.5250   93.2980   46.2490 C.2   282  MET282      0.2261
    163  O          3.2690   94.3390   46.8580 O.2   282  MET282     -0.2867
    164  CB         5.5920   92.2000   47.1650 C.3   282  MET282      0.0387
    165  CG         6.9730   91.5940   46.8750 C.3   282  MET282      0.0595
    166  SD         6.8080   89.8840   46.3610 S.3   282  MET282     -0.1393
    167  CE         8.5410   89.4500   46.1380 C.3   282  MET282      0.0692
    168  N          8.7220   93.6020   38.1010 N.3   381  PHE381     -0.1227
    169  CA         8.8440   92.8620   39.3480 C.3   381  PHE381      0.1736
    170  C         10.2440   93.0000   39.9550 C.2   381  PHE381      0.2595
    171  O         10.4380   93.6920   40.9580 O.2   381  PHE381     -0.2718
    172  CB         8.5310   91.3960   39.1140 C.3   381  PHE381      0.0547
    173  CG         8.5180   90.5750   40.3650 C.ar  381  PHE381     -0.0202
    174  CD1        7.9250   91.0630   41.5280 C.ar  381  PHE381     -0.0042
    175  CD2        9.0730   89.3120   40.3800 C.ar  381  PHE381     -0.0042
    176  CE1        7.8940   90.2960   42.6930 C.ar  381  PHE381     -0.0003
    177  CE2        9.0420   88.5430   41.5360 C.ar  381  PHE381     -0.0003
    178  CZ         8.4440   89.0300   42.6870 C.ar  381  PHE381     -0.0000
    179  N         11.2150   92.3220   39.3600 N.am  382  VAL382     -0.1980
    180  CA        12.6040   92.5690   39.7380 C.3   382  VAL382      0.1595
    181  C         13.2960   93.2270   38.5660 C.2   382  VAL382      0.2287
    182  O         13.0030   92.9100   37.4160 O.2   382  VAL382     -0.2864
    183  CB        13.3590   91.2740   40.1530 C.3   382  VAL382      0.0276
    184  CG1       12.8820   90.8060   41.5250 C.3   382  VAL382      0.0022
    185  CG2       13.2010   90.1750   39.0920 C.3   382  VAL382      0.0022
@<TRIPOS>BOND
     1    80    81    1
     2    92    93    1
     3    92    89    1
     4    93    94    1
     5    90    89    1
     6    90    91    2
     7    88    89    1
     8    88    82   am
     9    81    82    1
    10    81    84    1
    11    82    83    2
    12    84    85    1
    13    95    94    1
    14    85    87    1
    15    85    86    1
    16    96    97    1
    17    57    58    1
    18    72    73    1
    19    98    97    1
    20    98    99    2
    21    97   100    1
    22    58    59    1
    23    58    61    1
    24    74    73    1
    25    74    75    2
    26    60    59    2
    27   100   101    1
    28    73    76    1
    29    59    65   am
    30    67    68    2
    31    67    66    1
    32    64    62    1
    33    62    61    1
    34    62    63    1
    35    65    66    1
    36   103   101   ar
    37   103   105   ar
    38   101   102   ar
    39    28    26   am
    40    66    69    1
    41    76    77    1
    42    79    77    1
    43    71    69    1
    44    77    78    1
    45   105   106   ar
    46   102   104   ar
    47    69    70    1
    48    26    27    2
    49    26    25    1
    50   106   104   ar
    51    25    24    1
    52   182   181    2
    53   168   169    1
    54    20    21    1
    55    24    21    1
    56   181   180    1
    57    21    22    1
    58   125   123    1
    59   141   139    1
    60   124   123    1
    61   185   183    1
    62    36    35    1
    63   172   169    1
    64   172   173    1
    65   169   170    1
    66   179   180    1
    67   179   170   am
    68   123   122    1
    69   117   116   ar
    70   117   115   ar
    71    19    17    1
    72   180   183    1
    73   139   138    1
    74    22    23    2
    75   170   171    2
    76    16    17    2
    77    16    15    1
    78    13    14    1
    79    13    10    1
    80   183   184    1
    81   116   114   ar
    82    14    15    1
    83   115   113   ar
    84   173   175   ar
    85   173   174   ar
    86   175   177   ar
    87    35    34    1
    88   140   138    1
    89    17    18    1
    90   122   119    1
    91    11    12    2
    92    11    10    1
    93   138   135    1
    94    10     9    1
    95    34    33    1
    96   114   112   ar
    97   113   112   ar
    98   135   134    1
    99   135   136    1
   100   174   176   ar
   101   177   178   ar
   102   119   120    1
   103   119   118    1
   104   112   111    1
   105   146   147    1
   106   121   120    2
   107   137   136    2
   108     9     3   am
   109   120   126   am
   110   136   142   am
   111   107   108    1
   112    33    30    1
   113   178   176   ar
   114    48    47    1
   115   108   111    1
   116   108   109    1
   117   147   148    1
   118   147   150    1
   119   149   148    2
   120    46    47   ar
   121    46    44   ar
   122   126   127    1
   123    47    45   ar
   124    30    29    1
   125    30    31    1
   126     3     4    2
   127     3     2    1
   128   142   143    1
   129   110   109    2
   130   152   150    1
   131   154   153    1
   132   154   155    1
   133   154   157    1
   134   155   156    2
   135     8     6    1
   136   150   151    1
   137    44    42   ar
   138     6     5    1
   139   127   128    1
   140   127   130    1
   141    45    43   ar
   142     1     2    1
   143    31    32    2
   144     2     5    1
   145   129   128    2
   146   143   144    1
   147   144   145    2
   148   158   157    1
   149     5     7    1
   150   157   159    1
   151    42    43   ar
   152    42    41    1
   153   130   131    1
   154   160   161    1
   155   161   162    1
   156   161   164    1
   157   167   166    1
   158   132   131    1
   159   162   163    2
   160   166   165    1
   161    41    38    1
   162    37    38    1
   163   131   133    1
   164   165   164    1
   165    55    53    1
   166    38    39    1
   167    56    54    1
   168    39    40    2
   169    53    54    1
   170    53    50    1
   171    51    52    2
   172    51    50    1
   173    50    49    1
