@<TRIPOS>MOLECULE
tmp/4troA02.pdb
 104 100 0 0 0
SMALL
GASTEIGER

@<TRIPOS>ATOM
      1  N         -6.3720  -36.7680    7.2740 N.3    17  ASP17      -0.1225
      2  CA        -6.4120  -38.2100    7.3110 C.3    17  ASP17       0.1805
      3  C         -5.0430  -38.8600    7.1800 C.2    17  ASP17       0.2598
      4  O         -4.8550  -40.0270    7.3250 O.2    17  ASP17      -0.2718
      5  CB        -7.4100  -38.7620    6.2790 C.3    17  ASP17       0.1424
      6  CG        -7.1670  -38.3240    4.8420 C.2    17  ASP17       0.3668
      7  OD1       -6.0700  -37.9460    4.4240 O.co2  17  ASP17      -0.2456
      8  OD2       -8.1370  -38.5610    4.0630 O.co2  17  ASP17      -0.2456
      9  N         -4.0630  -38.0310    6.9000 N.am   18  SER18      -0.1938
     10  CA        -2.6400  -38.4500    6.8620 C.3    18  SER18       0.2055
     11  C         -1.8500  -38.1480    8.1360 C.2    18  SER18       0.2643
     12  O         -0.6950  -38.5870    8.2420 O.2    18  SER18      -0.2714
     13  CB        -1.8680  -37.9470    5.6660 C.3    18  SER18       0.2130
     14  OG        -1.6730  -36.5420    5.7260 O.3    18  SER18      -0.2179
     15  N         -2.4440  -37.4700    9.1140 N.am   19  SER19      -0.1949
     16  CA        -1.7920  -37.2270   10.3820 C.3    19  SER19       0.1924
     17  C         -1.4250  -38.5430   11.0300 C.2    19  SER19       0.2314
     18  O         -2.2180  -39.4660   11.0660 O.2    19  SER19      -0.2863
     19  CB        -2.7250  -36.4340   11.2940 C.3    19  SER19       0.2116
     20  OG        -2.9230  -35.1060   10.8760 O.3    19  SER19      -0.2180
     21  N         -3.9300  -42.2110   12.5180 N.3    23  HIS23      -0.1241
     22  CA        -3.6230  -43.6060   12.5510 C.3    23  HIS23       0.1621
     23  C         -3.4850  -44.1740   13.9420 C.2    23  HIS23       0.2264
     24  O         -3.9290  -45.2750   14.2030 O.2    23  HIS23      -0.2867
     25  CB        -2.3980  -43.8750   11.6720 C.3    23  HIS23       0.0745
     26  CG        -2.6780  -43.6570   10.2460 C.ar   23  HIS23       0.0817
     27  ND1       -2.4940  -42.4520    9.6250 N.ar   23  HIS23      -0.2268
     28  CD2       -3.1760  -44.4860    9.3190 C.ar   23  HIS23       0.1154
     29  CE1       -2.9190  -42.5550    8.3640 C.ar   23  HIS23       0.1986
     30  NE2       -3.2690  -43.7680    8.1810 N.ar   23  HIS23      -0.2212
     31  N         -7.0890  -44.5820   15.0320 N.3    26  ARG26      -0.1245
     32  CA        -7.7410  -45.7420   14.3890 C.3    26  ARG26       0.1563
     33  C         -7.3190  -47.0600   15.0090 C.2    26  ARG26       0.2260
     34  O         -8.1320  -47.8210   15.4510 O.2    26  ARG26      -0.2867
     35  CB        -7.4280  -45.6990   12.9050 C.3    26  ARG26       0.0307
     36  CG        -7.9060  -46.9240   12.1870 C.3    26  ARG26       0.0489
     37  CD        -7.5010  -46.9630   10.7200 C.3    26  ARG26       0.2205
     38  NE        -6.0930  -46.6910   10.3960 N.pl3  26  ARG26      -0.0865
     39  CZ        -5.1170  -47.5670   10.5200 C.cat  26  ARG26       0.5346
     40  NH1       -5.3700  -48.7840   10.9260 N.pl3  26  ARG26       0.1354
     41  NH2       -3.9110  -47.2240   10.2030 N.pl3  26  ARG26       0.1354
     42  N          7.5650  -39.9490    7.6210 N.3   193  ILE193     -0.1231
     43  CA         6.2270  -40.3470    7.1650 C.3   193  ILE193      0.1692
     44  C          5.7190  -39.2730    6.2380 C.2   193  ILE193      0.2592
     45  O          5.7870  -38.1100    6.5390 O.2   193  ILE193     -0.2718
     46  CB         5.2550  -40.5170    8.3500 C.3   193  ILE193      0.0266
     47  CG1        5.6560  -41.7150    9.2450 C.3   193  ILE193      0.0019
     48  CG2        3.8120  -40.6660    7.8790 C.3   193  ILE193      0.0020
     49  CD1        5.4780  -43.0710    8.6500 C.3   193  ILE193      0.0001
     50  N          5.1890  -39.6860    5.0900 N.am  194  ARG194     -0.1966
     51  CA         4.7180  -38.7720    4.0680 C.3   194  ARG194      0.1729
     52  C          3.3080  -38.2810    4.3700 C.2   194  ARG194      0.2616
     53  O          2.3300  -38.6670    3.7200 O.2   194  ARG194     -0.2715
     54  CB         4.7080  -39.4680    2.7380 C.3   194  ARG194      0.0348
     55  CG         5.9560  -39.4220    1.9960 C.3   194  ARG194      0.0492
     56  CD         6.4200  -38.0200    1.6000 C.3   194  ARG194      0.2205
     57  NE         7.6150  -38.1880    0.8020 N.pl3 194  ARG194     -0.0865
     58  CZ         7.6490  -38.2950   -0.5100 C.cat 194  ARG194      0.5346
     59  NH1        6.5120  -38.1210   -1.2410 N.pl3 194  ARG194      0.1354
     60  NH2        8.7600  -38.4850   -1.1180 N.pl3 194  ARG194      0.1354
     61  N          3.2550  -37.3830    5.3330 N.am  195  THR195     -0.1951
     62  CA         2.0620  -36.6030    5.6330 C.3   195  THR195      0.1897
     63  C          1.8920  -35.5950    4.5580 C.2   195  THR195      0.2313
     64  O          2.7350  -35.4600    3.6720 O.2   195  THR195     -0.2863
     65  CB         2.2270  -35.8800    6.9470 C.3   195  THR195      0.1794
     66  OG1        3.4110  -35.0400    6.8400 O.3   195  THR195     -0.2208
     67  CG2        2.3880  -36.8470    8.0700 C.3   195  THR195      0.0378
     68  N          7.6550  -45.1110    4.1390 N.3   231  MET231     -0.1230
     69  CA         7.2360  -43.7780    4.5150 C.3   231  MET231      0.1702
     70  C          5.7680  -43.4970    4.2310 C.2   231  MET231      0.2592
     71  O          5.2260  -42.5360    4.7190 O.2   231  MET231     -0.2718
     72  CB         8.0810  -42.7210    3.8190 C.3   231  MET231      0.0401
     73  CG         7.8770  -42.7260    2.2970 C.3   231  MET231      0.0596
     74  SD         9.0000  -41.5920    1.4700 S.3   231  MET231     -0.1393
     75  CE         8.4250  -41.8230   -0.2090 C.3   231  MET231      0.0692
     76  N          5.1330  -44.3400    3.4260 N.am  232  LYS232     -0.1966
     77  CA         3.7080  -44.1960    3.1540 C.3   232  LYS232      0.1728
     78  C          2.8200  -44.9450    4.1220 C.2   232  LYS232      0.2616
     79  O          1.6000  -44.9020    3.9770 O.2   232  LYS232     -0.2715
     80  CB         3.4040  -44.6400    1.7120 C.3   232  LYS232      0.0311
     81  CG         4.1860  -43.8350    0.6950 C.3   232  LYS232      0.0038
     82  CD         3.7620  -44.0590   -0.7430 C.3   232  LYS232      0.0206
     83  CE         4.5360  -42.9580   -1.5300 C.3   232  LYS232      0.1093
     84  NZ         4.3990  -43.0550   -2.9900 N.3   232  LYS232     -0.1314
     85  N          3.4020  -45.6280    5.1030 N.am  233  ASP233     -0.1957
     86  CA         2.6230  -46.4470    6.0180 C.3   233  ASP233      0.1840
     87  C          2.8590  -46.0250    7.4610 C.2   233  ASP233      0.2622
     88  O          3.8960  -46.3260    8.0360 O.2   233  ASP233     -0.2715
     89  CB         3.0250  -47.8890    5.8180 C.3   233  ASP233      0.1450
     90  CG         2.2380  -48.8380    6.6540 C.2   233  ASP233      0.3671
     91  OD1        1.1950  -48.4500    7.2150 O.co2 233  ASP233     -0.2456
     92  OD2        2.6830  -50.0310    6.7050 O.co2 233  ASP233     -0.2456
     93  N          1.9110  -45.3160    8.0510 N.am  234  ALA234     -0.1963
     94  CA         2.0240  -44.9320    9.4710 C.3   234  ALA234      0.1728
     95  C          1.6010  -46.0210   10.4550 C.2   234  ALA234      0.2616
     96  O          1.7720  -45.8460   11.6430 O.2   234  ALA234     -0.2715
     97  CB         1.2040  -43.7070    9.7310 C.3   234  ALA234      0.0334
     98  N          1.0500  -47.1400    9.9840 N.am  235  THR235     -0.1951
     99  CA         0.5030  -48.1320   10.9020 C.3   235  THR235      0.1897
    100  C          1.5470  -48.6930   11.8880 C.2   235  THR235      0.2313
    101  O          1.2720  -48.8770   13.0230 O.2   235  THR235     -0.2863
    102  CB        -0.2100  -49.2370   10.1100 C.3   235  THR235      0.1794
    103  OG1       -1.3060  -48.5860    9.3970 O.3   235  THR235     -0.2208
    104  CG2       -0.7410  -50.3190   11.0190 C.3   235  THR235      0.0378
@<TRIPOS>BOND
     1    84    83    1
     2    83    82    1
     3    59    58    1
     4    60    58    1
     5    82    81    1
     6    58    57    2
     7    75    74    1
     8    81    80    1
     9    57    56    1
    10    74    73    1
    11    56    55    1
    12    80    77    1
    13    55    54    1
    14    73    72    1
    15    54    51    1
    16    77    76    1
    17    77    78    1
    18    76    70   am
    19    64    63    2
    20    53    52    2
    21    72    69    1
    22    79    78    2
    23     8     6   ar
    24    51    52    1
    25    51    50    1
    26    78    85   am
    27    68    69    1
    28    70    69    1
    29    70    71    2
    30    52    61   am
    31     7     6   ar
    32    63    62    1
    33     6     5    1
    34    50    44   am
    35    85    86    1
    36    61    62    1
    37    62    65    1
    38    13    14    1
    39    13    10    1
    40    89    86    1
    41    89    90    1
    42    86    87    1
    43    44    45    2
    44    44    43    1
    45     5     2    1
    46    90    92   ar
    47    90    91   ar
    48    66    65    1
    49    10     9    1
    50    10    11    1
    51     9     3   am
    52    65    67    1
    53    43    42    1
    54    43    46    1
    55     3     2    1
    56     3     4    2
    57     1     2    1
    58    87    88    2
    59    87    93   am
    60    48    46    1
    61    93    94    1
    62    11    12    2
    63    11    15   am
    64    30    29   ar
    65    30    28   ar
    66    46    47    1
    67    29    27   ar
    68    49    47    1
    69    15    16    1
    70    28    26   ar
    71   103   102    1
    72    94    97    1
    73    94    95    1
    74    27    26   ar
    75    98    95   am
    76    98    99    1
    77   102    99    1
    78   102   104    1
    79    41    39    1
    80    26    25    1
    81    16    17    1
    82    16    19    1
    83    38    39    2
    84    38    37    1
    85    95    96    2
    86    39    40    1
    87    37    36    1
    88    20    19    1
    89    99   100    1
    90    17    18    2
    91    25    22    1
    92   100   101    2
    93    36    35    1
    94    21    22    1
    95    22    23    1
    96    35    32    1
    97    23    24    2
    98    32    33    1
    99    32    31    1
   100    33    34    2
