@<TRIPOS>MOLECULE
tmp/4ts5A00.pdb
 158 158 0 0 0
SMALL
GASTEIGER

@<TRIPOS>ATOM
      1  N         28.3140   34.0220   -9.1720 N.3    37  ILE37      -0.1245
      2  CA        29.1520   32.8660   -8.9000 C.3    37  ILE37       0.1561
      3  C         29.9480   33.1000   -7.6100 C.2    37  ILE37       0.2260
      4  O         30.7870   34.0050   -7.5470 O.2    37  ILE37      -0.2867
      5  CB        30.1070   32.5900  -10.0870 C.3    37  ILE37       0.0252
      6  CG1       29.2920   32.2010  -11.3350 C.3    37  ILE37       0.0019
      7  CG2       31.0770   31.4990   -9.7380 C.3    37  ILE37       0.0019
      8  CD1       30.1210   32.1000  -12.5980 C.3    37  ILE37       0.0001
      9  N         33.8100   34.5490   -5.9250 N.3    40  GLY40      -0.1225
     10  CA        34.4350   35.6720   -6.6160 C.3    40  GLY40       0.1811
     11  C         33.4700   36.6880   -7.1880 C.2    40  GLY40       0.2280
     12  O         33.8170   37.8540   -7.3490 O.2    40  GLY40      -0.2866
     13  N         36.7480   24.7400   -7.7320 N.3    64  HIS64      -0.1241
     14  CA        37.7550   24.5180   -8.7660 C.3    64  HIS64       0.1621
     15  C         38.7240   23.4160   -8.3370 C.2    64  HIS64       0.2264
     16  O         39.5460   23.5980   -7.4320 O.2    64  HIS64      -0.2867
     17  CB        38.4880   25.8290   -9.0780 C.3    64  HIS64       0.0745
     18  CG        37.5590   26.9490   -9.4130 C.ar   64  HIS64       0.0817
     19  ND1       37.0610   27.8060   -8.4560 N.ar   64  HIS64      -0.2268
     20  CD2       36.9870   27.3150  -10.5850 C.ar   64  HIS64       0.1154
     21  CE1       36.2450   28.6720   -9.0310 C.ar   64  HIS64       0.1986
     22  NE2       36.1820   28.3940  -10.3210 N.ar   64  HIS64      -0.2212
     23  N         30.7040   37.0030  -12.5800 N.3    94  ASP94      -0.1225
     24  CA        31.8960   36.5720  -11.8520 C.3    94  ASP94       0.1805
     25  C         32.9220   37.7010  -11.8950 C.2    94  ASP94       0.2598
     26  O         32.7470   38.6850  -12.6260 O.2    94  ASP94      -0.2718
     27  CB        32.4900   35.2910  -12.4580 C.3    94  ASP94       0.1424
     28  CG        33.1400   34.3910  -11.4160 C.2    94  ASP94       0.3668
     29  OD1       33.3120   34.8190  -10.2500 O.co2  94  ASP94      -0.2456
     30  OD2       33.4840   33.2410  -11.7640 O.co2  94  ASP94      -0.2456
     31  N         33.9960   37.5490  -11.1240 N.am   95  ASP95      -0.1960
     32  CA        35.0330   38.5740  -11.0600 C.3    95  ASP95       0.1840
     33  C         35.8540   38.6520  -12.3430 C.2    95  ASP95       0.2622
     34  O         35.9820   39.7230  -12.9320 O.2    95  ASP95      -0.2715
     35  CB        35.9400   38.3650   -9.8400 C.3    95  ASP95       0.1450
     36  CG        36.3560   36.9210   -9.6550 C.2    95  ASP95       0.3671
     37  OD1       36.1760   36.1020  -10.5880 O.co2  95  ASP95      -0.2456
     38  OD2       36.8670   36.5990   -8.5630 O.co2  95  ASP95      -0.2456
     39  N         36.3930   37.5120  -12.7800 N.am   96  ILE96      -0.1963
     40  CA        37.2690   37.4850  -13.9470 C.3    96  ILE96       0.1727
     41  C         37.1450   36.1900  -14.7390 C.2    96  ILE96       0.2617
     42  O         37.0570   35.1130  -14.1670 O.2    96  ILE96      -0.2715
     43  CB        38.7450   37.7000  -13.5380 C.3    96  ILE96       0.0290
     44  CG1       39.6650   37.6980  -14.7630 C.3    96  ILE96       0.0022
     45  CG2       39.1890   36.6490  -12.5200 C.3    96  ILE96       0.0023
     46  CD1       41.1170   38.0520  -14.4260 C.3    96  ILE96       0.0001
     47  N         37.1120   36.3050  -16.0610 N.am   97  THR97      -0.1937
     48  CA        37.2000   35.1380  -16.9130 C.3    97  THR97       0.2028
     49  C         38.6670   34.8770  -17.2350 C.2    97  THR97       0.2642
     50  O         39.3390   35.6990  -17.8800 O.2    97  THR97      -0.2714
     51  CB        36.4370   35.3320  -18.2250 C.3    97  THR97       0.1808
     52  OG1       35.0360   35.4510  -17.9540 O.3    97  THR97      -0.2208
     53  CG2       36.6770   34.1390  -19.1360 C.3    97  THR97       0.0379
     54  N         39.1760   33.7460  -16.7620 N.am   98  ASP98      -0.1957
     55  CA        40.5450   33.3500  -17.0760 C.3    98  ASP98       0.1840
     56  C         40.5250   32.3290  -18.2150 C.2    98  ASP98       0.2623
     57  O         40.7020   32.6870  -19.3920 O.2    98  ASP98      -0.2715
     58  CB        41.2460   32.7890  -15.8400 C.3    98  ASP98       0.1450
     59  CG        42.7600   32.7330  -16.0040 C.2    98  ASP98       0.3671
     60  OD1       43.4690   32.9100  -15.0030 O.co2  98  ASP98      -0.2456
     61  OD2       43.2500   32.5310  -17.1340 O.co2  98  ASP98      -0.2456
     62  N         40.2890   31.0660  -17.8660 N.am   99  THR99      -0.1937
     63  CA        40.1180   30.0220  -18.8720 C.3    99  THR99       0.2028
     64  C         38.6960   30.0410  -19.4090 C.2    99  THR99       0.2643
     65  O         38.4570   29.6110  -20.5240 O.2    99  THR99      -0.2714
     66  CB        40.3960   28.6110  -18.3010 C.3    99  THR99       0.1808
     67  OG1       39.4150   28.2900  -17.3060 O.3    99  THR99      -0.2208
     68  CG2       41.7940   28.5270  -17.6870 C.3    99  THR99       0.0379
     69  N         37.7560   30.5350  -18.6060 N.am  100  GLY100     -0.1939
     70  CA        36.3480   30.4880  -18.9750 C.3   100  GLY100      0.2014
     71  C         35.6120   29.2330  -18.5090 C.2   100  GLY100      0.2639
     72  O         34.4180   29.0910  -18.7500 O.2   100  GLY100     -0.2714
     73  N         36.3230   28.3280  -17.8380 N.am  101  ASP101     -0.1957
     74  CA        35.7150   27.1160  -17.2940 C.3   101  ASP101      0.1840
     75  C         34.5490   27.4170  -16.3310 C.2   101  ASP101      0.2623
     76  O         33.4920   26.7970  -16.4140 O.2   101  ASP101     -0.2715
     77  CB        36.7700   26.2370  -16.6040 C.3   101  ASP101      0.1450
     78  CG        37.7340   25.5540  -17.5980 C.2   101  ASP101      0.3671
     79  OD1       37.5750   25.7160  -18.8310 O.co2 101  ASP101     -0.2456
     80  OD2       38.6670   24.8500  -17.1420 O.co2 101  ASP101     -0.2456
     81  N         34.7310   28.3710  -15.4240 N.am  102  SER102     -0.1936
     82  CA        33.6670   28.7150  -14.4770 C.3   102  SER102      0.2055
     83  C         32.3960   29.2530  -15.1390 C.2   102  SER102      0.2642
     84  O         31.2990   28.7770  -14.8440 O.2   102  SER102     -0.2714
     85  CB        34.1670   29.7000  -13.4270 C.3   102  SER102      0.2130
     86  OG        35.2920   29.1630  -12.7620 O.3   102  SER102     -0.2179
     87  N         32.5280   30.2360  -16.0320 N.am  103  ILE103     -0.1977
     88  CA        31.3270   30.7970  -16.6530 C.3   103  ILE103      0.1596
     89  C         30.6530   29.7970  -17.5730 C.2   103  ILE103      0.2287
     90  O         29.4290   29.7790  -17.6800 O.2   103  ILE103     -0.2864
     91  CB        31.5650   32.1400  -17.3890 C.3   103  ILE103      0.0276
     92  CG1       32.6450   31.9920  -18.4530 C.3   103  ILE103      0.0022
     93  CG2       31.8900   33.2530  -16.3950 C.3   103  ILE103      0.0022
     94  CD1       32.8300   33.2250  -19.2800 C.3   103  ILE103      0.0001
     95  N         40.6720   37.7050  -19.6850 N.3   127  ILE127     -0.1245
     96  CA        42.0520   37.5230  -20.1420 C.3   127  ILE127      0.1561
     97  C         42.0600   36.9210  -21.5390 C.2   127  ILE127      0.2260
     98  O         41.8650   35.7220  -21.7080 O.2   127  ILE127     -0.2867
     99  CB        42.8600   36.6420  -19.1810 C.3   127  ILE127      0.0252
    100  CG1       42.8230   37.2390  -17.7700 C.3   127  ILE127      0.0019
    101  CG2       44.2950   36.5020  -19.6670 C.3   127  ILE127      0.0019
    102  CD1       43.4740   36.3730  -16.7020 C.3   127  ILE127      0.0001
    103  N         48.5470   37.8500  -19.0190 N.3   145  TRP145     -0.1227
    104  CA        48.1510   37.2110  -17.7580 C.3   145  TRP145      0.1737
    105  C         48.8450   37.8130  -16.5430 C.2   145  TRP145      0.2595
    106  O         50.0410   38.0870  -16.5750 O.2   145  TRP145     -0.2718
    107  CB        48.4250   35.7040  -17.7980 C.3   145  TRP145      0.0564
    108  CG        47.7940   34.9530  -16.6540 C.ar  145  TRP145      0.0003
    109  CD1       46.6000   34.2860  -16.6680 C.ar  145  TRP145      0.0946
    110  CD2       48.3170   34.8090  -15.3250 C.ar  145  TRP145      0.0152
    111  NE1       46.3510   33.7370  -15.4350 N.ar  145  TRP145     -0.2442
    112  CE2       47.3910   34.0370  -14.5940 C.ar  145  TRP145      0.0810
    113  CE3       49.4770   35.2560  -14.6850 C.ar  145  TRP145      0.0012
    114  CZ2       47.5920   33.6930  -13.2590 C.ar  145  TRP145      0.0191
    115  CZ3       49.6740   34.9190  -13.3530 C.ar  145  TRP145      0.0001
    116  CH2       48.7350   34.1380  -12.6560 C.ar  145  TRP145      0.0015
    117  N         48.0740   38.0360  -15.4850 N.am  146  ALA146     -0.1966
    118  CA        48.6100   38.4590  -14.2020 C.3   146  ALA146      0.1728
    119  C         47.6400   37.9830  -13.1460 C.2   146  ALA146      0.2616
    120  O         46.4820   37.7220  -13.4520 O.2   146  ALA146     -0.2715
    121  CB        48.7620   39.9700  -14.1520 C.3   146  ALA146      0.0334
    122  N         48.1040   37.8290  -11.9120 N.am  147  TRP147     -0.1960
    123  CA        47.1860   37.4880  -10.8350 C.3   147  TRP147      0.1771
    124  C         46.5640   38.7580  -10.2820 C.2   147  TRP147      0.2619
    125  O         47.2770   39.6500   -9.8140 O.2   147  TRP147     -0.2715
    126  CB        47.8650   36.7230   -9.7040 C.3   147  TRP147      0.0590
    127  CG        46.8760   36.3480   -8.6410 C.ar  147  TRP147      0.0006
    128  CD1       46.6950   36.9560   -7.4310 C.ar  147  TRP147      0.0946
    129  CD2       45.8920   35.3090   -8.7180 C.ar  147  TRP147      0.0152
    130  NE1       45.6670   36.3510   -6.7420 N.ar  147  TRP147     -0.2442
    131  CE2       45.1580   35.3360   -7.5100 C.ar  147  TRP147      0.0810
    132  CE3       45.5610   34.3540   -9.6900 C.ar  147  TRP147      0.0012
    133  CZ2       44.1170   34.4380   -7.2440 C.ar  147  TRP147      0.0191
    134  CZ3       44.5210   33.4600   -9.4310 C.ar  147  TRP147      0.0001
    135  CH2       43.8090   33.5120   -8.2180 C.ar  147  TRP147      0.0015
    136  N         45.2410   38.8350  -10.3280 N.am  148  PHE148     -0.1974
    137  CA        44.5460   40.0080   -9.8090 C.3   148  PHE148      0.1639
    138  C         44.0960   39.8030   -8.3860 C.2   148  PHE148      0.2290
    139  O         43.2370   38.9630   -8.0960 O.2   148  PHE148     -0.2864
    140  CB        43.3940   40.4020  -10.7260 C.3   148  PHE148      0.0560
    141  CG        43.8600   40.8710  -12.0650 C.ar  148  PHE148     -0.0200
    142  CD1       44.0160   39.9800  -13.1090 C.ar  148  PHE148     -0.0042
    143  CD2       44.2180   42.1980  -12.2610 C.ar  148  PHE148     -0.0042
    144  CE1       44.4790   40.4110  -14.3350 C.ar  148  PHE148     -0.0003
    145  CE2       44.6760   42.6330  -13.4860 C.ar  148  PHE148     -0.0003
    146  CZ        44.8100   41.7420  -14.5190 C.ar  148  PHE148     -0.0000
    147  N         42.0710   40.9530   -5.5950 N.3   150  TYR150     -0.1241
    148  CA        40.8950   41.7850   -5.3010 C.3   150  TYR150      0.1605
    149  C         40.7750   42.1540   -3.8170 C.2   150  TYR150      0.2264
    150  O         41.2150   41.3960   -2.9470 O.2   150  TYR150     -0.2867
    151  CB        39.6210   41.0670   -5.7810 C.3   150  TYR150      0.0534
    152  CG        39.6700   40.7300   -7.2590 C.ar  150  TYR150     -0.0201
    153  CD1       39.7140   39.4110   -7.6950 C.ar  150  TYR150     -0.0009
    154  CD2       39.6900   41.7430   -8.2180 C.ar  150  TYR150     -0.0009
    155  CE1       39.7590   39.1130   -9.0430 C.ar  150  TYR150      0.0417
    156  CE2       39.7470   41.4540   -9.5610 C.ar  150  TYR150      0.0417
    157  CZ        39.7810   40.1470   -9.9710 C.ar  150  TYR150      0.1957
    158  OH        39.8360   39.8730  -11.3150 O.3   150  TYR150     -0.2866
@<TRIPOS>BOND
     1    98    97    2
     2    97    96    1
     3    65    64    2
     4    96    95    1
     5    96    99    1
     6   101    99    1
     7    64    63    1
     8    64    69   am
     9    57    56    2
    10    94    92    1
    11    99   100    1
    12    53    51    1
    13   103   104    1
    14    70    69    1
    15    70    71    1
    16    63    66    1
    17    63    62    1
    18    79    78   ar
    19    72    71    2
    20    71    73   am
    21    92    91    1
    22    66    68    1
    23    66    67    1
    24    51    52    1
    25    51    48    1
    26    56    62   am
    27    56    55    1
    28    50    49    2
    29    73    74    1
    30   107   104    1
    31   107   108    1
    32   100   102    1
    33   104   105    1
    34    90    89    2
    35    78    80   ar
    36    78    77    1
    37    89    88    1
    38    91    88    1
    39    91    93    1
    40    74    77    1
    41    74    75    1
    42    49    48    1
    43    49    54   am
    44    61    59   ar
    45    55    54    1
    46    55    58    1
    47    48    47    1
    48   109   108   ar
    49   109   111   ar
    50   108   110   ar
    51    88    87    1
    52   106   105    2
    53   105   117   am
    54    76    75    2
    55    75    81   am
    56    47    41   am
    57    87    83   am
    58    59    58    1
    59    59    60   ar
    60   117   118    1
    61   111   112   ar
    62    81    82    1
    63   110   113   ar
    64   110   112   ar
    65    83    84    2
    66    83    82    1
    67    44    46    1
    68    44    43    1
    69    41    42    2
    70    41    40    1
    71   113   115   ar
    72   112   114   ar
    73   146   144   ar
    74   146   145   ar
    75    82    85    1
    76   144   142   ar
    77   118   121    1
    78   118   119    1
    79    40    43    1
    80    40    39    1
    81    43    45    1
    82   145   143   ar
    83   120   119    2
    84    85    86    1
    85   115   116   ar
    86   114   116   ar
    87   119   122   am
    88   142   141   ar
    89    34    33    2
    90    39    33   am
    91    26    25    2
    92     8     6    1
    93    23    24    1
    94    27    24    1
    95    27    28    1
    96    33    32    1
    97   143   141   ar
    98   141   140    1
    99   122   123    1
   100    25    24    1
   101    25    31   am
   102    30    28   ar
   103    28    29   ar
   104     6     5    1
   105   158   157    1
   106    31    32    1
   107    32    35    1
   108   123   124    1
   109   123   126    1
   110   140   137    1
   111    37    36   ar
   112    20    22   ar
   113    20    18   ar
   114   136   124   am
   115   136   137    1
   116    22    21   ar
   117   124   125    2
   118     5     7    1
   119     5     2    1
   120   157   156   ar
   121   157   155   ar
   122    35    36    1
   123   137   138    1
   124   126   127    1
   125   132   134   ar
   126   132   129   ar
   127    36    38   ar
   128   156   154   ar
   129   134   135   ar
   130    18    17    1
   131    18    19   ar
   132     1     2    1
   133    17    14    1
   134   155   153   ar
   135    21    19   ar
   136     2     3    1
   137    14    15    1
   138    14    13    1
   139   129   127   ar
   140   129   131   ar
   141   127   128   ar
   142   138   139    2
   143    15    16    2
   144   135   133   ar
   145   154   152   ar
   146   153   152   ar
   147     3     4    2
   148   131   133   ar
   149   131   130   ar
   150   128   130   ar
   151    12    11    2
   152   152   151    1
   153    11    10    1
   154    10     9    1
   155   151   148    1
   156   147   148    1
   157   148   149    1
   158   149   150    2
