@<TRIPOS>MOLECULE
tmp/4ts7A00.pdb
 158 158 0 0 0
SMALL
GASTEIGER

@<TRIPOS>ATOM
      1  N         44.0020    7.6950   10.0400 N.3    37  ILE37      -0.1245
      2  CA        43.4110    8.9930    9.7970 C.3    37  ILE37       0.1561
      3  C         44.0450    9.5630    8.5370 C.2    37  ILE37       0.2260
      4  O         45.2490    9.7590    8.4920 O.2    37  ILE37      -0.2867
      5  CB        43.6490    9.9000   10.9920 C.3    37  ILE37       0.0252
      6  CG1       42.9370    9.3250   12.2250 C.3    37  ILE37       0.0019
      7  CG2       43.1630   11.2860   10.6980 C.3    37  ILE37       0.0019
      8  CD1       43.1930   10.0810   13.5200 C.3    37  ILE37       0.0001
      9  N         47.2730   12.2340    6.9380 N.3    40  GLY40      -0.1225
     10  CA        48.4830   12.1410    7.7340 C.3    40  GLY40       0.1811
     11  C         48.9180   10.7660    8.2190 C.2    40  GLY40       0.2280
     12  O         50.1110   10.4860    8.3320 O.2    40  GLY40      -0.2866
     13  N         39.9300   19.7430    8.5540 N.3    64  HIS64      -0.1241
     14  CA        40.1920   20.6760    9.6320 C.3    64  HIS64       0.1621
     15  C         39.6930   22.0530    9.2380 C.2    64  HIS64       0.2264
     16  O         40.2010   22.6710    8.3060 O.2    64  HIS64      -0.2867
     17  CB        41.6790   20.6570    9.9800 C.3    64  HIS64       0.0745
     18  CG        42.1760   19.2830   10.3210 C.ar   64  HIS64       0.0817
     19  ND1       42.6470   18.4010    9.3690 N.ar   64  HIS64      -0.2268
     20  CD2       42.2200   18.6220   11.5020 C.ar   64  HIS64       0.1154
     21  CE1       42.9800   17.2660    9.9540 C.ar   64  HIS64       0.1986
     22  NE2       42.7300   17.3740   11.2480 N.ar   64  HIS64      -0.2212
     23  N         47.7520    8.1840   13.5050 N.3    94  ASP94      -0.1225
     24  CA        47.9670    9.4540   12.8210 C.3    94  ASP94       0.1805
     25  C         49.4620    9.7550   12.8450 C.2    94  ASP94       0.2598
     26  O         50.2230    9.0730   13.5260 O.2    94  ASP94      -0.2718
     27  CB        47.1670   10.5830   13.4840 C.3    94  ASP94       0.1424
     28  CG        46.5990   11.5800   12.4750 C.2    94  ASP94       0.3668
     29  OD1       47.0330   11.5580   11.3040 O.co2  94  ASP94      -0.2456
     30  OD2       45.7160   12.3820   12.8540 O.co2  94  ASP94      -0.2456
     31  N         49.8800   10.7720   12.1010 N.am   95  ASP95      -0.1960
     32  CA        51.2820   11.1690   12.0700 C.3    95  ASP95       0.1840
     33  C         51.7770   11.7900   13.3910 C.2    95  ASP95       0.2622
     34  O         52.7830   11.3490   13.9600 O.2    95  ASP95      -0.2715
     35  CB        51.5700   12.0920   10.8710 C.3    95  ASP95       0.1450
     36  CG        50.5050   13.1780   10.6710 C.2    95  ASP95       0.3671
     37  OD1       49.6510   13.3880   11.5680 O.co2  95  ASP95      -0.2456
     38  OD2       50.5400   13.8220    9.5950 O.co2  95  ASP95      -0.2456
     39  N         51.0590   12.7920   13.8900 N.am   96  ILE96      -0.1963
     40  CA        51.5210   13.5510   15.0440 C.3    96  ILE96       0.1727
     41  C         50.3540   13.9130   15.9380 C.2    96  ILE96       0.2617
     42  O         49.2620   14.1540   15.4560 O.2    96  ILE96      -0.2715
     43  CB        52.2700   14.8410   14.5920 C.3    96  ILE96       0.0290
     44  CG1       52.8490   15.6070   15.7840 C.3    96  ILE96       0.0022
     45  CG2       51.3640   15.7310   13.7360 C.3    96  ILE96       0.0023
     46  CD1       53.8990   16.6240   15.3770 C.3    96  ILE96       0.0001
     47  N         50.5760   13.9260   17.2460 N.am   97  THR97      -0.1937
     48  CA        49.6040   14.5050   18.1610 C.3    97  THR97       0.2028
     49  C         50.0520   15.9240   18.4510 C.2    97  THR97       0.2642
     50  O         51.0280   16.1450   19.1650 O.2    97  THR97      -0.2714
     51  CB        49.4970   13.7070   19.4570 C.3    97  THR97       0.1808
     52  OG1       49.0520   12.3840   19.1480 O.3    97  THR97      -0.2208
     53  CG2       48.5050   14.3640   20.4380 C.3    97  THR97       0.0379
     54  N         49.3600   16.8850   17.8520 N.am   98  ASP98      -0.1957
     55  CA        49.6650   18.2970   18.0600 C.3    98  ASP98       0.1840
     56  C         48.6680   18.8950   19.0570 C.2    98  ASP98       0.2623
     57  O         49.0120   19.1260   20.2190 O.2    98  ASP98      -0.2715
     58  CB        49.6420   19.0460   16.7280 C.3    98  ASP98       0.1450
     59  CG        50.1200   20.4720   16.8460 C.2    98  ASP98       0.3671
     60  OD1       50.6070   21.0030   15.8300 O.co2  98  ASP98      -0.2456
     61  OD2       50.0120   21.0640   17.9370 O.co2  98  ASP98      -0.2456
     62  N         47.4320   19.1140   18.6140 N.am   99  THR99      -0.1937
     63  CA        46.4050   19.6440   19.4950 C.3    99  THR99       0.2028
     64  C         45.6750   18.4990   20.1660 C.2    99  THR99       0.2643
     65  O         45.3400   18.5850   21.3360 O.2    99  THR99      -0.2714
     66  CB        45.3810   20.5100   18.7430 C.3    99  THR99       0.1808
     67  OG1       44.5990   19.6840   17.8720 O.3    99  THR99      -0.2208
     68  CG2       46.0700   21.5900   17.9350 C.3    99  THR99       0.0379
     69  N         45.4380   17.4280   19.4130 N.am  100  GLY100     -0.1939
     70  CA        44.6990   16.2720   19.9010 C.3   100  GLY100      0.2014
     71  C         43.2690   16.2420   19.3850 C.2   100  GLY100      0.2639
     72  O         42.5170   15.3050   19.6490 O.2   100  GLY100     -0.2714
     73  N         42.8990   17.2720   18.6330 N.am  101  ASP101     -0.1957
     74  CA        41.5370   17.4150   18.1310 C.3   101  ASP101      0.1840
     75  C         41.1300   16.2880   17.1750 C.2   101  ASP101      0.2623
     76  O         39.9830   15.8260   17.1880 O.2   101  ASP101     -0.2715
     77  CB        41.3500   18.7840   17.4570 C.3   101  ASP101      0.1450
     78  CG        41.2370   19.9290   18.4600 C.2   101  ASP101      0.3671
     79  OD1       41.5150   19.7360   19.6620 O.co2 101  ASP101     -0.2456
     80  OD2       40.8690   21.0370   18.0400 O.co2 101  ASP101     -0.2456
     81  N         42.0680   15.8430   16.3470 N.am  102  SER102     -0.1936
     82  CA        41.7570   14.8240   15.3550 C.3   102  SER102      0.2055
     83  C         41.6750   13.4340   15.9510 C.2   102  SER102      0.2642
     84  O         40.7840   12.6620   15.6010 O.2   102  SER102     -0.2714
     85  CB        42.7840   14.8370   14.2330 C.3   102  SER102      0.2130
     86  OG        42.8210   16.1020   13.5990 O.3   102  SER102     -0.2179
     87  N         42.6010   13.0950   16.8370 N.am  103  ILE103     -0.1977
     88  CA        42.5420   11.7770   17.4640 C.3   103  ILE103      0.1596
     89  C         41.4000   11.6880   18.4780 C.2   103  ILE103      0.2287
     90  O         40.9110   10.6010   18.7770 O.2   103  ILE103     -0.2864
     91  CB        43.8870   11.3540   18.1030 C.3   103  ILE103      0.0276
     92  CG1       44.3740   12.4020   19.1010 C.3   103  ILE103      0.0022
     93  CG2       44.9310   11.1660   17.0340 C.3   103  ILE103      0.0022
     94  CD1       45.5180   11.9250   19.9680 C.3   103  ILE103      0.0001
     95  N         53.4710   16.2600   20.8240 N.3   127  ILE127     -0.1245
     96  CA        53.9800   17.5390   21.3120 C.3   127  ILE127      0.1561
     97  C         53.3940   17.8570   22.6700 C.2   127  ILE127      0.2260
     98  O         52.3030   18.4120   22.7640 O.2   127  ILE127     -0.2867
     99  CB        53.7050   18.6940   20.3370 C.3   127  ILE127      0.0252
    100  CG1       54.2370   18.3550   18.9370 C.3   127  ILE127      0.0019
    101  CG2       54.3460   19.9630   20.8510 C.3   127  ILE127      0.0019
    102  CD1       53.8410   19.3580   17.8570 C.3   127  ILE127      0.0001
    103  N         57.2040   23.0170   20.3530 N.3   145  TRP145     -0.1227
    104  CA        56.4580   22.9780   19.0930 C.3   145  TRP145      0.1737
    105  C         57.2770   23.4050   17.8980 C.2   145  TRP145      0.2595
    106  O         57.9780   24.4080   17.9370 O.2   145  TRP145     -0.2718
    107  CB        55.2160   23.8710   19.1600 C.3   145  TRP145      0.0564
    108  CG        54.2970   23.7430   17.9690 C.ar  145  TRP145      0.0003
    109  CD1       53.1400   23.0210   17.9020 C.ar  145  TRP145      0.0946
    110  CD2       54.4590   24.3540   16.6840 C.ar  145  TRP145      0.0152
    111  NE1       52.5700   23.1470   16.6570 N.ar  145  TRP145     -0.2442
    112  CE2       53.3610   23.9580   15.8890 C.ar  145  TRP145      0.0810
    113  CE3       55.4250   25.1990   16.1240 C.ar  145  TRP145      0.0012
    114  CZ2       53.1980   24.3840   14.5630 C.ar  145  TRP145      0.0191
    115  CZ3       55.2650   25.6190   14.8000 C.ar  145  TRP145      0.0001
    116  CH2       54.1550   25.2100   14.0380 C.ar  145  TRP145      0.0015
    117  N         57.1630   22.6290   16.8290 N.am  146  ALA146     -0.1966
    118  CA        57.7030   22.9790   15.5220 C.3   146  ALA146      0.1728
    119  C         56.7720   22.3890   14.4780 C.2   146  ALA146      0.2616
    120  O         55.9050   21.5770   14.8070 O.2   146  ALA146     -0.2715
    121  CB        59.0980   22.4220   15.3490 C.3   146  ALA146      0.0334
    122  N         56.9240   22.7990   13.2240 N.am  147  TRP147     -0.1960
    123  CA        56.1890   22.1340   12.1610 C.3   147  TRP147      0.1771
    124  C         57.0860   21.0740   11.5440 C.2   147  TRP147      0.2619
    125  O         58.2040   21.3860   11.1300 O.2   147  TRP147     -0.2715
    126  CB        55.7130   23.1130   11.0950 C.3   147  TRP147      0.0590
    127  CG        54.9860   22.4050    9.9980 C.ar  147  TRP147      0.0006
    128  CD1       55.5310   21.8800    8.8660 C.ar  147  TRP147      0.0946
    129  CD2       53.5780   22.1230    9.9360 C.ar  147  TRP147      0.0152
    130  NE1       54.5540   21.3050    8.0950 N.ar  147  TRP147     -0.2442
    131  CE2       53.3460   21.4370    8.7280 C.ar  147  TRP147      0.0810
    132  CE3       52.4910   22.3920   10.7820 C.ar  147  TRP147      0.0012
    133  CZ2       52.0750   21.0040    8.3460 C.ar  147  TRP147      0.0191
    134  CZ3       51.2280   21.9660   10.4010 C.ar  147  TRP147      0.0001
    135  CH2       51.0310   21.2750    9.1980 C.ar  147  TRP147      0.0015
    136  N         56.6090   19.8260   11.5020 N.am  148  PHE148     -0.1974
    137  CA        57.3930   18.7040   10.9620 C.3   148  PHE148      0.1639
    138  C         57.0640   18.3780    9.5060 C.2   148  PHE148      0.2290
    139  O         55.9430   17.9640    9.1820 O.2   148  PHE148     -0.2864
    140  CB        57.2220   17.4720   11.8440 C.3   148  PHE148      0.0560
    141  CG        57.7540   17.6650   13.2140 C.ar  148  PHE148     -0.0200
    142  CD1       56.9670   18.2240   14.2060 C.ar  148  PHE148     -0.0042
    143  CD2       59.0660   17.3400   13.5110 C.ar  148  PHE148     -0.0042
    144  CE1       57.4780   18.4310   15.4880 C.ar  148  PHE148     -0.0003
    145  CE2       59.5800   17.5430   14.7770 C.ar  148  PHE148     -0.0003
    146  CZ        58.7870   18.0890   15.7700 C.ar  148  PHE148     -0.0000
    147  N         56.9950   16.0490    6.7480 N.3   150  TYR150     -0.1241
    148  CA        57.1320   14.6240    6.4920 C.3   150  TYR150      0.1605
    149  C         57.4160   14.3580    5.0130 C.2   150  TYR150      0.2264
    150  O         56.9790   15.1130    4.1510 O.2   150  TYR150     -0.2867
    151  CB        55.8860   13.8830    6.9670 C.3   150  TYR150      0.0534
    152  CG        55.6090   14.0640    8.4420 C.ar  150  TYR150     -0.0201
    153  CD1       54.4400   14.6630    8.8830 C.ar  150  TYR150     -0.0009
    154  CD2       56.5190   13.6320    9.3950 C.ar  150  TYR150     -0.0009
    155  CE1       54.1820   14.8310   10.2360 C.ar  150  TYR150      0.0417
    156  CE2       56.2710   13.7970   10.7450 C.ar  150  TYR150      0.0417
    157  CZ        55.0990   14.4020   11.1570 C.ar  150  TYR150      0.1957
    158  OH        54.8430   14.5680   12.4970 O.3   150  TYR150     -0.2866
@<TRIPOS>BOND
     1   150   149    2
     2   149   148    1
     3   148   147    1
     4   148   151    1
     5     9    10    1
     6   151   152    1
     7    10    11    1
     8   130   131   ar
     9   130   128   ar
    10    11    12    2
    11    16    15    2
    12   133   131   ar
    13   133   135   ar
    14   152   153   ar
    15   152   154   ar
    16     4     3    2
    17     3     2    1
    18    13    14    1
    19   131   129   ar
    20   128   127   ar
    21   153   155   ar
    22   139   138    2
    23   135   134   ar
    24    15    14    1
    25    19    21   ar
    26    19    18   ar
    27   154   156   ar
    28   138   137    1
    29    38    36   ar
    30    14    17    1
    31     2     1    1
    32     2     5    1
    33   129   127   ar
    34   129   132   ar
    35    21    22   ar
    36    17    18    1
    37   127   126    1
    38   155   157   ar
    39    18    20   ar
    40   134   132   ar
    41    36    35    1
    42    36    37   ar
    43     7     5    1
    44   156   157   ar
    45    35    32    1
    46   137   136    1
    47   137   140    1
    48     5     6    1
    49   126   123    1
    50   125   124    2
    51   157   158    1
    52    22    20   ar
    53    29    28   ar
    54   136   124   am
    55   124   123    1
    56   140   141    1
    57    32    31    1
    58    32    33    1
    59    31    25   am
    60   123   122    1
    61     6     8    1
    62    28    30   ar
    63    28    27    1
    64    24    25    1
    65    24    27    1
    66    24    23    1
    67    25    26    2
    68   141   143   ar
    69   141   142   ar
    70   122   119   am
    71    33    39   am
    72    33    34    2
    73   143   145   ar
    74    86    85    1
    75    45    43    1
    76    39    40    1
    77   116   114   ar
    78   116   115   ar
    79   142   144   ar
    80    85    82    1
    81   119   120    2
    82   119   118    1
    83   114   112   ar
    84    43    40    1
    85    43    44    1
    86   145   146   ar
    87   115   113   ar
    88    40    41    1
    89   121   118    1
    90    82    83    1
    91    82    81    1
    92    46    44    1
    93    42    41    2
    94   144   146   ar
    95   118   117    1
    96    84    83    2
    97    60    59   ar
    98   112   111   ar
    99   112   110   ar
   100    41    47   am
   101    83    87   am
   102   113   110   ar
   103    81    75   am
   104   111   109   ar
   105   110   108   ar
   106    58    59    1
   107    58    55    1
   108   117   105   am
   109    87    88    1
   110    59    61   ar
   111    93    91    1
   112    75    76    2
   113    75    74    1
   114    47    48    1
   115    77    74    1
   116    77    78    1
   117    88    91    1
   118    88    89    1
   119    54    55    1
   120    54    49   am
   121   102   100    1
   122    67    66    1
   123   105   106    2
   124   105   104    1
   125   109   108   ar
   126    68    66    1
   127   108   107    1
   128    80    78   ar
   129    55    56    1
   130    91    92    1
   131    74    73    1
   132    48    49    1
   133    48    51    1
   134    49    50    2
   135    78    79   ar
   136    89    90    2
   137    62    56   am
   138    62    63    1
   139    73    71   am
   140    66    63    1
   141   100    99    1
   142    56    57    2
   143   104   107    1
   144   104   103    1
   145    92    94    1
   146    52    51    1
   147    71    72    2
   148    71    70    1
   149    69    70    1
   150    69    64   am
   151    51    53    1
   152    63    64    1
   153    64    65    2
   154    99   101    1
   155    99    96    1
   156    95    96    1
   157    96    97    1
   158    97    98    2
