@<TRIPOS>MOLECULE
tmp/4ts8A00.pdb
 121 115 0 0 0
SMALL
GASTEIGER

@<TRIPOS>ATOM
      1  N          2.4620    7.6060  -10.3130 N.3    25  LEU25      -0.1231
      2  CA         3.7160    7.2390   -9.6430 C.3    25  LEU25       0.1678
      3  C          3.5510    6.4800   -8.3100 C.2    25  LEU25       0.2434
      4  O          4.2370    5.4780   -8.0990 O.2    25  LEU25      -0.2733
      5  CB         4.5810    8.4920   -9.4320 C.3    25  LEU25       0.0284
      6  CG         4.9120    9.2040  -10.7480 C.3    25  LEU25       0.0019
      7  CD1        5.7850   10.4370  -10.5390 C.3    25  LEU25       0.0001
      8  CD2        5.5700    8.2370  -11.7190 C.3    25  LEU25       0.0001
      9  N          2.6540    6.9330   -7.4050 N.am   26  PRO26      -0.2718
     10  CA         2.4870    6.1480   -6.1710 C.3    26  PRO26       0.1535
     11  C          1.8320    4.7790   -6.3770 C.2    26  PRO26       0.2598
     12  O          1.7470    3.9890   -5.4350 O.2    26  PRO26      -0.2715
     13  CB         1.5760    7.0340   -5.3100 C.3    26  PRO26       0.0310
     14  CG         1.5920    8.3910   -5.9710 C.3    26  PRO26       0.0237
     15  CD         1.7520    8.0980   -7.4170 C.3    26  PRO26       0.0939
     16  N          1.3750    4.5020   -7.5910 N.am   27  PHE27      -0.1974
     17  CA         0.6260    3.2830   -7.8700 C.3    27  PHE27       0.1639
     18  C          1.3740    2.2900   -8.7730 C.2    27  PHE27       0.2290
     19  O          0.8280    1.2410   -9.1420 O.2    27  PHE27      -0.2864
     20  CB        -0.7360    3.6430   -8.4970 C.3    27  PHE27       0.0560
     21  CG        -1.6450    4.3930   -7.5630 C.ar   27  PHE27      -0.0200
     22  CD1       -2.5220    3.7110   -6.7380 C.ar   27  PHE27      -0.0042
     23  CD2       -1.6060    5.7830   -7.4930 C.ar   27  PHE27      -0.0042
     24  CE1       -3.3620    4.3970   -5.8630 C.ar   27  PHE27      -0.0003
     25  CE2       -2.4390    6.4810   -6.6230 C.ar   27  PHE27      -0.0003
     26  CZ        -3.3260    5.7860   -5.8070 C.ar   27  PHE27      -0.0000
     27  N          4.3250    0.5540   -8.1700 N.3    29  GLN29      -0.1245
     28  CA         4.8860   -0.5930   -7.4510 C.3    29  GLN29       0.1566
     29  C          3.9990   -0.9800   -6.2690 C.2    29  GLN29       0.2260
     30  O          3.2360   -0.1480   -5.7700 O.2    29  GLN29      -0.2867
     31  CB         6.2860   -0.2690   -6.9340 C.3    29  GLN29       0.0367
     32  CG         7.3320   -0.0130   -7.9930 C.3    29  GLN29       0.0905
     33  CD         8.6860    0.2220   -7.3590 C.2    29  GLN29       0.2608
     34  OE1        9.0580   -0.4560   -6.4040 O.2    29  GLN29      -0.2717
     35  NE2        9.4210    1.1940   -7.8700 N.am   29  GLN29      -0.0878
     36  N          2.8690   -1.3170   -2.5810 N.3    31  VAL31      -0.1245
     37  CA         3.1590   -0.5830   -1.3590 C.3    31  VAL31       0.1561
     38  C          4.1590   -1.3670   -0.5030 C.2    31  VAL31       0.2260
     39  O          3.9720   -2.5560   -0.2790 O.2    31  VAL31      -0.2867
     40  CB         1.8600   -0.3220   -0.5580 C.3    31  VAL31       0.0252
     41  CG1        2.1690    0.2890    0.7910 C.3    31  VAL31       0.0019
     42  CG2        0.9190    0.5890   -1.3600 C.3    31  VAL31       0.0019
     43  N          7.9340    2.9910    3.4010 N.3    36  LEU36      -0.1245
     44  CA         7.0340    4.1240    3.4790 C.3    36  LEU36       0.1561
     45  C          6.7290    4.5200    4.9180 C.2    36  LEU36       0.2260
     46  O          6.1250    5.5660    5.1630 O.2    36  LEU36      -0.2867
     47  CB         5.7460    3.8140    2.7160 C.3    36  LEU36       0.0270
     48  CG         5.9400    3.8230    1.1990 C.3    36  LEU36       0.0019
     49  CD1        4.6800    3.3530    0.4600 C.3    36  LEU36       0.0001
     50  CD2        6.3410    5.2130    0.7480 C.3    36  LEU36       0.0001
     51  N          4.7920    2.9450    7.2480 N.3    38  ILE38      -0.1245
     52  CA         3.3830    2.8000    7.6250 C.3    38  ILE38       0.1561
     53  C          3.1220    1.3590    8.0760 C.2    38  ILE38       0.2260
     54  O          2.4940    0.5520    7.3720 O.2    38  ILE38      -0.2867
     55  CB         2.4530    3.2140    6.4640 C.3    38  ILE38       0.0252
     56  CG1        2.9630    2.6740    5.1300 C.3    38  ILE38       0.0019
     57  CG2        2.3950    4.7320    6.3600 C.3    38  ILE38       0.0019
     58  CD1        1.9540    2.8440    3.9920 C.3    38  ILE38       0.0001
     59  N         -0.1080   -0.9310    7.6870 N.3    41  TYR41      -0.1241
     60  CA        -0.7220   -1.0040    6.3610 C.3    41  TYR41       0.1605
     61  C         -1.3360   -2.3690    6.0370 C.2    41  TYR41       0.2264
     62  O         -2.4340   -2.4430    5.4950 O.2    41  TYR41      -0.2867
     63  CB         0.3020   -0.6520    5.2740 C.3    41  TYR41       0.0534
     64  CG        -0.3070   -0.6720    3.8850 C.ar   41  TYR41      -0.0201
     65  CD1       -1.0220    0.4280    3.4080 C.ar   41  TYR41      -0.0009
     66  CD2       -0.1740   -1.7860    3.0540 C.ar   41  TYR41      -0.0009
     67  CE1       -1.5890    0.4210    2.1490 C.ar   41  TYR41       0.0417
     68  CE2       -0.7400   -1.8030    1.7880 C.ar   41  TYR41       0.0417
     69  CZ        -1.4420   -0.6940    1.3440 C.ar   41  TYR41       0.1957
     70  OH        -2.0080   -0.6930    0.0910 O.3    41  TYR41      -0.2866
     71  N         -7.4260   -1.7230   -6.3350 N.3    76  MET76      -0.1245
     72  CA        -6.2840   -0.8260   -6.1780 C.3    76  MET76       0.1570
     73  C         -6.7000    0.5390   -5.6210 C.2    76  MET76       0.2261
     74  O         -6.1180    1.0280   -4.6460 O.2    76  MET76      -0.2867
     75  CB        -5.5700   -0.6610   -7.5270 C.3    76  MET76       0.0387
     76  CG        -4.4270    0.3750   -7.5300 C.3    76  MET76       0.0595
     77  SD        -3.4930    0.4050   -9.0790 S.3    76  MET76      -0.1393
     78  CE        -4.7460    0.9690  -10.2220 C.3    76  MET76       0.0692
     79  N         -6.4490    2.3390   -1.5730 N.3    80  ALA80      -0.1245
     80  CA        -5.8070    3.6250   -1.2850 C.3    80  ALA80       0.1562
     81  C         -6.7910    4.5950   -0.6370 C.2    80  ALA80       0.2260
     82  O         -6.4190    5.3780    0.2400 O.2    80  ALA80      -0.2867
     83  CB        -5.2180    4.2110   -2.5440 C.3    80  ALA80       0.0290
     84  N         -7.0520    3.4010    3.1530 N.3    83  TYR83      -0.1227
     85  CA        -5.9220    3.5930    4.0600 C.3    83  TYR83       0.1736
     86  C         -5.5820    5.0660    4.2660 C.2    83  TYR83       0.2595
     87  O         -5.2550    5.4790    5.3730 O.2    83  TYR83      -0.2718
     88  CB        -4.6600    2.8410    3.5700 C.3    83  TYR83       0.0548
     89  CG        -3.5450    2.9550    4.5920 C.ar   83  TYR83      -0.0200
     90  CD1       -3.5530    2.1720    5.7400 C.ar   83  TYR83      -0.0009
     91  CD2       -2.5150    3.8870    4.4400 C.ar   83  TYR83      -0.0009
     92  CE1       -2.5640    2.2990    6.6980 C.ar   83  TYR83       0.0417
     93  CE2       -1.5240    4.0210    5.3980 C.ar   83  TYR83       0.0417
     94  CZ        -1.5530    3.2200    6.5200 C.ar   83  TYR83       0.1957
     95  OH        -0.5780    3.3480    7.4810 O.3    83  TYR83      -0.2866
     96  N         -5.6500    5.8550    3.2050 N.am   84  ASN84      -0.1974
     97  CA        -5.1370    7.2130    3.2750 C.3    84  ASN84       0.1688
     98  C         -6.2050    8.2120    3.6610 C.2    84  ASN84       0.2292
     99  O         -7.3780    8.0350    3.3430 O.2    84  ASN84      -0.2864
    100  CB        -4.5200    7.6130    1.9410 C.3    84  ASN84       0.1181
    101  CG        -3.3570    6.7350    1.5570 C.2    84  ASN84       0.2629
    102  OD1       -2.2470    6.8980    2.0690 O.2    84  ASN84      -0.2716
    103  ND2       -3.6010    5.7940    0.6520 N.am   84  ASN84      -0.0877
    104  N         -2.1770   13.6100   -0.4280 N.3    89  ARG89      -0.1231
    105  CA        -1.7680   13.6820   -1.8300 C.3    89  ARG89       0.1694
    106  C         -2.0990   12.3930   -2.5800 C.2    89  ARG89       0.2591
    107  O         -2.5910   12.4290   -3.6980 O.2    89  ARG89      -0.2718
    108  CB        -0.2670   13.9650   -1.9230 C.3    89  ARG89       0.0321
    109  CG         0.2920   14.1970   -3.3270 C.3    89  ARG89       0.0489
    110  CD         1.7570   14.6670   -3.2260 C.3    89  ARG89       0.2205
    111  NE         2.4570   14.8050   -4.5060 N.pl3  89  ARG89      -0.0865
    112  CZ         3.1220   13.8210   -5.1080 C.cat  89  ARG89       0.5346
    113  NH1        3.1590   12.6110   -4.5710 N.pl3  89  ARG89       0.1354
    114  NH2        3.7390   14.0410   -6.2640 N.pl3  89  ARG89       0.1354
    115  N         -1.8020   11.2590   -1.9550 N.am   90  VAL90      -0.1980
    116  CA        -2.0800    9.9530   -2.5400 C.3    90  VAL90       0.1595
    117  C         -3.5850    9.7080   -2.7530 C.2    90  VAL90       0.2287
    118  O         -3.9790    9.1620   -3.7750 O.2    90  VAL90      -0.2864
    119  CB        -1.4840    8.8180   -1.6650 C.3    90  VAL90       0.0276
    120  CG1       -2.0040    7.4390   -2.1220 C.3    90  VAL90       0.0022
    121  CG2        0.0240    8.8450   -1.7340 C.3    90  VAL90       0.0022
@<TRIPOS>BOND
     1     8     6    1
     2     6     7    1
     3     6     5    1
     4     1     2    1
     5    78    77    1
     6     2     5    1
     7     2     3    1
     8    19    18    2
     9    77    76    1
    10    18    17    1
    11    20    17    1
    12    20    21    1
    13     3     4    2
    14     3     9   am
    15    27    28    1
    16    32    33    1
    17    32    31    1
    18    35    33   am
    19    17    16    1
    20    16    11   am
    21    21    23   ar
    22    21    22   ar
    23    76    75    1
    24    75    72    1
    25    23    25   ar
    26    28    31    1
    27    28    29    1
    28    15     9    1
    29    15    14    1
    30     9    10    1
    31    33    34    2
    32    22    24   ar
    33    25    26   ar
    34    11    10    1
    35    11    12    2
    36    71    72    1
    37    29    30    2
    38   114   112    1
    39    72    73    1
    40    10    13    1
    41    14    13    1
    42    24    26   ar
    43    73    74    2
    44   112   113    1
    45   112   111    2
    46   111   110    1
    47   118   117    2
    48   107   106    2
    49   109   110    1
    50   109   108    1
    51   117   116    1
    52    36    37    1
    53   106   115   am
    54   106   105    1
    55    83    80    1
    56   116   115    1
    57   116   119    1
    58   120   119    1
    59   108   105    1
    60   105   104    1
    61   121   119    1
    62    79    80    1
    63    42    40    1
    64    37    40    1
    65    37    38    1
    66    80    81    1
    67    81    82    2
    68    40    41    1
    69    38    39    2
    70    70    69    1
    71    49    48    1
    72   103   101   am
    73    50    48    1
    74    48    47    1
    75    69    68   ar
    76    69    67   ar
    77   101   100    1
    78   101   102    2
    79    68    66   ar
    80   100    97    1
    81    67    65   ar
    82    47    44    1
    83    66    64   ar
    84    84    85    1
    85    96    97    1
    86    96    86   am
    87    97    98    1
    88    99    98    2
    89    43    44    1
    90    65    64   ar
    91    44    45    1
    92    88    85    1
    93    88    89    1
    94    64    63    1
    95    58    56    1
    96    85    86    1
    97    86    87    2
    98    91    89   ar
    99    91    93   ar
   100    89    90   ar
   101    45    46    2
   102    56    55    1
   103    63    60    1
   104    93    94   ar
   105    62    61    2
   106    90    92   ar
   107    61    60    1
   108    57    55    1
   109    60    59    1
   110    55    52    1
   111    94    92   ar
   112    94    95    1
   113    51    52    1
   114    54    53    2
   115    52    53    1
