@<TRIPOS>MOLECULE
tmp/4ts9C00.pdb
 129 122 0 0 0
SMALL
GASTEIGER

@<TRIPOS>ATOM
      1  N        -17.1210   79.7010   85.2010 N.3    20  GLY20      -0.1225
      2  CA       -16.6000   78.6440   84.3500 C.3    20  GLY20       0.1811
      3  C        -17.0230   77.2640   84.8290 C.2    20  GLY20       0.2280
      4  O        -17.2940   76.3640   84.0280 O.2    20  GLY20      -0.2866
      5  N        -19.9660   78.0090   81.9750 N.3    62  HIS62      -0.1226
      6  CA       -19.5730   78.1500   80.5720 C.3    62  HIS62       0.1752
      7  C        -18.3860   77.2780   80.1500 C.2    62  HIS62       0.2597
      8  O        -18.0570   77.2200   78.9690 O.2    62  HIS62      -0.2718
      9  CB       -19.3750   79.6320   80.1680 C.3    62  HIS62       0.0759
     10  CG       -18.2890   80.3490   80.9130 C.ar   62  HIS62       0.0818
     11  ND1      -16.9990   79.8670   81.0120 N.ar   62  HIS62      -0.2268
     12  CD2      -18.2900   81.5430   81.5580 C.ar   62  HIS62       0.1154
     13  CE1      -16.2670   80.7120   81.7170 C.ar   62  HIS62       0.1986
     14  NE2      -17.0270   81.7390   82.0550 N.ar   62  HIS62      -0.2212
     15  N        -17.7640   76.5800   81.0950 N.am   63  GLY63      -0.1942
     16  CA       -16.6180   75.7410   80.7750 C.3    63  GLY63       0.2014
     17  C        -15.3640   76.5850   80.6110 C.2    63  GLY63       0.2638
     18  O        -15.4350   77.8090   80.6800 O.2    63  GLY63      -0.2714
     19  N        -14.2140   75.9470   80.4140 N.am   64  MET64      -0.1976
     20  CA       -12.9640   76.7070   80.3230 C.3    64  MET64       0.1605
     21  C        -12.5850   76.9870   78.8750 C.2    64  MET64       0.2287
     22  O        -12.5540   76.0790   78.0320 O.2    64  MET64      -0.2864
     23  CB       -11.8200   75.9780   81.0360 C.3    64  MET64       0.0413
     24  CG       -12.0750   75.8060   82.5250 C.3    64  MET64       0.0598
     25  SD       -10.6690   75.0790   83.3800 S.3    64  MET64      -0.1393
     26  CE       -10.6400   73.4610   82.6400 C.3    64  MET64       0.0692
     27  N        -20.1200   87.2320   82.8970 N.3    87  ARG87      -0.1245
     28  CA       -19.1630   86.2180   83.3500 C.3    87  ARG87       0.1563
     29  C        -18.6800   86.6030   84.7470 C.2    87  ARG87       0.2260
     30  O        -18.3450   87.7650   84.9950 O.2    87  ARG87      -0.2867
     31  CB       -17.9610   86.1140   82.3890 C.3    87  ARG87       0.0307
     32  CG       -16.7860   85.3130   82.9770 C.3    87  ARG87       0.0489
     33  CD       -15.6720   84.9840   81.9540 C.3    87  ARG87       0.2205
     34  NE       -14.3890   84.8660   82.6480 N.pl3  87  ARG87      -0.0865
     35  CZ       -14.0910   83.9080   83.5220 C.cat  87  ARG87       0.5346
     36  NH1      -14.9610   82.9420   83.7840 N.pl3  87  ARG87       0.1354
     37  NH2      -12.9100   83.9040   84.1280 N.pl3  87  ARG87       0.1354
     38  N        -15.8320   85.2350   87.2510 N.3    89  ALA89      -0.1231
     39  CA       -14.7580   84.2610   87.2680 C.3    89  ALA89       0.1694
     40  C        -13.5800   84.5930   88.1540 C.2    89  ALA89       0.2593
     41  O        -13.6390   85.5050   88.9800 O.2    89  ALA89      -0.2718
     42  CB       -14.2010   84.0270   85.8470 C.3    89  ALA89       0.0304
     43  N        -12.5050   83.8300   87.9810 N.am   90  SER90      -0.1938
     44  CA       -11.2500   84.1160   88.6560 C.3    90  SER90       0.2055
     45  C        -10.2290   84.5350   87.6020 C.2    90  SER90       0.2643
     46  O        -10.3880   84.2350   86.4200 O.2    90  SER90      -0.2714
     47  CB       -10.7530   82.8840   89.4090 C.3    90  SER90       0.2130
     48  OG       -10.4450   81.8440   88.5070 O.3    90  SER90      -0.2179
     49  N         -9.1910   85.2450   88.0220 N.am   91  CYS91      -0.1953
     50  CA        -8.1360   85.6390   87.0990 C.3    91  CYS91       0.1843
     51  C         -6.8140   85.6570   87.8360 C.2    91  CYS91       0.2626
     52  O         -6.7930   85.6740   89.0650 O.2    91  CYS91      -0.2714
     53  CB        -8.4300   87.0110   86.4750 C.3    91  CYS91       0.0997
     54  SG        -8.3880   88.4060   87.6290 S.3    91  CYS91      -0.0797
     55  N         -5.7070   85.6310   87.0990 N.am   92  GLY92      -0.1954
     56  CA        -4.4010   85.7850   87.7260 C.3    92  GLY92       0.1869
     57  C         -3.8840   87.1880   87.4840 C.2    92  GLY92       0.2309
     58  O         -4.1550   87.7680   86.4430 O.2    92  GLY92      -0.2863
     59  N         -6.4980   84.1490   77.6760 N.3   156  ALA156     -0.1245
     60  CA        -5.4890   83.2320   77.1370 C.3   156  ALA156      0.1562
     61  C         -6.1090   81.9510   76.5880 C.2   156  ALA156      0.2260
     62  O         -7.0660   81.4180   77.1580 O.2   156  ALA156     -0.2867
     63  CB        -4.4770   82.8850   78.2140 C.3   156  ALA156      0.0290
     64  N         -3.5900   78.0330   79.2990 N.3   159  PHE159     -0.1241
     65  CA        -3.3660   78.1770   80.7330 C.3   159  PHE159      0.1605
     66  C         -1.8950   77.8750   81.0500 C.2   159  PHE159      0.2264
     67  O         -1.2510   78.5560   81.8650 O.2   159  PHE159     -0.2867
     68  CB        -4.2850   77.1990   81.4580 C.3   159  PHE159      0.0534
     69  CG        -4.2360   77.3020   82.9600 C.ar  159  PHE159     -0.0203
     70  CD1       -3.3280   76.5460   83.6890 C.ar  159  PHE159     -0.0042
     71  CD2       -5.1150   78.1370   83.6430 C.ar  159  PHE159     -0.0042
     72  CE1       -3.2840   76.6260   85.0820 C.ar  159  PHE159     -0.0003
     73  CE2       -5.0810   78.2230   85.0320 C.ar  159  PHE159     -0.0003
     74  CZ        -4.1600   77.4660   85.7520 C.ar  159  PHE159     -0.0000
     75  N         -5.5200   87.9290   84.1100 N.3   178  VAL178     -0.1231
     76  CA        -5.4380   86.9430   83.0360 C.3   178  VAL178      0.1692
     77  C         -6.5000   85.8790   83.2880 C.2   178  VAL178      0.2592
     78  O         -6.5450   85.2640   84.3560 O.2   178  VAL178     -0.2718
     79  CB        -4.0550   86.2680   83.0030 C.3   178  VAL178      0.0266
     80  CG1       -3.9580   85.2940   81.8270 C.3   178  VAL178      0.0020
     81  CG2       -2.9710   87.3160   82.9180 C.3   178  VAL178      0.0020
     82  N         -7.3910   85.6950   82.3240 N.am  179  GLU179     -0.1966
     83  CA        -8.3630   84.6110   82.4060 C.3   179  GLU179      0.1733
     84  C         -8.4540   83.9400   81.0360 C.2   179  GLU179      0.2616
     85  O         -7.4690   83.9550   80.2930 O.2   179  GLU179     -0.2715
     86  CB        -9.7060   85.0990   82.9730 C.3   179  GLU179      0.0429
     87  CG       -10.1940   86.4210   82.4180 C.3   179  GLU179      0.1163
     88  CD       -10.8780   86.2530   81.0970 C.2   179  GLU179      0.3649
     89  OE1      -10.2560   86.5890   80.0710 O.co2 179  GLU179     -0.2457
     90  OE2      -12.0370   85.7780   81.0860 O.co2 179  GLU179     -0.2457
     91  N         -9.5790   83.3130   80.6950 N.am  180  MET180     -0.1963
     92  CA        -9.6080   82.5200   79.4640 C.3   180  MET180      0.1736
     93  C        -10.8700   82.6620   78.6100 C.2   180  MET180      0.2616
     94  O        -11.1190   81.8330   77.7450 O.2   180  MET180     -0.2715
     95  CB        -9.3760   81.0290   79.7890 C.3   180  MET180      0.0427
     96  CG        -7.9880   80.7210   80.3750 C.3   180  MET180      0.0599
     97  SD        -7.7340   78.9690   80.6980 S.3   180  MET180     -0.1393
     98  CE        -7.6550   78.3120   79.0300 C.3   180  MET180      0.0692
     99  N        -11.6800   83.6860   78.8490 N.am  181  GLU181     -0.1977
    100  CA       -13.0080   83.7050   78.2300 C.3   181  GLU181      0.1602
    101  C        -13.4960   85.0530   77.7210 C.2   181  GLU181      0.2287
    102  O        -14.1710   85.1070   76.6910 O.2   181  GLU181     -0.2864
    103  CB       -14.0550   83.1390   79.2040 C.3   181  GLU181      0.0415
    104  CG       -13.9350   81.6440   79.4770 C.3   181  GLU181      0.1163
    105  CD       -13.0060   81.3050   80.6500 C.2   181  GLU181      0.3649
    106  OE1      -12.5660   82.2160   81.3900 O.co2 181  GLU181     -0.2457
    107  OE2      -12.6950   80.1110   80.8310 O.co2 181  GLU181     -0.2457
    108  N         -7.2920   85.5130   91.9750 N.3   203  SER203     -0.1202
    109  CA        -7.0910   84.2980   92.7670 C.3   203  SER203      0.2020
    110  C         -5.6170   83.9530   92.9620 C.2   203  SER203      0.2618
    111  O         -5.2690   83.1790   93.8520 O.2   203  SER203     -0.2717
    112  CB        -7.8270   83.1060   92.1490 C.3   203  SER203      0.2103
    113  OG        -7.2440   82.7200   90.9180 O.3   203  SER203     -0.2182
    114  N         -4.7540   84.5190   92.1280 N.am  204  ASP204     -0.1973
    115  CA        -3.3190   84.2900   92.2570 C.3   204  ASP204      0.1709
    116  C         -2.5430   85.4150   91.5900 C.2   204  ASP204      0.2293
    117  O         -3.0860   86.1620   90.7710 O.2   204  ASP204     -0.2864
    118  CB        -2.9130   82.9350   91.6680 C.3   204  ASP204      0.1436
    119  CG        -2.9400   82.9260   90.1540 C.2   204  ASP204      0.3671
    120  OD1       -4.0300   82.7130   89.5790 O.co2 204  ASP204     -0.2456
    121  OD2       -1.8740   83.1410   89.5360 O.co2 204  ASP204     -0.2456
    122  N          0.7220   85.9520   89.3340 N.3   206  ILE206     -0.1245
    123  CA         1.7460   85.3250   88.5090 C.3   206  ILE206      0.1561
    124  C          3.0580   86.0280   88.8680 C.2   206  ILE206      0.2260
    125  O          3.5220   86.9450   88.1770 O.2   206  ILE206     -0.2867
    126  CB         1.3530   85.4020   87.0220 C.3   206  ILE206      0.0252
    127  CG1       -0.1710   85.2310   86.9110 C.3   206  ILE206      0.0019
    128  CG2        2.0780   84.3340   86.2060 C.3   206  ILE206      0.0019
    129  CD1       -0.7260   85.2290   85.5030 C.3   206  ILE206      0.0001
@<TRIPOS>BOND
     1    61    60    1
     2    61    62    2
     3   102   101    2
     4    60    59    1
     5    60    63    1
     6   101   100    1
     7    94    93    2
     8    22    21    2
     9   100    99    1
    10   100   103    1
    11    93    99   am
    12    93    92    1
    13    21    20    1
    14     8     7    2
    15    98    97    1
    16   103   104    1
    17    64    65    1
    18    92    95    1
    19    92    91    1
    20   104   105    1
    21    95    96    1
    22    89    88   ar
    23     7     6    1
    24     7    15   am
    25     9     6    1
    26     9    10    1
    27    85    84    2
    28    20    19    1
    29    20    23    1
    30    96    97    1
    31    19    17   am
    32     6     5    1
    33    17    18    2
    34    17    16    1
    35   105   107   ar
    36   105   106   ar
    37    91    84   am
    38    65    66    1
    39    65    68    1
    40    16    15    1
    41    10    11   ar
    42    10    12   ar
    43    11    13   ar
    44    84    83    1
    45    23    24    1
    46    66    67    2
    47    90    88   ar
    48    88    87    1
    49    68    69    1
    50    12    14   ar
    51    13    14   ar
    52    80    79    1
    53    33    34    1
    54    33    32    1
    55    82    83    1
    56    82    77   am
    57    31    32    1
    58    31    28    1
    59    83    86    1
    60    87    86    1
    61    24    25    1
    62    26    25    1
    63    34    35    2
    64    27    28    1
    65    81    79    1
    66    69    71   ar
    67    69    70   ar
    68    79    76    1
    69    76    77    1
    70    76    75    1
    71    77    78    2
    72    28    29    1
    73    35    36    1
    74    35    37    1
    75    71    73   ar
    76    70    72   ar
    77     4     3    2
    78     2     3    1
    79     2     1    1
    80    29    30    2
    81    73    74   ar
    82    72    74   ar
    83   129   127    1
    84    42    39    1
    85   128   126    1
    86    46    45    2
    87    58    57    2
    88    53    50    1
    89    53    54    1
    90   127   126    1
    91   126   123    1
    92    55    56    1
    93    55    51   am
    94    50    51    1
    95    50    49    1
    96    38    39    1
    97    39    40    1
    98    57    56    1
    99    45    49   am
   100    45    44    1
   101    51    52    2
   102    43    40   am
   103    43    44    1
   104    40    41    2
   105   125   124    2
   106    48    47    1
   107   123   124    1
   108   123   122    1
   109    44    47    1
   110   121   119   ar
   111   120   119   ar
   112   119   118    1
   113   117   116    2
   114   113   112    1
   115   116   115    1
   116   118   115    1
   117   108   109    1
   118   114   115    1
   119   114   110   am
   120   112   109    1
   121   109   110    1
   122   110   111    2
