@<TRIPOS>MOLECULE
tmp/4tsmB00.pdb
 244 237 0 0 0
SMALL
GASTEIGER

@<TRIPOS>ATOM
      1  N        170.0730  -24.4150  233.7700 N.3    13  ASN13      -0.1240
      2  CA       168.7910  -23.9960  233.2280 C.3    13  ASN13       0.1653
      3  C        168.2190  -24.9890  232.2100 C.2    13  ASN13       0.2266
      4  O        168.9530  -25.6660  231.4950 O.2    13  ASN13      -0.2867
      5  CB       168.9120  -22.6100  232.5970 C.3    13  ASN13       0.1155
      6  CG       167.5660  -21.9510  232.3940 C.2    13  ASN13       0.2627
      7  OD1      166.7610  -21.8660  233.3210 O.2    13  ASN13      -0.2716
      8  ND2      167.3080  -21.4960  231.1760 N.am   13  ASN13      -0.0877
      9  N        166.9840  -24.9850  229.3370 N.3    15  ASP15      -0.1225
     10  CA       167.2210  -24.8840  227.8920 C.3    15  ASP15       0.1805
     11  C        168.6210  -25.3530  227.4950 C.2    15  ASP15       0.2597
     12  O        168.9750  -25.3570  226.3140 O.2    15  ASP15      -0.2718
     13  CB       166.9920  -23.4490  227.4010 C.3    15  ASP15       0.1424
     14  CG       167.8620  -22.4020  228.1260 C.2    15  ASP15       0.3668
     15  OD1      168.7330  -22.7530  228.9600 O.co2  15  ASP15      -0.2456
     16  OD2      167.6790  -21.2030  227.8370 O.co2  15  ASP15      -0.2456
     17  N        169.4080  -25.7570  228.4840 N.am   16  LYS16      -0.1979
     18  CA       170.7570  -26.2380  228.2500 C.3    16  LYS16       0.1596
     19  C        170.7920  -27.7720  228.2860 C.2    16  LYS16       0.2287
     20  O        169.7850  -28.4180  228.5870 O.2    16  LYS16      -0.2864
     21  CB       171.7140  -25.6210  229.2880 C.3    16  LYS16       0.0298
     22  CG       171.6560  -24.0750  229.3440 C.3    16  LYS16       0.0038
     23  CD       172.5150  -23.4440  228.2500 C.3    16  LYS16       0.0206
     24  CE       172.1770  -21.9890  227.9270 C.3    16  LYS16       0.1093
     25  NZ       171.3660  -21.2760  228.9670 N.3    16  LYS16      -0.1314
     26  N        163.2790  -20.9100  237.5010 N.3    43  LYS43      -0.1245
     27  CA       163.7930  -19.7100  238.1620 C.3    43  LYS43       0.1561
     28  C        164.9470  -20.0010  239.1220 C.2    43  LYS43       0.2260
     29  O        165.0160  -19.4200  240.2040 O.2    43  LYS43      -0.2867
     30  CB       162.6620  -19.0000  238.9210 C.3    43  LYS43       0.0271
     31  CG       161.4050  -18.7590  238.0960 C.3    43  LYS43       0.0035
     32  CD       160.3170  -18.0940  238.9300 C.3    43  LYS43       0.0206
     33  CE       159.1780  -17.6120  238.0470 C.3    43  LYS43       0.1093
     34  NZ       158.5490  -16.3950  238.6320 N.3    43  LYS43      -0.1314
     35  N        167.9460  -19.1270  239.0750 N.3    45  GLU45      -0.1231
     36  CA       168.8110  -17.9880  239.3400 C.3    45  GLU45       0.1699
     37  C        168.2350  -17.0810  240.4480 C.2    45  GLU45       0.2592
     38  O        168.9890  -16.3860  241.1340 O.2    45  GLU45      -0.2718
     39  CB       169.0590  -17.1880  238.0570 C.3    45  GLU45       0.0402
     40  CG       168.0000  -16.1630  237.7050 C.3    45  GLU45       0.1161
     41  CD       166.7020  -16.7740  237.2150 C.2    45  GLU45       0.3649
     42  OE1      166.6210  -18.0160  237.0770 O.co2  45  GLU45      -0.2457
     43  OE2      165.7550  -16.0010  236.9640 O.co2  45  GLU45      -0.2457
     44  N        166.9130  -17.1000  240.6280 N.am   46  GLU46      -0.1979
     45  CA       166.2800  -16.3710  241.7370 C.3    46  GLU46       0.1602
     46  C        166.2220  -17.2100  242.9980 C.2    46  GLU46       0.2287
     47  O        166.2900  -16.6810  244.1100 O.2    46  GLU46      -0.2864
     48  CB       164.8570  -15.9330  241.3770 C.3    46  GLU46       0.0415
     49  CG       164.7660  -14.9130  240.2630 C.3    46  GLU46       0.1163
     50  CD       163.3300  -14.4780  240.0160 C.2    46  GLU46       0.3649
     51  OE1      162.4050  -15.2310  240.3780 O.co2  46  GLU46      -0.2457
     52  OE2      163.1220  -13.3760  239.4800 O.co2  46  GLU46      -0.2457
     53  N        174.8440  -20.6310  235.2680 N.3    63  TRP63      -0.1227
     54  CA       174.0570  -19.5470  234.6810 C.3    63  TRP63       0.1737
     55  C        175.0110  -18.6990  233.8550 C.2    63  TRP63       0.2595
     56  O        176.2290  -18.8250  234.0000 O.2    63  TRP63      -0.2718
     57  CB       173.3760  -18.6970  235.7600 C.3    63  TRP63       0.0564
     58  CG       172.2990  -17.8170  235.2430 C.ar   63  TRP63       0.0003
     59  CD1      172.3940  -16.4930  234.9180 C.ar   63  TRP63       0.0946
     60  CD2      170.9460  -18.2010  234.9750 C.ar   63  TRP63       0.0152
     61  NE1      171.1740  -16.0270  234.4660 N.ar   63  TRP63      -0.2442
     62  CE2      170.2730  -17.0580  234.4990 C.ar   63  TRP63       0.0810
     63  CE3      170.2370  -19.3980  235.1060 C.ar   63  TRP63       0.0012
     64  CZ2      168.9240  -17.0840  234.1380 C.ar   63  TRP63       0.0191
     65  CZ3      168.8930  -19.4170  234.7560 C.ar   63  TRP63       0.0001
     66  CH2      168.2540  -18.2650  234.2780 C.ar   63  TRP63       0.0015
     67  N        174.4900  -17.8390  232.9850 N.am   64  ALA64      -0.1980
     68  CA       175.3610  -16.8370  232.3660 C.3    64  ALA64       0.1597
     69  C        176.0250  -16.0360  233.4880 C.2    64  ALA64       0.2287
     70  O        175.4450  -15.8740  234.5640 O.2    64  ALA64      -0.2864
     71  CB       174.5850  -15.9350  231.4450 C.3    64  ALA64       0.0319
     72  N        176.5170  -13.0310  234.2030 N.3    66  ASP66      -0.1225
     73  CA       175.9980  -11.7420  234.6410 C.3    66  ASP66       0.1805
     74  C        175.4020  -11.8220  236.0470 C.2    66  ASP66       0.2597
     75  O        175.4320  -10.8380  236.7900 O.2    66  ASP66      -0.2718
     76  CB       174.9620  -11.1860  233.6420 C.3    66  ASP66       0.1424
     77  CG       173.7000  -12.0450  233.5170 C.2    66  ASP66       0.3668
     78  OD1      173.7790  -13.2340  233.1220 O.co2  66  ASP66      -0.2456
     79  OD2      172.6120  -11.4940  233.7630 O.co2  66  ASP66      -0.2456
     80  N        174.8850  -12.9900  236.4170 N.am   67  ARG67      -0.1979
     81  CA       174.3050  -13.1730  237.7530 C.3    67  ARG67       0.1597
     82  C        175.3150  -13.2970  238.9180 C.2    67  ARG67       0.2287
     83  O        174.9480  -13.1580  240.1040 O.2    67  ARG67      -0.2864
     84  CB       173.4080  -14.4100  237.7370 C.3    67  ARG67       0.0334
     85  CG       171.9620  -14.0640  237.4650 C.3    67  ARG67       0.0492
     86  CD       171.3720  -13.4120  238.7280 C.3    67  ARG67       0.2205
     87  NE       169.9260  -13.2600  238.6390 N.pl3  67  ARG67      -0.0865
     88  CZ       169.1560  -12.8610  239.6470 C.cat  67  ARG67       0.5346
     89  NH1      169.7020  -12.5740  240.8220 N.pl3  67  ARG67       0.1354
     90  NH2      167.8440  -12.7490  239.4710 N.pl3  67  ARG67       0.1354
     91  N        178.0800  -17.3720  224.7040 N.3   112  GLU112     -0.1245
     92  CA       176.7520  -17.3130  224.0890 C.3   112  GLU112      0.1567
     93  C        176.4930  -15.9530  223.4660 C.2   112  GLU112      0.2260
     94  O        176.6600  -14.9330  224.1270 O.2   112  GLU112     -0.2867
     95  CB       175.6530  -17.5960  225.1250 C.3   112  GLU112      0.0388
     96  CG       175.6300  -18.9970  225.6940 C.3   112  GLU112      0.1160
     97  CD       174.7800  -19.0910  226.9550 C.2   112  GLU112      0.3649
     98  OE1      174.0660  -18.1180  227.2850 O.co2 112  GLU112     -0.2457
     99  OE2      174.8160  -20.1450  227.5990 O.co2 112  GLU112     -0.2457
    100  N        161.3830  -14.1250  220.9290 N.3   151  ASN151     -0.1240
    101  CA       160.8640  -13.8850  222.2770 C.3   151  ASN151      0.1653
    102  C        160.8720  -12.4050  222.6780 C.2   151  ASN151      0.2266
    103  O        161.9090  -11.8500  223.0480 O.2   151  ASN151     -0.2867
    104  CB       161.6600  -14.7000  223.2980 C.3   151  ASN151      0.1155
    105  CG       161.0380  -14.6620  224.6850 C.2   151  ASN151      0.2627
    106  OD1      159.9350  -14.1480  224.8610 O.2   151  ASN151     -0.2716
    107  ND2      161.7390  -15.2130  225.6700 N.am  151  ASN151     -0.0877
    108  N        161.5400  -11.4530  226.9850 N.3   154  GLU154     -0.1231
    109  CA       162.7980  -11.3600  227.7300 C.3   154  GLU154      0.1684
    110  C        163.6930  -10.2960  227.1080 C.2   154  GLU154      0.2434
    111  O        163.9780  -10.3440  225.9120 O.2   154  GLU154     -0.2733
    112  CB       163.5080  -12.7130  227.7720 C.3   154  GLU154      0.0402
    113  CG       162.8770  -13.7230  228.7210 C.3   154  GLU154      0.1161
    114  CD       163.0080  -13.3360  230.1920 C.2   154  GLU154      0.3649
    115  OE1      163.9960  -12.6660  230.5690 O.co2 154  GLU154     -0.2457
    116  OE2      162.1150  -13.7030  230.9790 O.co2 154  GLU154     -0.2457
    117  N        164.1310   -9.3210  227.9200 N.am  155  PRO155     -0.2718
    118  CA       164.9240   -8.1860  227.4230 C.3   155  PRO155      0.1535
    119  C        166.2470   -8.6210  226.7940 C.2   155  PRO155      0.2599
    120  O        166.8390   -7.8670  226.0190 O.2   155  PRO155     -0.2715
    121  CB       165.1510   -7.3390  228.6820 C.3   155  PRO155      0.0310
    122  CG       165.0390   -8.3300  229.8310 C.3   155  PRO155      0.0237
    123  CD       163.9560   -9.2770  229.3830 C.3   155  PRO155      0.0939
    124  N        166.6960   -9.8300  227.1060 N.am  156  TYR156     -0.1960
    125  CA       167.8490  -10.4290  226.4280 C.3   156  TYR156      0.1771
    126  C        167.7010  -10.3950  224.9030 C.2   156  TYR156      0.2619
    127  O        168.6680  -10.1330  224.1740 O.2   156  TYR156     -0.2715
    128  CB       168.0240  -11.8690  226.8970 C.3   156  TYR156      0.0574
    129  CG       169.2130  -12.6300  226.3290 C.ar  156  TYR156     -0.0198
    130  CD1      170.5130  -12.3530  226.7500 C.ar  156  TYR156     -0.0009
    131  CD2      169.0250  -13.6760  225.4280 C.ar  156  TYR156     -0.0009
    132  CE1      171.6040  -13.0760  226.2500 C.ar  156  TYR156      0.0417
    133  CE2      170.1030  -14.4070  224.9350 C.ar  156  TYR156      0.0417
    134  CZ       171.3900  -14.0950  225.3450 C.ar  156  TYR156      0.1957
    135  OH       172.4590  -14.8170  224.8560 O.3   156  TYR156     -0.2866
    136  N        166.4890  -10.6710  224.4180 N.am  157  PHE157     -0.1974
    137  CA       166.2780  -10.8050  222.9770 C.3   157  PHE157      0.1639
    138  C        166.0680   -9.4620  222.2850 C.2   157  PHE157      0.2290
    139  O        166.4120   -9.3150  221.1220 O.2   157  PHE157     -0.2864
    140  CB       165.0820  -11.7290  222.6920 C.3   157  PHE157      0.0560
    141  CG       165.2930  -13.1400  223.1490 C.ar  157  PHE157     -0.0200
    142  CD1      165.0170  -13.5030  224.4620 C.ar  157  PHE157     -0.0042
    143  CD2      165.7730  -14.1050  222.2770 C.ar  157  PHE157     -0.0042
    144  CE1      165.2190  -14.7990  224.9060 C.ar  157  PHE157     -0.0003
    145  CE2      165.9730  -15.4160  222.7160 C.ar  157  PHE157     -0.0003
    146  CZ       165.6930  -15.7550  224.0400 C.ar  157  PHE157     -0.0000
    147  N        159.1220  -17.2880  223.9120 N.3   211  TYR211     -0.1241
    148  CA       160.1030  -18.2650  223.4480 C.3   211  TYR211      0.1605
    149  C        159.4480  -19.4280  222.6920 C.2   211  TYR211      0.2264
    150  O        159.8190  -19.7150  221.5420 O.2   211  TYR211     -0.2867
    151  CB       160.9230  -18.7990  224.6180 C.3   211  TYR211      0.0534
    152  CG       162.1410  -19.5620  224.1770 C.ar  211  TYR211     -0.0201
    153  CD1      162.0650  -20.9190  223.8840 C.ar  211  TYR211     -0.0009
    154  CD2      163.3700  -18.9230  224.0410 C.ar  211  TYR211     -0.0009
    155  CE1      163.1770  -21.6240  223.4580 C.ar  211  TYR211      0.0417
    156  CE2      164.4920  -19.6200  223.6170 C.ar  211  TYR211      0.0417
    157  CZ       164.3900  -20.9670  223.3310 C.ar  211  TYR211      0.1957
    158  OH       165.4930  -21.6700  222.9070 O.3   211  TYR211     -0.2866
    159  N        171.8310  -22.9220  222.0150 N.3   231  TRP231     -0.1241
    160  CA       171.0630  -23.9890  222.6420 C.3   231  TRP231      0.1605
    161  C        169.8490  -24.3630  221.7900 C.2   231  TRP231      0.2264
    162  O        169.3510  -25.4790  221.8760 O.2   231  TRP231     -0.2867
    163  CB       170.6060  -23.5740  224.0550 C.3   231  TRP231      0.0550
    164  CG       169.8950  -22.2780  224.0110 C.ar  231  TRP231      0.0003
    165  CD1      168.5830  -22.0810  223.7340 C.ar  231  TRP231      0.0946
    166  CD2      170.4770  -20.9730  224.1680 C.ar  231  TRP231      0.0152
    167  NE1      168.2980  -20.7420  223.7300 N.ar  231  TRP231     -0.2442
    168  CE2      169.4400  -20.0400  224.0020 C.ar  231  TRP231      0.0810
    169  CE3      171.7700  -20.5100  224.4550 C.ar  231  TRP231      0.0012
    170  CZ2      169.6530  -18.6580  224.1110 C.ar  231  TRP231      0.0191
    171  CZ3      171.9760  -19.1370  224.5720 C.ar  231  TRP231      0.0001
    172  CH2      170.9240  -18.2320  224.3920 C.ar  231  TRP231      0.0015
    173  N        176.7330  -13.6210  226.7670 N.3   261  GLY261     -0.1225
    174  CA       176.7440  -14.4120  227.9800 C.3   261  GLY261      0.1811
    175  C        177.8280  -15.4640  227.9680 C.2   261  GLY261      0.2280
    176  O        178.1050  -16.0710  226.9340 O.2   261  GLY261     -0.2866
    177  N        178.4140   -9.0390  228.9120 N.3   331  MET331     -0.1245
    178  CA       177.5790   -8.5850  230.0150 C.3   331  MET331      0.1570
    179  C        178.4780   -8.2060  231.1740 C.2   331  MET331      0.2261
    180  O        179.4550   -8.9060  231.4550 O.2   331  MET331     -0.2867
    181  CB       176.6020   -9.6650  230.4620 C.3   331  MET331      0.0387
    182  CG       175.4270   -9.8760  229.5480 C.3   331  MET331      0.0595
    183  SD       174.2860  -11.1170  230.1780 S.3   331  MET331     -0.1393
    184  CE       175.3020  -12.5360  230.2340 C.3   331  MET331      0.0692
    185  N        170.9940   -7.4930  237.8120 N.3   338  SER338     -0.1217
    186  CA       169.6250   -7.9790  237.8700 C.3   338  SER338      0.1889
    187  C        168.6600   -6.8000  237.9260 C.2   338  SER338      0.2288
    188  O        167.6200   -6.8520  237.2960 O.2   338  SER338     -0.2866
    189  CB       169.4170   -8.9230  239.0520 C.3   338  SER338      0.2089
    190  OG       169.7910   -8.2960  240.2520 O.3   338  SER338     -0.2183
    191  N        168.2780   -5.6440  234.4080 N.3   341  TRP341     -0.1227
    192  CA       167.4350   -6.5400  233.6090 C.3   341  TRP341      0.1737
    193  C        165.9590   -6.3850  233.9620 C.2   341  TRP341      0.2595
    194  O        165.0960   -6.3310  233.0840 O.2   341  TRP341     -0.2718
    195  CB       167.8460   -8.0020  233.7890 C.3   341  TRP341      0.0564
    196  CG       169.0690   -8.4490  233.0330 C.ar  341  TRP341      0.0003
    197  CD1      170.1880   -9.0270  233.5580 C.ar  341  TRP341      0.0946
    198  CD2      169.2790   -8.3810  231.6080 C.ar  341  TRP341      0.0152
    199  NE1      171.0830   -9.3290  232.5520 N.ar  341  TRP341     -0.2442
    200  CE2      170.5500   -8.9370  231.3490 C.ar  341  TRP341      0.0810
    201  CE3      168.5210   -7.8960  230.5350 C.ar  341  TRP341      0.0012
    202  CZ2      171.0750   -9.0250  230.0600 C.ar  341  TRP341      0.0191
    203  CZ3      169.0490   -7.9930  229.2430 C.ar  341  TRP341      0.0001
    204  CH2      170.3080   -8.5540  229.0240 C.ar  341  TRP341      0.0015
    205  N        165.6660   -6.3190  235.2530 N.am  342  TYR342     -0.1976
    206  CA       164.2760   -6.1990  235.6900 C.3   342  TYR342      0.1639
    207  C        163.6530   -4.8960  235.1760 C.2   342  TYR342      0.2290
    208  O        162.5060   -4.8800  234.7190 O.2   342  TYR342     -0.2864
    209  CB       164.1800   -6.2690  237.2180 C.3   342  TYR342      0.0560
    210  CG       164.3680   -7.6510  237.8350 C.ar  342  TYR342     -0.0198
    211  CD1      163.5350   -8.7180  237.5000 C.ar  342  TYR342     -0.0009
    212  CD2      165.3420   -7.8680  238.8040 C.ar  342  TYR342     -0.0009
    213  CE1      163.6990   -9.9700  238.0930 C.ar  342  TYR342      0.0417
    214  CE2      165.5120   -9.1010  239.3930 C.ar  342  TYR342      0.0417
    215  CZ       164.6930  -10.1500  239.0430 C.ar  342  TYR342      0.1957
    216  OH       164.8890  -11.3740  239.6520 O.3   342  TYR342     -0.2866
    217  N        163.1060   -5.1600  231.3550 N.3   345  ARG345     -0.1245
    218  CA       162.0390   -6.1110  231.0520 C.3   345  ARG345      0.1563
    219  C        160.6730   -5.4330  231.1410 C.2   345  ARG345      0.2260
    220  O        159.8280   -5.5680  230.2540 O.2   345  ARG345     -0.2867
    221  CB       162.0840   -7.3090  231.9950 C.3   345  ARG345      0.0307
    222  CG       160.9570   -8.2900  231.7410 C.3   345  ARG345      0.0489
    223  CD       160.8260   -9.3050  232.8680 C.3   345  ARG345      0.2205
    224  NE       159.7070  -10.2140  232.6530 N.pl3 345  ARG345     -0.0865
    225  CZ       158.4650   -9.9850  233.0690 C.cat 345  ARG345      0.5346
    226  NH1      158.1720   -8.8770  233.7420 N.pl3 345  ARG345      0.1354
    227  NH2      157.5150  -10.8760  232.8210 N.pl3 345  ARG345      0.1354
    228  N        159.9460   -5.7070  242.9270 N.3   457  GLU457     -0.1245
    229  CA       159.8160   -7.0760  243.4020 C.3   457  GLU457      0.1567
    230  C        160.9350   -7.4440  244.3660 C.2   457  GLU457      0.2260
    231  O        160.7330   -8.2370  245.2910 O.2   457  GLU457     -0.2867
    232  CB       159.8010   -8.0500  242.2280 C.3   457  GLU457      0.0388
    233  CG       158.7780   -7.7130  241.1670 C.3   457  GLU457      0.1160
    234  CD       158.5480   -8.8690  240.2080 C.2   457  GLU457      0.3649
    235  OE1      159.2460   -9.9000  240.3440 O.co2 457  GLU457     -0.2457
    236  OE2      157.6790   -8.7430  239.3190 O.co2 457  GLU457     -0.2457
    237  N        156.9700  -11.5110  244.4590 N.3   488  ASN488     -0.1240
    238  CA       156.9490  -11.1290  243.0510 C.3   488  ASN488      0.1653
    239  C        156.0000   -9.9710  242.7890 C.2   488  ASN488      0.2266
    240  O        155.5460   -9.7700  241.6660 O.2   488  ASN488     -0.2867
    241  CB       156.5450  -12.3140  242.1720 C.3   488  ASN488      0.1155
    242  CG       157.5310  -13.4630  242.2470 C.2   488  ASN488      0.2627
    243  OD1      158.6840  -13.2900  242.6510 O.2   488  ASN488     -0.2716
    244  ND2      157.0860  -14.6440  241.8400 N.am  488  ASN488     -0.0877
@<TRIPOS>BOND
     1   100   101    1
     2   139   138    2
     3   150   149    2
     4   161   162    2
     5   161   160    1
     6   159   160    1
     7   143   145   ar
     8   143   141   ar
     9   101   102    1
    10   101   104    1
    11   138   137    1
    12   160   163    1
    13   102   103    2
    14   149   148    1
    15   140   137    1
    16   140   141    1
    17   145   146   ar
    18   158   157    1
    19   137   136    1
    20   141   142   ar
    21   104   105    1
    22   157   155   ar
    23   157   156   ar
    24   148   147    1
    25   148   151    1
    26   155   153   ar
    27    93    92    1
    28    93    94    2
    29   156   154   ar
    30   167   165   ar
    31   167   168   ar
    32   165   164   ar
    33   153   152   ar
    34   168   170   ar
    35   168   166   ar
    36   164   163    1
    37   164   166   ar
    38   146   144   ar
    39   154   152   ar
    40    92    91    1
    41    92    95    1
    42   170   172   ar
    43   166   169   ar
    44   127   126    2
    45   152   151    1
    46   172   171   ar
    47   136   126   am
    48   169   171   ar
    49   142   144   ar
    50   105   106    2
    51   105   107   am
    52   135   134    1
    53   126   125    1
    54   133   134   ar
    55   133   131   ar
    56    95    96    1
    57   134   132   ar
    58   131   129   ar
    59    96    97    1
    60   111   110    2
    61   120   119    2
    62   132   130   ar
    63    12    11    2
    64   129   130   ar
    65   129   128    1
    66   125   128    1
    67   125   124    1
    68   173   174    1
    69   119   124   am
    70   119   118    1
    71   176   175    2
    72    97    98   ar
    73    97    99   ar
    74   108   109    1
    75   110   109    1
    76   110   117   am
    77    13    10    1
    78    13    14    1
    79   118   117    1
    80   118   121    1
    81    11    10    1
    82    11    17   am
    83   109   112    1
    84   112   113    1
    85    16    14   ar
    86    10     9    1
    87   117   123    1
    88    24    23    1
    89    24    25    1
    90   175   174    1
    91    14    15   ar
    92    18    19    1
    93    18    17    1
    94    18    21    1
    95    23    22    1
    96    19    20    2
    97   121   122    1
    98   113   114    1
    99   177   178    1
   100   204   203   ar
   101   204   202   ar
   102   203   201   ar
   103    21    22    1
   104   123   122    1
   105   182   183    1
   106   182   181    1
   107   178   181    1
   108   178   179    1
   109   202   200   ar
   110   183   184    1
   111   114   115   ar
   112   114   116   ar
   113   220   219    2
   114   201   198   ar
   115   218   219    1
   116   218   217    1
   117   218   221    1
   118   179   180    2
   119     8     6   am
   120   200   198   ar
   121   200   199   ar
   122    71    68    1
   123     4     3    2
   124   198   196   ar
   125   222   221    1
   126   222   223    1
   127     3     2    1
   128    68    67    1
   129    68    69    1
   130     6     5    1
   131     6     7    2
   132   199   197   ar
   133     5     2    1
   134   224   223    1
   135   224   225    2
   136   227   225    1
   137    67    55   am
   138   196   197   ar
   139   196   195    1
   140   225   226    1
   141   194   193    2
   142    78    77   ar
   143     2     1    1
   144    69    70    2
   145    77    76    1
   146    77    79   ar
   147   192   195    1
   148   192   193    1
   149   192   191    1
   150    76    73    1
   151    55    56    2
   152    55    54    1
   153   193   205   am
   154    64    66   ar
   155    64    62   ar
   156    72    73    1
   157    66    65   ar
   158    61    62   ar
   159    61    59   ar
   160    62    60   ar
   161    73    74    1
   162    54    53    1
   163    54    57    1
   164   208   207    2
   165    65    63   ar
   166    59    58   ar
   167    60    63   ar
   168    60    58   ar
   169   207   206    1
   170    58    57    1
   171   205   206    1
   172   206   209    1
   173    74    80   am
   174    74    75    2
   175    80    81    1
   176    43    41   ar
   177    42    41   ar
   178    41    40    1
   179   209   210    1
   180   188   187    2
   181    85    84    1
   182    85    86    1
   183   211   210   ar
   184   211   213   ar
   185    26    27    1
   186    40    39    1
   187    84    81    1
   188    81    82    1
   189   185   186    1
   190   210   212   ar
   191   186   187    1
   192   186   189    1
   193    33    34    1
   194    33    32    1
   195    39    36    1
   196   213   215   ar
   197    31    30    1
   198    31    32    1
   199    27    30    1
   200    27    28    1
   201    87    86    1
   202    87    88    2
   203   212   214   ar
   204    82    83    2
   205   215   214   ar
   206   215   216    1
   207   189   190    1
   208    35    36    1
   209    28    29    2
   210   236   234   ar
   211    36    37    1
   212    90    88    1
   213    52    50   ar
   214    88    89    1
   215    50    49    1
   216    50    51   ar
   217   234   235   ar
   218   234   233    1
   219    49    48    1
   220    37    44   am
   221    37    38    2
   222    44    45    1
   223   233   232    1
   224    48    45    1
   225   240   239    2
   226    45    46    1
   227   244   242   am
   228   241   242    1
   229   241   238    1
   230   232   229    1
   231   242   243    2
   232   239   238    1
   233   228   229    1
   234    46    47    2
   235   238   237    1
   236   229   230    1
   237   230   231    2
