@<TRIPOS>MOLECULE
tmp/4tsqE00.pdb
 90 85 0 0 0
SMALL
GASTEIGER

@<TRIPOS>ATOM
      1  N         -7.8720   12.8960  -10.4230 N.3     6  ALA6       -0.1231
      2  CA        -9.2750   13.0600  -10.0160 C.3     6  ALA6        0.1694
      3  C        -10.2100   12.4880  -11.0920 C.2     6  ALA6        0.2592
      4  O        -10.2680   13.0090  -12.1880 O.2     6  ALA6       -0.2718
      5  CB        -9.5050   14.5210   -9.8600 C.3     6  ALA6        0.0304
      6  N        -10.9060   11.4400  -10.7460 N.am    7  VAL7       -0.1966
      7  CA       -11.8520   10.7860  -11.5900 C.3     7  VAL7        0.1727
      8  C        -13.2150   10.7590  -10.8660 C.2     7  VAL7        0.2616
      9  O        -13.3190   10.4800   -9.6990 O.2     7  VAL7       -0.2715
     10  CB       -11.3540    9.3430  -11.8550 C.3     7  VAL7        0.0290
     11  CG1      -12.4160    8.5630  -12.5790 C.3     7  VAL7        0.0023
     12  CG2      -10.0710    9.4400  -12.6600 C.3     7  VAL7        0.0023
     13  N        -14.2660   11.0190  -11.6130 N.am    8  ILE8       -0.1977
     14  CA       -15.6290   10.9990  -11.0780 C.3     8  ILE8        0.1596
     15  C        -16.5210   10.1090  -11.9210 C.2     8  ILE8        0.2287
     16  O        -16.1390    9.7040  -12.9940 O.2     8  ILE8       -0.2864
     17  CB       -16.2170   12.4080  -11.0670 C.3     8  ILE8        0.0276
     18  CG1      -16.2700   13.0780  -12.4330 C.3     8  ILE8        0.0022
     19  CG2      -15.4090   13.2530  -10.1060 C.3     8  ILE8        0.0022
     20  CD1      -17.0490   14.3740  -12.4870 C.3     8  ILE8        0.0001
     21  N        -20.9430   22.4420  -13.2020 N.3    16  ASP16      -0.1225
     22  CA       -20.7510   22.7780  -11.7990 C.3    16  ASP16       0.1805
     23  C        -19.3370   22.3440  -11.3360 C.2    16  ASP16       0.2597
     24  O        -18.6150   23.1320  -10.7020 O.2    16  ASP16      -0.2718
     25  CB       -21.8250   22.2170  -10.8870 C.3    16  ASP16       0.1424
     26  CG       -21.6380   22.7000   -9.4520 C.2    16  ASP16       0.3668
     27  OD1      -21.4580   21.8310   -8.6100 O.co2  16  ASP16      -0.2456
     28  OD2      -21.6040   23.9340   -9.2770 O.co2  16  ASP16      -0.2456
     29  N        -18.9910   21.1310  -11.6680 N.am   17  VAL17      -0.1980
     30  CA       -17.6960   20.5920  -11.1960 C.3    17  VAL17       0.1595
     31  C        -16.5930   21.3600  -11.8280 C.2    17  VAL17       0.2287
     32  O        -15.5610   21.6530  -11.1720 O.2    17  VAL17      -0.2864
     33  CB       -17.5710   19.0680  -11.3180 C.3    17  VAL17       0.0276
     34  CG1      -17.4460   18.5660  -12.7290 C.3    17  VAL17       0.0022
     35  CG2      -16.3190   18.5840  -10.5860 C.3    17  VAL17       0.0022
     36  N        -16.0330   24.7120  -10.3440 N.3    20  THR20      -0.1203
     37  CA       -15.3870   24.5550   -9.0260 C.3    20  THR20       0.1994
     38  C        -13.8710   24.3850   -9.2160 C.2    20  THR20       0.2617
     39  O        -13.0730   25.0420   -8.5200 O.2    20  THR20      -0.2717
     40  CB       -15.9840   23.3700   -8.2460 C.3    20  THR20       0.1784
     41  OG1      -17.4230   23.6430   -8.0560 O.3    20  THR20      -0.2211
     42  CG2      -15.3790   23.3130   -6.8640 C.3    20  THR20       0.0376
     43  N        -13.5250   23.5280  -10.1450 N.am   21  VAL21      -0.1979
     44  CA       -12.0750   23.2950  -10.5270 C.3    21  VAL21       0.1595
     45  C        -11.4330   24.5650  -10.9920 C.2    21  VAL21       0.2287
     46  O        -10.3340   24.9750  -10.5340 O.2    21  VAL21      -0.2864
     47  CB       -11.9470   22.1670  -11.5570 C.3    21  VAL21       0.0276
     48  CG1      -10.5320   22.1130  -12.1850 C.3    21  VAL21       0.0022
     49  CG2      -12.4550   20.8660  -10.9580 C.3    21  VAL21       0.0022
     50  N        -10.8380   27.0840   -8.1070 N.3    24  ALA24      -0.1245
     51  CA        -9.7690   26.6390   -7.1690 C.3    24  ALA24       0.1562
     52  C         -8.3920   27.1050   -7.6040 C.2    24  ALA24       0.2260
     53  O         -7.5390   27.2860   -6.7200 O.2    24  ALA24      -0.2867
     54  CB        -9.7420   25.1290   -7.1080 C.3    24  ALA24       0.0290
     55  N         -1.3860   19.6720  -11.3050 N.3    58  ILE58      -0.1245
     56  CA        -1.9240   18.3630  -10.9680 C.3    58  ILE58       0.1561
     57  C         -1.6440   17.3730  -12.0710 C.2    58  ILE58       0.2260
     58  O         -1.0910   17.6860  -13.0950 O.2    58  ILE58      -0.2867
     59  CB        -3.3950   18.4020  -10.5630 C.3    58  ILE58       0.0252
     60  CG1       -4.1920   18.9170  -11.7860 C.3    58  ILE58       0.0019
     61  CG2       -3.5190   19.1170   -9.1960 C.3    58  ILE58       0.0019
     62  CD1       -5.7140   18.8430  -11.6420 C.3    58  ILE58       0.0001
     63  N        -10.9930   14.7860  -14.5120 N.3    71  LEU71      -0.1231
     64  CA       -10.8230   16.1900  -14.3010 C.3    71  LEU71       0.1693
     65  C         -9.3690   16.6260  -14.3380 C.2    71  LEU71       0.2592
     66  O         -8.4930   15.9340  -13.8000 O.2    71  LEU71      -0.2718
     67  CB       -11.3700   16.5860  -12.9720 C.3    71  LEU71       0.0284
     68  CG       -12.8370   16.2150  -12.6880 C.3    71  LEU71       0.0019
     69  CD1      -13.2290   16.5570  -11.2710 C.3    71  LEU71       0.0001
     70  CD2      -13.8350   16.8750  -13.6400 C.3    71  LEU71       0.0001
     71  N         -9.1370   17.8030  -14.9030 N.am   72  TYR72      -0.1962
     72  CA        -7.7340   18.2890  -15.1370 C.3    72  TYR72       0.1771
     73  C         -7.7840   19.7930  -15.1720 C.2    72  TYR72       0.2619
     74  O         -8.9210   20.3890  -15.2410 O.2    72  TYR72      -0.2715
     75  CB        -7.1550   17.6580  -16.3790 C.3    72  TYR72       0.0574
     76  CG        -5.6900   17.9490  -16.6370 C.ar   72  TYR72      -0.0198
     77  CD1       -4.7420   17.4980  -15.7600 C.ar   72  TYR72      -0.0009
     78  CD2       -5.3210   18.6860  -17.7410 C.ar   72  TYR72      -0.0009
     79  CE1       -3.3710   17.7310  -15.9940 C.ar   72  TYR72       0.0417
     80  CE2       -4.0050   18.9150  -18.0260 C.ar   72  TYR72       0.0417
     81  CZ        -3.0680   18.4610  -17.1690 C.ar   72  TYR72       0.1957
     82  OH        -1.7350   18.6650  -17.4470 O.3    72  TYR72      -0.2866
     83  N         -6.6330   20.4800  -15.0770 N.am   73  ASN73      -0.1972
     84  CA        -6.6440   21.9310  -15.1490 C.3    73  ASN73       0.1688
     85  C         -5.3040   22.3900  -15.6380 C.2    73  ASN73       0.2292
     86  O         -4.3520   21.5800  -15.7870 O.2    73  ASN73      -0.2864
     87  CB        -7.0440   22.5420  -13.7790 C.3    73  ASN73       0.1181
     88  CG        -5.9920   22.3260  -12.6550 C.2    73  ASN73       0.2629
     89  OD1       -4.8180   22.1260  -12.9790 O.2    73  ASN73      -0.2716
     90  ND2       -6.3800   22.3330  -11.3410 N.am   73  ASN73      -0.0877
@<TRIPOS>BOND
     1    80    78   ar
     2    80    81   ar
     3    78    76   ar
     4    82    81    1
     5    81    79   ar
     6    76    75    1
     7    76    77   ar
     8    75    72    1
     9    79    77   ar
    10    86    85    2
    11    85    84    1
    12    74    73    2
    13    73    72    1
    14    73    83   am
    15    84    83    1
    16    84    87    1
    17    72    71    1
    18    71    65   am
    19    63    64    1
    20    65    64    1
    21    65    66    2
    22    64    67    1
    23    87    88    1
    24    70    68    1
    25    21    22    1
    26    58    57    2
    27    16    15    2
    28    89    88    2
    29    67    68    1
    30    34    33    1
    31    68    69    1
    32    12    10    1
    33    88    90   am
    34    11    10    1
    35    20    18    1
    36    18    17    1
    37     4     3    2
    38    48    47    1
    39    57    56    1
    40    15    14    1
    41    10     7    1
    42    31    30    1
    43    31    32    2
    44    22    23    1
    45    22    25    1
    46    60    62    1
    47    60    59    1
    48    29    23   am
    49    29    30    1
    50    13    14    1
    51    13     8   am
    52     7     8    1
    53     7     6    1
    54    47    49    1
    55    47    44    1
    56    23    24    2
    57    33    30    1
    58    33    35    1
    59    55    56    1
    60     3     6   am
    61     3     2    1
    62    14    17    1
    63    17    19    1
    64    45    46    2
    65    45    44    1
    66    56    59    1
    67    25    26    1
    68     8     9    2
    69    59    61    1
    70    44    43    1
    71     1     2    1
    72    36    37    1
    73    43    38   am
    74     2     5    1
    75    26    28   ar
    76    26    27   ar
    77    38    37    1
    78    38    39    2
    79    37    40    1
    80    40    41    1
    81    40    42    1
    82    50    51    1
    83    52    51    1
    84    52    53    2
    85    51    54    1
