@<TRIPOS>MOLECULE
tmp/4tsqD01.pdb
 128 126 0 0 0
SMALL
GASTEIGER

@<TRIPOS>ATOM
      1  N         -2.3320  -19.5070  -22.0430 N.3    52  ARG52      -0.1231
      2  CA        -3.5820  -19.4910  -21.3210 C.3    52  ARG52       0.1694
      3  C         -4.7000  -19.0400  -22.2270 C.2    52  ARG52       0.2592
      4  O         -5.8110  -19.5050  -22.0940 O.2    52  ARG52      -0.2718
      5  CB        -3.4530  -18.5980  -20.1000 C.3    52  ARG52       0.0321
      6  CG        -4.6570  -18.3200  -19.2540 C.3    52  ARG52       0.0489
      7  CD        -5.1550  -19.4340  -18.3510 C.3    52  ARG52       0.2205
      8  NE        -5.8780  -20.3680  -19.1670 N.pl3  52  ARG52      -0.0865
      9  CZ        -6.4670  -21.4860  -18.7810 C.cat  52  ARG52       0.5346
     10  NH1       -6.5300  -21.8920  -17.5120 N.pl3  52  ARG52       0.1354
     11  NH2       -7.0340  -22.1970  -19.7300 N.pl3  52  ARG52       0.1354
     12  N         -4.4160  -18.0270  -23.0220 N.am   53  SER53      -0.1952
     13  CA        -5.3920  -17.4570  -23.9680 C.3    53  SER53       0.1924
     14  C         -4.5920  -17.0510  -25.2100 C.2    53  SER53       0.2314
     15  O         -3.4670  -16.5270  -25.1300 O.2    53  SER53      -0.2863
     16  CB        -6.0520  -16.2080  -23.3990 C.3    53  SER53       0.2116
     17  OG        -6.8830  -16.4600  -22.3280 O.3    53  SER53      -0.2180
     18  N        -14.7440  -14.8570  -29.8430 N.3    81  VAL81      -0.1231
     19  CA       -14.5910  -15.2720  -28.4360 C.3    81  VAL81       0.1692
     20  C        -13.9050  -14.1560  -27.6050 C.2    81  VAL81       0.2592
     21  O        -12.9440  -13.5180  -28.0450 O.2    81  VAL81      -0.2718
     22  CB       -13.7580  -16.5670  -28.3120 C.3    81  VAL81       0.0266
     23  CG1      -12.3080  -16.3360  -28.7360 C.3    81  VAL81       0.0020
     24  CG2      -13.7830  -17.1070  -26.8890 C.3    81  VAL81       0.0020
     25  N        -14.3960  -13.9520  -26.3930 N.am   82  ALA82      -0.1966
     26  CA       -13.9540  -12.8290  -25.5390 C.3    82  ALA82       0.1728
     27  C        -12.7580  -13.1620  -24.6420 C.2    82  ALA82       0.2617
     28  O        -12.8300  -13.1260  -23.4350 O.2    82  ALA82      -0.2715
     29  CB       -15.1480  -12.3090  -24.7300 C.3    82  ALA82       0.0334
     30  N        -11.6600  -13.5240  -25.2840 N.am   83  THR83      -0.1937
     31  CA       -10.4010  -13.8440  -24.6430 C.3    83  THR83       0.2028
     32  C         -9.2510  -13.0390  -25.2920 C.2    83  THR83       0.2642
     33  O         -9.3590  -12.5710  -26.3890 O.2    83  THR83      -0.2714
     34  CB       -10.1070  -15.3780  -24.7340 C.3    83  THR83       0.1808
     35  OG1      -10.2020  -15.7950  -26.0910 O.3    83  THR83      -0.2208
     36  CG2      -11.2070  -16.1810  -23.9630 C.3    83  THR83       0.0379
     37  N         -8.1370  -12.9720  -24.5880 N.am   84  GLY84      -0.1954
     38  CA        -7.0040  -12.1310  -24.9580 C.3    84  GLY84       0.1869
     39  C         -5.8250  -12.9500  -25.4030 C.2    84  GLY84       0.2309
     40  O         -5.9820  -13.9680  -26.0800 O.2    84  GLY84      -0.2863
     41  N         -2.4480  -14.3520  -23.4990 N.3    86  VAL86      -0.1245
     42  CA        -1.9100  -14.5160  -22.1810 C.3    86  VAL86       0.1561
     43  C         -1.0760  -15.7750  -22.1780 C.2    86  VAL86       0.2260
     44  O         -1.5450  -16.8300  -22.6160 O.2    86  VAL86      -0.2867
     45  CB        -3.0520  -14.7020  -21.1340 C.3    86  VAL86       0.0252
     46  CG1       -2.5070  -14.8500  -19.7190 C.3    86  VAL86       0.0019
     47  CG2       -4.0610  -13.5400  -21.2250 C.3    86  VAL86       0.0019
     48  N          0.3930  -10.8910  -20.1570 N.3   104  SER104     -0.1217
     49  CA        -1.0240  -10.9310  -20.1070 C.3   104  SER104      0.1889
     50  C         -1.6410   -9.7080  -20.7330 C.2   104  SER104      0.2288
     51  O         -1.4160   -8.6120  -20.2180 O.2   104  SER104     -0.2866
     52  CB        -1.5320  -11.1110  -18.6680 C.3   104  SER104      0.2089
     53  OG        -2.9380  -11.4440  -18.6560 O.3   104  SER104     -0.2183
     54  N         -5.3470   -8.7980  -21.5920 N.3   106  PRO106     -0.2102
     55  CA        -6.6810   -9.3450  -21.4280 C.3   106  PRO106      0.1504
     56  C         -7.6470   -8.8030  -22.4800 C.2   106  PRO106      0.2576
     57  O         -7.4610   -7.6860  -23.0650 O.2   106  PRO106     -0.2718
     58  CB        -7.0650   -8.8610  -20.0170 C.3   106  PRO106      0.0282
     59  CG        -6.3850   -7.5270  -19.9470 C.3   106  PRO106      0.0208
     60  CD        -5.0260   -7.8340  -20.5310 C.3   106  PRO106      0.0893
     61  N         -8.7560   -9.5140  -22.6750 N.am  107  TYR107     -0.1963
     62  CA        -9.8430   -9.0330  -23.4790 C.3   107  TYR107      0.1771
     63  C        -10.5630   -7.8570  -22.8650 C.2   107  TYR107      0.2619
     64  O        -10.8760   -6.8620  -23.5430 O.2   107  TYR107     -0.2715
     65  CB       -10.8770  -10.1560  -23.7060 C.3   107  TYR107      0.0574
     66  CG       -11.8990   -9.7510  -24.7580 C.ar  107  TYR107     -0.0198
     67  CD1      -13.1020   -9.2180  -24.3820 C.ar  107  TYR107     -0.0009
     68  CD2      -11.6440   -9.9030  -26.1060 C.ar  107  TYR107     -0.0009
     69  CE1      -14.0520   -8.8040  -25.3160 C.ar  107  TYR107      0.0417
     70  CE2      -12.5780   -9.4920  -27.0700 C.ar  107  TYR107      0.0417
     71  CZ       -13.7700   -8.9230  -26.6680 C.ar  107  TYR107      0.1957
     72  OH       -14.7430   -8.5470  -27.5940 O.3   107  TYR107     -0.2866
     73  N        -10.8740   -7.9700  -21.5940 N.am  108  ASP108     -0.1971
     74  CA       -11.7890   -7.0370  -20.9370 C.3   108  ASP108      0.1709
     75  C        -11.0210   -6.2090  -19.9310 C.2   108  ASP108      0.2293
     76  O        -10.6420   -6.6900  -18.8830 O.2   108  ASP108     -0.2864
     77  CB       -12.9210   -7.7860  -20.2560 C.3   108  ASP108      0.1436
     78  CG       -14.0450   -6.8630  -19.8010 C.2   108  ASP108      0.3671
     79  OD1      -13.8580   -5.6330  -19.7550 O.co2 108  ASP108     -0.2456
     80  OD2      -15.1570   -7.3500  -19.5510 O.co2 108  ASP108     -0.2456
     81  N         -9.6080   -6.6120  -15.8680 N.3   112  TYR112     -0.1241
     82  CA        -8.2140   -7.0050  -15.8750 C.3   112  TYR112      0.1605
     83  C         -7.3670   -5.8810  -16.4630 C.2   112  TYR112      0.2264
     84  O         -7.8870   -4.9100  -17.0970 O.2   112  TYR112     -0.2867
     85  CB        -8.0620   -8.2600  -16.6910 C.3   112  TYR112      0.0534
     86  CG        -8.6810   -9.4670  -16.1030 C.ar  112  TYR112     -0.0201
     87  CD1       -8.1110  -10.0980  -14.9640 C.ar  112  TYR112     -0.0009
     88  CD2       -9.8150  -10.0140  -16.6770 C.ar  112  TYR112     -0.0009
     89  CE1       -8.6710  -11.2570  -14.4410 C.ar  112  TYR112      0.0417
     90  CE2      -10.4200  -11.1410  -16.1070 C.ar  112  TYR112      0.0417
     91  CZ        -9.8170  -11.7570  -15.0130 C.ar  112  TYR112      0.1957
     92  OH       -10.4040  -12.8860  -14.4760 O.3   112  TYR112     -0.2866
     93  N          2.5590  -20.3470  -15.5100 N.3   132  TYR132     -0.1241
     94  CA         1.7230  -19.1630  -15.7520 C.3   132  TYR132      0.1605
     95  C          1.1450  -18.6790  -14.4130 C.2   132  TYR132      0.2264
     96  O          1.2440  -17.4930  -14.0640 O.2   132  TYR132     -0.2867
     97  CB         0.5960  -19.4660  -16.7650 C.3   132  TYR132      0.0534
     98  CG        -0.6190  -18.5780  -16.5590 C.ar  132  TYR132     -0.0201
     99  CD1       -0.6020  -17.1940  -16.9280 C.ar  132  TYR132     -0.0009
    100  CD2       -1.7530  -19.0940  -16.0230 C.ar  132  TYR132     -0.0009
    101  CE1       -1.7240  -16.4430  -16.6840 C.ar  132  TYR132      0.0417
    102  CE2       -2.8800  -18.3150  -15.8110 C.ar  132  TYR132      0.0417
    103  CZ        -2.8190  -16.9840  -16.1520 C.ar  132  TYR132      0.1957
    104  OH        -3.9310  -16.2530  -15.9110 O.3   132  TYR132     -0.2866
    105  N          1.9520  -15.1020  -12.6530 N.3   136  TYR136     -0.1227
    106  CA         0.8750  -14.1150  -12.7130 C.3   136  TYR136      0.1736
    107  C          0.3420  -13.8420  -11.3590 C.2   136  TYR136      0.2595
    108  O          0.0310  -12.6870  -11.0560 O.2   136  TYR136     -0.2718
    109  CB        -0.2630  -14.6450  -13.6160 C.3   136  TYR136      0.0548
    110  CG        -1.3850  -13.6240  -13.8310 C.ar  136  TYR136     -0.0200
    111  CD1       -1.3300  -12.8030  -14.9250 C.ar  136  TYR136     -0.0009
    112  CD2       -2.4910  -13.6020  -13.0430 C.ar  136  TYR136     -0.0009
    113  CE1       -2.3190  -11.8560  -15.1500 C.ar  136  TYR136      0.0417
    114  CE2       -3.5200  -12.6920  -13.2800 C.ar  136  TYR136      0.0417
    115  CZ        -3.4070  -11.8120  -14.3310 C.ar  136  TYR136      0.1957
    116  OH        -4.3580  -10.8500  -14.6110 O.3   136  TYR136     -0.2866
    117  N          0.1880  -14.8570  -10.5000 N.am  137  TYR137     -0.1976
    118  CA        -0.3560  -14.6580   -9.1230 C.3   137  TYR137      0.1639
    119  C          0.6520  -14.5190   -7.9790 C.2   137  TYR137      0.2290
    120  O          0.3470  -13.8530   -6.9720 O.2   137  TYR137     -0.2864
    121  CB        -1.3600  -15.7900   -8.7730 C.3   137  TYR137      0.0560
    122  CG        -2.5510  -15.7780   -9.7140 C.ar  137  TYR137     -0.0198
    123  CD1       -3.5770  -14.8430   -9.5670 C.ar  137  TYR137     -0.0009
    124  CD2       -2.6900  -16.7010  -10.7230 C.ar  137  TYR137     -0.0009
    125  CE1       -4.6630  -14.8210  -10.4320 C.ar  137  TYR137      0.0417
    126  CE2       -3.7780  -16.6910  -11.5840 C.ar  137  TYR137      0.0417
    127  CZ        -4.7800  -15.7450  -11.4290 C.ar  137  TYR137      0.1957
    128  OH        -5.8470  -15.7150  -12.2550 O.3   137  TYR137     -0.2866
@<TRIPOS>BOND
     1    18    19    1
     2    23    22    1
     3    19    22    1
     4    19    20    1
     5    22    24    1
     6    21    20    2
     7    20    25   am
     8    72    71    1
     9    70    71   ar
    10    70    68   ar
    11    71    69   ar
    12    25    26    1
    13    33    32    2
    14    68    66   ar
    15    35    34    1
    16    40    39    2
    17    26    29    1
    18    26    27    1
    19    39    38    1
    20    69    67   ar
    21    32    31    1
    22    32    37   am
    23    30    31    1
    24    30    27   am
    25    14    15    2
    26    14    13    1
    27    38    37    1
    28    66    67   ar
    29    66    65    1
    30    34    31    1
    31    34    36    1
    32    27    28    2
    33    13    16    1
    34    13    12    1
    35    65    62    1
    36    64    63    2
    37    41    42    1
    38    62    63    1
    39    62    61    1
    40    16    17    1
    41    57    56    2
    42    12     3   am
    43    63    73   am
    44    61    56   am
    45    44    43    2
    46    56    55    1
    47     3     4    2
    48     3     2    1
    49    42    43    1
    50    42    45    1
    51     1     2    1
    52    73    74    1
    53    54    55    1
    54    54    60    1
    55    55    58    1
    56     2     5    1
    57    47    45    1
    58    45    46    1
    59    74    77    1
    60    74    75    1
    61    50    51    2
    62    50    49    1
    63    60    59    1
    64    77    78    1
    65    48    49    1
    66    49    52    1
    67     5     6    1
    68    58    59    1
    69    75    76    2
    70    78    79   ar
    71    78    80   ar
    72    11     9    1
    73     6     7    1
    74     8     9    2
    75     8     7    1
    76     9    10    1
    77    52    53    1
    78    84    83    2
    79    99   101   ar
    80    99    98   ar
    81    97    98    1
    82    97    94    1
    83    85    86    1
    84    85    82    1
    85   101   103   ar
    86    88    90   ar
    87    88    86   ar
    88    98   100   ar
    89    83    82    1
    90   103   104    1
    91   103   102   ar
    92    90    91   ar
    93    86    87   ar
    94   100   102   ar
    95    82    81    1
    96    94    93    1
    97    94    95    1
    98   113   111   ar
    99   113   115   ar
   100    91    92    1
   101    91    89   ar
   102    87    89   ar
   103   111   110   ar
   104   116   115    1
   105    95    96    2
   106   115   114   ar
   107   110   109    1
   108   110   112   ar
   109   109   106    1
   110   114   112   ar
   111   106   105    1
   112   106   107    1
   113   128   127    1
   114   126   127   ar
   115   126   124   ar
   116   127   125   ar
   117   107   108    2
   118   107   117   am
   119   124   122   ar
   120   117   118    1
   121   125   123   ar
   122   122   123   ar
   123   122   121    1
   124   118   121    1
   125   118   119    1
   126   119   120    2
