@<TRIPOS>MOLECULE
tmp/4tsqF01.pdb
 127 125 0 0 0
SMALL
GASTEIGER

@<TRIPOS>ATOM
      1  N         29.2190    8.2470   26.6530 N.3    51  ARG51      -0.1231
      2  CA        29.8000    6.9240   26.7420 C.3    51  ARG51       0.1694
      3  C         30.6980    6.7870   27.9630 C.2    51  ARG51       0.2592
      4  O         30.6720    5.7530   28.6530 O.2    51  ARG51      -0.2718
      5  CB        30.5940    6.6410   25.4890 C.3    51  ARG51       0.0321
      6  CG        31.4290    5.4110   25.5260 C.3    51  ARG51       0.0489
      7  CD        30.6090    4.1650   25.8290 C.3    51  ARG51       0.2205
      8  NE        31.4800    3.0090   25.7270 N.pl3  51  ARG51      -0.0865
      9  CZ        32.3170    2.6260   26.6820 C.cat  51  ARG51       0.5346
     10  NH1       32.3850    3.2720   27.8350 N.pl3  51  ARG51       0.1354
     11  NH2       33.0650    1.5450   26.5100 N.pl3  51  ARG51       0.1354
     12  N         31.5430    7.7660   28.2440 N.am   52  SER52      -0.1952
     13  CA        32.1130    7.8770   29.6040 C.3    52  SER52       0.1924
     14  C         32.2760    9.3340   29.9550 C.2    52  SER52       0.2314
     15  O         32.3180   10.1530   29.0780 O.2    52  SER52      -0.2863
     16  CB        33.4480    7.1520   29.7600 C.3    52  SER52       0.2116
     17  OG        34.2920    7.3290   28.6460 O.3    52  SER52      -0.2180
     18  N         39.8720    4.5200   35.4670 N.3    81  ALA81      -0.1231
     19  CA        40.7670    4.8840   34.3540 C.3    81  ALA81       0.1694
     20  C         39.9770    5.0000   33.0620 C.2    81  ALA81       0.2593
     21  O         40.1530    4.2470   32.1160 O.2    81  ALA81      -0.2718
     22  CB        41.8900    3.8600   34.2510 C.3    81  ALA81       0.0304
     23  N         39.0490    5.9900   33.0340 N.am   82  THR82      -0.1939
     24  CA        38.2070    6.3000   31.8460 C.3    82  THR82       0.2028
     25  C         38.2450    7.7640   31.5590 C.2    82  THR82       0.2642
     26  O         38.6940    8.6020   32.3870 O.2    82  THR82      -0.2714
     27  CB        36.7790    5.7330   32.0880 C.3    82  THR82       0.1808
     28  OG1       36.3010    6.3300   33.3160 O.3    82  THR82      -0.2208
     29  CG2       36.7780    4.2700   32.2370 C.3    82  THR82       0.0379
     30  N         37.8210    8.1230   30.3520 N.am   83  GLY83      -0.1954
     31  CA        37.9480    9.4820   29.8090 C.3    83  GLY83       0.1869
     32  C         36.6420   10.2140   29.7110 C.2    83  GLY83       0.2309
     33  O         35.7370   10.0160   30.4980 O.2    83  GLY83      -0.2863
     34  N         33.8510   10.9260   26.7410 N.3    85  VAL85      -0.1245
     35  CA        33.5580   10.3800   25.4260 C.3    85  VAL85       0.1561
     36  C         32.0470   10.5580   25.2850 C.2    85  VAL85       0.2260
     37  O         31.2610   10.0450   26.0410 O.2    85  VAL85      -0.2867
     38  CB        33.9370    8.9040   25.3000 C.3    85  VAL85       0.0252
     39  CG1       33.6030    8.3970   23.8880 C.3    85  VAL85       0.0019
     40  CG2       35.4080    8.6780   25.6090 C.3    85  VAL85       0.0019
     41  N         35.7740   12.3730   21.7620 N.3   103  SER103     -0.1217
     42  CA        36.4150   11.3050   22.5480 C.3   103  SER103      0.1889
     43  C         37.7990   11.7060   23.0390 C.2   103  SER103      0.2288
     44  O         38.7050   11.9750   22.2820 O.2   103  SER103     -0.2866
     45  CB        36.5280   10.0670   21.7100 C.3   103  SER103      0.2089
     46  OG        36.9860    8.9630   22.5290 O.3   103  SER103     -0.2183
     47  N         40.3220    9.9670   25.4850 N.3   105  PRO105     -0.2102
     48  CA        40.5060    8.7560   26.2390 C.3   105  PRO105      0.1504
     49  C         41.3880    8.9100   27.4730 C.2   105  PRO105      0.2576
     50  O         42.1740    9.8180   27.5840 O.2   105  PRO105     -0.2718
     51  CB        41.2610    7.8680   25.2310 C.3   105  PRO105      0.0282
     52  CG        42.0830    8.8750   24.5190 C.3   105  PRO105      0.0208
     53  CD        41.0820    9.9600   24.2390 C.3   105  PRO105      0.0893
     54  N         41.3810    7.8960   28.3560 N.am  106  TYR106     -0.1963
     55  CA        42.2950    7.8690   29.4840 C.3   106  TYR106      0.1771
     56  C         43.7570    7.5910   29.1070 C.2   106  TYR106      0.2619
     57  O         44.6430    8.3460   29.5100 O.2   106  TYR106     -0.2715
     58  CB        41.8110    6.8750   30.5270 C.3   106  TYR106      0.0574
     59  CG        42.5320    7.0700   31.8650 C.ar  106  TYR106     -0.0198
     60  CD1       43.6410    6.3460   32.1370 C.ar  106  TYR106     -0.0009
     61  CD2       42.1160    8.0200   32.7450 C.ar  106  TYR106     -0.0009
     62  CE1       44.3420    6.5280   33.3130 C.ar  106  TYR106      0.0417
     63  CE2       42.7540    8.2510   33.9260 C.ar  106  TYR106      0.0417
     64  CZ        43.9090    7.5400   34.2050 C.ar  106  TYR106      0.1957
     65  OH        44.5220    7.7000   35.4430 O.3   106  TYR106     -0.2866
     66  N         43.9460    6.5580   28.3800 N.am  107  ASP107     -0.1971
     67  CA        45.3050    6.0290   28.1390 C.3   107  ASP107      0.1709
     68  C         45.7890    6.2800   26.7110 C.2   107  ASP107      0.2293
     69  O         45.3840    5.6170   25.8370 O.2   107  ASP107     -0.2864
     70  CB        45.3250    4.5740   28.5190 C.3   107  ASP107      0.1436
     71  CG        46.7410    4.0230   28.6120 C.2   107  ASP107      0.3671
     72  OD1       47.7030    4.7560   28.2010 O.co2 107  ASP107     -0.2456
     73  OD2       46.9250    2.8640   29.0720 O.co2 107  ASP107     -0.2456
     74  N         44.8150    4.7470   22.9130 N.3   111  TYR111     -0.1227
     75  CA        43.7890    5.4750   22.1340 C.3   111  TYR111      0.1736
     76  C         44.3000    6.8530   21.8990 C.2   111  TYR111      0.2596
     77  O         45.2420    7.2700   22.5230 O.2   111  TYR111     -0.2718
     78  CB        42.4540    5.5420   22.9180 C.3   111  TYR111      0.0548
     79  CG        41.8000    4.2300   23.2150 C.ar  111  TYR111     -0.0200
     80  CD1       41.1490    3.4970   22.2150 C.ar  111  TYR111     -0.0009
     81  CD2       41.8330    3.7030   24.4620 C.ar  111  TYR111     -0.0009
     82  CE1       40.5480    2.2740   22.4820 C.ar  111  TYR111      0.0417
     83  CE2       41.2290    2.4980   24.7320 C.ar  111  TYR111      0.0417
     84  CZ        40.6000    1.7860   23.7530 C.ar  111  TYR111      0.1957
     85  OH        40.0290    0.5610   24.0850 O.3   111  TYR111     -0.2866
     86  N         43.5620    7.6080   21.0500 N.am  112  SER112     -0.1952
     87  CA        43.8270    9.0270   20.7730 C.3   112  SER112      0.1924
     88  C         42.4970    9.8270   20.8590 C.2   112  SER112      0.2314
     89  O         41.4170    9.2530   20.9370 O.2   112  SER112     -0.2863
     90  CB        44.3170    9.1620   19.3360 C.3   112  SER112      0.2116
     91  OG        45.3390    8.2250   19.1130 O.3   112  SER112     -0.2180
     92  N         26.7420    7.2500   19.0450 N.3   131  TYR131     -0.1241
     93  CA        28.1810    7.1930   19.4040 C.3   131  TYR131      0.1605
     94  C         28.9490    6.1560   18.5430 C.2   131  TYR131      0.2264
     95  O         29.9330    6.4830   17.9280 O.2   131  TYR131     -0.2867
     96  CB        28.3520    6.9360   20.8920 C.3   131  TYR131      0.0534
     97  CG        29.7080    6.3170   21.2100 C.ar  131  TYR131     -0.0201
     98  CD1       30.8830    7.0790   21.1520 C.ar  131  TYR131     -0.0009
     99  CD2       29.8370    4.9520   21.5450 C.ar  131  TYR131     -0.0009
    100  CE1       32.1380    6.5160   21.3630 C.ar  131  TYR131      0.0417
    101  CE2       31.0960    4.4140   21.7810 C.ar  131  TYR131      0.0417
    102  CZ        32.2430    5.2180   21.7140 C.ar  131  TYR131      0.1957
    103  OH        33.4760    4.6140   21.9490 O.3   131  TYR131     -0.2866
    104  N         31.7910    7.1380   15.9330 N.3   135  TYR135     -0.1227
    105  CA        33.1300    6.7750   16.3340 C.3   135  TYR135      0.1736
    106  C         33.8270    5.7430   15.4310 C.2   135  TYR135      0.2595
    107  O         35.0330    5.8750   15.1700 O.2   135  TYR135     -0.2718
    108  CB        33.1210    6.3460   17.8050 C.3   135  TYR135      0.0548
    109  CG        34.5080    6.1830   18.4240 C.ar  135  TYR135     -0.0200
    110  CD1       35.1930    7.2750   18.9610 C.ar  135  TYR135     -0.0009
    111  CD2       35.1530    4.9550   18.4110 C.ar  135  TYR135     -0.0009
    112  CE1       36.4550    7.1090   19.5310 C.ar  135  TYR135      0.0417
    113  CE2       36.4120    4.7950   18.9380 C.ar  135  TYR135      0.0417
    114  CZ        37.0690    5.8760   19.5080 C.ar  135  TYR135      0.1957
    115  OH        38.3380    5.7630   20.0630 O.3   135  TYR135     -0.2866
    116  N         33.0930    4.7070   15.0530 N.am  136  TYR136     -0.1976
    117  CA        33.6280    3.5270   14.3070 C.3   136  TYR136      0.1639
    118  C         33.3190    3.5370   12.7990 C.2   136  TYR136      0.2290
    119  O         34.1190    3.0600   12.0120 O.2   136  TYR136     -0.2864
    120  CB        33.0790    2.2370   14.9250 C.3   136  TYR136      0.0560
    121  CG        33.6010    1.9630   16.2950 C.ar  136  TYR136     -0.0198
    122  CD1       34.9260    1.5970   16.4760 C.ar  136  TYR136     -0.0009
    123  CD2       32.7890    2.1020   17.4240 C.ar  136  TYR136     -0.0009
    124  CE1       35.4330    1.3630   17.7230 C.ar  136  TYR136      0.0417
    125  CE2       33.2980    1.8850   18.6920 C.ar  136  TYR136      0.0417
    126  CZ        34.6240    1.4710   18.8050 C.ar  136  TYR136      0.1957
    127  OH        35.1370    1.2640   20.0270 O.3   136  TYR136     -0.2866
@<TRIPOS>BOND
     1   119   118    2
     2   118   117    1
     3   117   120    1
     4   117   116    1
     5   120   121    1
     6   116   106   am
     7   107   106    2
     8   106   105    1
     9   104   105    1
    10   121   122   ar
    11   121   123   ar
    12   105   108    1
    13   122   124   ar
    14   123   125   ar
    15   124   126   ar
    16   108   109    1
    17    95    94    2
    18   111   109   ar
    19   111   113   ar
    20   109   110   ar
    21    94    93    1
    22   125   126   ar
    23   126   127    1
    24   113   114   ar
    25   110   112   ar
    26    92    93    1
    27    91    90    1
    28    90    87    1
    29    93    96    1
    30   114   112   ar
    31   114   115    1
    32    87    88    1
    33    87    86    1
    34    88    89    2
    35    96    97    1
    36    86    76   am
    37    98    97   ar
    38    98   100   ar
    39    97    99   ar
    40   100   102   ar
    41    99   101   ar
    42    45    46    1
    43    45    42    1
    44   102   101   ar
    45   102   103    1
    46    41    42    1
    47    76    75    1
    48    76    77    2
    49    75    74    1
    50    75    78    1
    51    80    82   ar
    52    80    79   ar
    53    44    43    2
    54    82    84   ar
    55    42    43    1
    56    78    79    1
    57    79    81   ar
    58    84    85    1
    59    84    83   ar
    60    39    38    1
    61    53    52    1
    62    53    47    1
    63    81    83   ar
    64    52    51    1
    65    51    48    1
    66    36    35    1
    67    36    37    2
    68    38    35    1
    69    38    40    1
    70    35    34    1
    71    47    48    1
    72     5     6    1
    73     5     2    1
    74     6     7    1
    75     8     7    1
    76     8     9    2
    77    69    68    2
    78    48    49    1
    79    11     9    1
    80     1     2    1
    81     9    10    1
    82    68    67    1
    83     2     3    1
    84    49    50    2
    85    49    54   am
    86     3    12   am
    87     3     4    2
    88    67    66    1
    89    67    70    1
    90    72    71   ar
    91    12    13    1
    92    54    55    1
    93    66    56   am
    94    70    71    1
    95    71    73   ar
    96    17    16    1
    97    15    14    2
    98    56    55    1
    99    56    57    2
   100    55    58    1
   101    13    16    1
   102    13    14    1
   103    32    31    1
   104    32    33    2
   105    31    30    1
   106    30    25   am
   107    58    59    1
   108    25    24    1
   109    25    26    2
   110    24    27    1
   111    24    23    1
   112    59    60   ar
   113    59    61   ar
   114    27    29    1
   115    27    28    1
   116    21    20    2
   117    60    62   ar
   118    61    63   ar
   119    23    20   am
   120    20    19    1
   121    62    64   ar
   122    63    64   ar
   123    64    65    1
   124    22    19    1
   125    19    18    1
