@<TRIPOS>MOLECULE
tmp/4tsqA04.pdb
 104 102 0 0 0
SMALL
GASTEIGER

@<TRIPOS>ATOM
      1  N         -8.1090   15.9440    1.4210 N.3   118  ARG118     -0.1231
      2  CA        -8.6970   16.6770    0.3100 C.3   118  ARG118      0.1694
      3  C         -9.1210   18.0660    0.7780 C.2   118  ARG118      0.2592
      4  O         -9.3860   18.2390    1.9400 O.2   118  ARG118     -0.2718
      5  CB        -9.8950   15.9560   -0.3090 C.3   118  ARG118      0.0321
      6  CG        -9.6230   14.5850   -0.8840 C.3   118  ARG118      0.0489
      7  CD        -9.1280   14.6010   -2.3290 C.3   118  ARG118      0.2205
      8  NE        -7.7200   14.7950   -2.4690 N.pl3 118  ARG118     -0.0865
      9  CZ        -7.0860   15.4440   -3.4700 C.cat 118  ARG118      0.5346
     10  NH1       -7.7170   16.0220   -4.5090 N.pl3 118  ARG118      0.1354
     11  NH2       -5.7380   15.5160   -3.4220 N.pl3 118  ARG118      0.1354
     12  N         -9.1400   18.9950   -0.1680 N.am  119  VAL119     -0.1966
     13  CA        -9.6960   20.3240    0.1080 C.3   119  VAL119      0.1727
     14  C        -11.0910   20.3960   -0.5160 C.2   119  VAL119      0.2616
     15  O        -11.3050   20.0160   -1.6950 O.2   119  VAL119     -0.2715
     16  CB        -8.7910   21.4250   -0.4450 C.3   119  VAL119      0.0290
     17  CG1       -9.4280   22.7570   -0.2270 C.3   119  VAL119      0.0023
     18  CG2       -7.4330   21.3620    0.2100 C.3   119  VAL119      0.0023
     19  N        -12.0500   20.8180    0.3130 N.am  120  TYR120     -0.1960
     20  CA       -13.4040   21.0640   -0.1240 C.3   120  TYR120      0.1771
     21  C        -13.5880   22.5700   -0.2650 C.2   120  TYR120      0.2619
     22  O        -13.1020   23.3600    0.5760 O.2   120  TYR120     -0.2715
     23  CB       -14.3660   20.5340    0.9330 C.3   120  TYR120      0.0574
     24  CG       -14.6550   19.0750    0.8850 C.ar  120  TYR120     -0.0198
     25  CD1      -13.7950   18.1720    1.4890 C.ar  120  TYR120     -0.0009
     26  CD2      -15.7000   18.5810    0.1670 C.ar  120  TYR120     -0.0009
     27  CE1      -14.0270   16.8300    1.3700 C.ar  120  TYR120      0.0417
     28  CE2      -15.9570   17.2010    0.0910 C.ar  120  TYR120      0.0417
     29  CZ       -15.0900   16.3450    0.6720 C.ar  120  TYR120      0.1957
     30  OH       -15.3530   14.9680    0.5660 O.3   120  TYR120     -0.2866
     31  N        -14.3110   22.9640   -1.2830 N.am  121  LYS121     -0.1977
     32  CA       -14.7030   24.3300   -1.4760 C.3   121  LYS121      0.1596
     33  C        -15.6070   24.8390   -0.3320 C.2   121  LYS121      0.2287
     34  O        -16.5880   24.1990    0.0350 O.2   121  LYS121     -0.2864
     35  CB       -15.4050   24.5640   -2.8170 C.3   121  LYS121      0.0298
     36  CG       -15.8420   26.0130   -3.0300 C.3   121  LYS121      0.0038
     37  CD       -16.5680   26.1190   -4.3660 C.3   121  LYS121      0.0206
     38  CE       -17.7750   27.0350   -4.2990 C.3   121  LYS121      0.1093
     39  NZ       -17.7120   28.2500   -5.1160 N.3   121  LYS121     -0.1314
     40  N        -17.0460   23.4270    5.3700 N.3   124  LYS124     -0.1301
     41  CA       -17.8110   22.1750    5.3150 C.3   124  LYS124      0.1247
     42  C        -17.5020   21.2430    6.5020 C.3   124  LYS124      0.2009
     43  O        -16.4060   20.5650    6.5120 O.3   124  LYS124     -0.2188
     44  CB       -17.5040   21.4190    4.0140 C.3   124  LYS124      0.0218
     45  CG       -18.0240   22.0810    2.7390 C.3   124  LYS124      0.0031
     46  CD       -19.5090   22.3170    2.7650 C.3   124  LYS124      0.0205
     47  CE       -20.0380   22.8260    1.4190 C.3   124  LYS124      0.1093
     48  NZ       -20.0450   21.7410    0.3940 N.3   124  LYS124     -0.1314
     49  N        -21.5580   11.8710    4.8590 N.3   129  ARG129     -0.1245
     50  CA       -21.3750   11.9840    3.3880 C.3   129  ARG129      0.1563
     51  C        -19.9240   12.2990    3.0690 C.2   129  ARG129      0.2260
     52  O        -19.3730   11.7310    2.1090 O.2   129  ARG129     -0.2867
     53  CB       -22.2520   13.0990    2.8060 C.3   129  ARG129      0.0307
     54  CG       -21.9750   13.3850    1.3300 C.3   129  ARG129      0.0489
     55  CD       -22.9640   14.4120    0.8130 C.3   129  ARG129      0.2205
     56  NE       -22.4900   15.1860   -0.3510 N.pl3 129  ARG129     -0.0865
     57  CZ       -23.2420   16.0790   -0.9980 C.cat 129  ARG129      0.5346
     58  NH1      -24.4880   16.3250   -0.5740 N.pl3 129  ARG129      0.1354
     59  NH2      -22.7660   16.7270   -2.0680 N.pl3 129  ARG129      0.1354
     60  N        -14.9890    7.2510   -2.7980 N.3   137  HIS137     -0.1226
     61  CA       -15.0840    7.9060   -4.0920 C.3   137  HIS137      0.1752
     62  C        -13.9060    8.7800   -4.4720 C.2   137  HIS137      0.2595
     63  O        -13.7640    9.0950   -5.6680 O.2   137  HIS137     -0.2718
     64  CB       -16.4160    8.6910   -4.1530 C.3   137  HIS137      0.0759
     65  CG       -17.6180    7.8420   -3.8770 C.ar  137  HIS137      0.0818
     66  ND1      -17.9480    6.7320   -4.6190 N.ar  137  HIS137     -0.2268
     67  CD2      -18.5410    7.9200   -2.8890 C.ar  137  HIS137      0.1154
     68  CE1      -19.0340    6.1720   -4.1190 C.ar  137  HIS137      0.1986
     69  NE2      -19.4180    6.8810   -3.0720 N.ar  137  HIS137     -0.2212
     70  N        -13.0670    9.1770   -3.5270 N.am  138  ARG138     -0.1980
     71  CA       -11.9850   10.1790   -3.7640 C.3   138  ARG138      0.1597
     72  C        -10.5670    9.6020   -3.5710 C.2   138  ARG138      0.2287
     73  O         -9.6550   10.3000   -3.1630 O.2   138  ARG138     -0.2864
     74  CB       -12.2090   11.3940   -2.8930 C.3   138  ARG138      0.0334
     75  CG       -13.4640   12.2010   -3.2720 C.3   138  ARG138      0.0492
     76  CD       -13.4760   13.6370   -2.7500 C.3   138  ARG138      0.2205
     77  NE       -14.7490   14.3080   -3.0380 N.pl3 138  ARG138     -0.0865
     78  CZ       -14.9790   15.6170   -2.9070 C.cat 138  ARG138      0.5346
     79  NH1      -13.9970   16.4680   -2.5890 N.pl3 138  ARG138      0.1354
     80  NH2      -16.2010   16.0970   -3.2290 N.pl3 138  ARG138      0.1354
     81  N         -3.4610   18.9020   -4.0460 N.3   152  LEU152     -0.1231
     82  CA        -4.8320   19.1350   -3.5330 C.3   152  LEU152      0.1693
     83  C         -5.6180   20.0890   -4.3740 C.2   152  LEU152      0.2593
     84  O         -6.8010   20.3500   -4.0380 O.2   152  LEU152     -0.2718
     85  CB        -4.7680   19.6680   -2.1290 C.3   152  LEU152      0.0284
     86  CG        -4.0900   18.7320   -1.1090 C.3   152  LEU152      0.0019
     87  CD1       -3.8630   19.3710    0.2490 C.3   152  LEU152      0.0001
     88  CD2       -5.0060   17.5170   -0.8620 C.3   152  LEU152      0.0001
     89  N         -4.9860   20.6360   -5.3680 N.am  153  GLY153     -0.1942
     90  CA        -5.4770   21.8990   -5.9650 C.3   153  GLY153      0.2014
     91  C         -5.3440   23.0500   -4.9540 C.2   153  GLY153      0.2638
     92  O         -4.8070   22.9030   -3.8870 O.2   153  GLY153     -0.2714
     93  N         -5.9330   24.1670   -5.3050 N.am  154  TYR154     -0.1973
     94  CA        -5.9390   25.3410   -4.4250 C.3   154  TYR154      0.1639
     95  C         -4.5030   25.8150   -4.0980 C.2   154  TYR154      0.2290
     96  O         -4.3040   26.4750   -3.0360 O.2   154  TYR154     -0.2864
     97  CB        -6.7780   25.1280   -3.1590 C.3   154  TYR154      0.0560
     98  CG        -8.2040   24.7530   -3.4140 C.ar  154  TYR154     -0.0198
     99  CD1       -8.6020   23.4420   -3.5820 C.ar  154  TYR154     -0.0009
    100  CD2       -9.1680   25.7510   -3.4740 C.ar  154  TYR154     -0.0009
    101  CE1       -9.9100   23.1200   -3.8680 C.ar  154  TYR154      0.0417
    102  CE2      -10.4970   25.4190   -3.7200 C.ar  154  TYR154      0.0417
    103  CZ       -10.8570   24.1100   -3.9020 C.ar  154  TYR154      0.1957
    104  OH       -12.1850   23.8480   -4.1970 O.3   154  TYR154     -0.2866
@<TRIPOS>BOND
     1    90    89    1
     2    90    91    1
     3    63    62    2
     4    89    83   am
     5    93    91   am
     6    93    94    1
     7    39    38    1
     8    91    92    2
     9    66    68   ar
    10    66    65   ar
    11    10     9    1
    12    62    61    1
    13    62    70   am
    14    94    95    1
    15    94    97    1
    16    83    84    2
    17    83    82    1
    18    37    38    1
    19    37    36    1
    20   104   103    1
    21    64    61    1
    22    64    65    1
    23    68    69   ar
    24    95    96    2
    25    61    60    1
    26    81    82    1
    27   103   101   ar
    28   103   102   ar
    29    65    67   ar
    30   101    99   ar
    31    71    72    1
    32    71    70    1
    33    71    74    1
    34   102   100   ar
    35    99    98   ar
    36    72    73    2
    37    82    85    1
    38   100    98   ar
    39     9    11    1
    40     9     8    2
    41    98    97    1
    42    75    74    1
    43    75    76    1
    44    80    78    1
    45    69    67   ar
    46    77    78    2
    47    77    76    1
    48    36    35    1
    49    78    79    1
    50    35    32    1
    51     8     7    1
    52     7     6    1
    53    85    86    1
    54    59    57    1
    55    15    14    2
    56    32    31    1
    57    32    33    1
    58    31    21   am
    59    86    88    1
    60    86    87    1
    61    57    58    1
    62    57    56    2
    63     6     5    1
    64    14    13    1
    65    14    19   am
    66    16    17    1
    67    16    13    1
    68    16    18    1
    69    56    55    1
    70    33    34    2
    71     5     2    1
    72    21    20    1
    73    21    22    2
    74    12    13    1
    75    12     3   am
    76    20    19    1
    77    20    23    1
    78    28    26   ar
    79    28    29   ar
    80    26    24   ar
    81     2     3    1
    82     2     1    1
    83    48    47    1
    84    30    29    1
    85    29    27   ar
    86     3     4    2
    87    55    54    1
    88    24    23    1
    89    24    25   ar
    90    54    53    1
    91    27    25   ar
    92    47    46    1
    93    52    51    2
    94    45    46    1
    95    45    44    1
    96    53    50    1
    97    51    50    1
    98    50    49    1
    99    44    41    1
   100    41    40    1
   101    41    42    1
   102    42    43    1
