@<TRIPOS>MOLECULE
tmp/4tsrA00.pdb
 162 154 0 0 0
SMALL
GASTEIGER

@<TRIPOS>ATOM
      1  N        -10.3090   -2.8830  -18.0930 N.3    11  ARG11      -0.1231
      2  CA        -9.4030   -3.5850  -18.9550 C.3    11  ARG11       0.1694
      3  C         -7.9990   -3.1310  -18.6650 C.2    11  ARG11       0.2592
      4  O         -7.7520   -1.9680  -18.2920 O.2    11  ARG11      -0.2718
      5  CB        -9.7080   -3.3250  -20.4220 C.3    11  ARG11       0.0321
      6  CG        -8.9070   -4.2090  -21.3650 C.3    11  ARG11       0.0489
      7  CD        -9.3890   -4.1790  -22.7960 C.3    11  ARG11       0.2205
      8  NE        -8.4670   -4.9550  -23.6290 N.pl3  11  ARG11      -0.0865
      9  CZ        -8.1660   -4.6690  -24.9000 C.cat  11  ARG11       0.5346
     10  NH1       -8.7700   -3.6530  -25.5210 N.pl3  11  ARG11       0.1354
     11  NH2       -7.2920   -5.4150  -25.5810 N.pl3  11  ARG11       0.1354
     12  N         -7.0510   -4.0390  -18.8310 N.am   12  HIS12      -0.1976
     13  CA        -5.6440   -3.6520  -18.7810 C.3    12  HIS12       0.1656
     14  C         -5.3920   -2.5620  -19.8460 C.2    12  HIS12       0.2291
     15  O         -6.1850   -2.3520  -20.7900 O.2    12  HIS12      -0.2864
     16  CB        -4.7350   -4.8630  -19.0450 C.3    12  HIS12       0.0771
     17  CG        -5.0090   -5.4910  -20.3570 C.ar   12  HIS12       0.0820
     18  ND1       -4.5510   -4.9460  -21.5420 N.ar   12  HIS12      -0.2267
     19  CD2       -5.7360   -6.5860  -20.6870 C.ar   12  HIS12       0.1154
     20  CE1       -5.0260   -5.6650  -22.5490 C.ar   12  HIS12       0.1986
     21  NE2       -5.7440   -6.6640  -22.0590 N.ar   12  HIS12      -0.2212
     22  N         -1.1840   -2.9310  -24.6160 N.3    15  ARG15      -0.1245
     23  CA        -0.2770   -4.0430  -24.6130 C.3    15  ARG15       0.1563
     24  C          0.1610   -4.4200  -26.0200 C.2    15  ARG15       0.2260
     25  O         -0.4740   -4.0900  -27.0150 O.2    15  ARG15      -0.2867
     26  CB        -0.9620   -5.2690  -24.0180 C.3    15  ARG15       0.0307
     27  CG        -2.2200   -5.6970  -24.7860 C.3    15  ARG15       0.0489
     28  CD        -2.5380   -7.1760  -24.6400 C.3    15  ARG15       0.2205
     29  NE        -3.7580   -7.4760  -25.3910 N.pl3  15  ARG15      -0.0865
     30  CZ        -3.7790   -7.7470  -26.7030 C.cat  15  ARG15       0.5346
     31  NH1       -4.9550   -8.0030  -27.3460 N.pl3  15  ARG15       0.1354
     32  NH2       -2.6240   -7.7570  -27.3890 N.pl3  15  ARG15       0.1354
     33  N         -0.5790  -10.4630  -28.2840 N.3    18  THR18      -0.1203
     34  CA        -0.4370  -11.7120  -27.5220 C.3    18  THR18       0.1994
     35  C          0.2110  -12.8030  -28.3310 C.2    18  THR18       0.2617
     36  O          0.8400  -13.7060  -27.7660 O.2    18  THR18      -0.2717
     37  CB        -1.8000  -12.2270  -27.0230 C.3    18  THR18       0.1784
     38  OG1       -2.7580  -12.2420  -28.1080 O.3    18  THR18      -0.2211
     39  CG2       -2.3110  -11.3490  -25.8650 C.3    18  THR18       0.0376
     40  N          0.0620  -12.7440  -29.6570 N.am   19  LYS19      -0.1979
     41  CA         0.7260  -13.7280  -30.5270 C.3    19  LYS19       0.1596
     42  C          1.2230  -13.1660  -31.8780 C.2    19  LYS19       0.2287
     43  O          0.8470  -12.0840  -32.2880 O.2    19  LYS19      -0.2864
     44  CB        -0.2040  -14.9320  -30.7610 C.3    19  LYS19       0.0298
     45  CG        -1.5570  -14.5610  -31.3300 C.3    19  LYS19       0.0038
     46  CD        -2.5090  -15.7490  -31.2640 C.3    19  LYS19       0.0206
     47  CE        -3.3270  -15.7540  -29.9930 C.3    19  LYS19       0.1093
     48  NZ        -3.2630  -17.1140  -29.3710 N.3    19  LYS19      -0.1314
     49  N         -1.9640  -11.9400  -14.9210 N.3    85  ASP85      -0.1239
     50  CA        -1.1750  -11.4810  -16.0720 C.3    85  ASP85       0.1674
     51  C         -0.2990  -10.3020  -15.7440 C.2    85  ASP85       0.2266
     52  O         -0.6380   -9.4680  -14.8850 O.2    85  ASP85      -0.2867
     53  CB        -2.0520  -11.1300  -17.2320 C.3    85  ASP85       0.1410
     54  CG        -3.0540  -12.1930  -17.4990 C.2    85  ASP85       0.3668
     55  OD1       -2.8720  -12.9420  -18.4380 O.co2  85  ASP85      -0.2456
     56  OD2       -3.9720  -12.3350  -16.6800 O.co2  85  ASP85      -0.2456
     57  N          0.2010   -7.9080  -17.5970 N.3    87  ARG87      -0.1245
     58  CA        -0.4150   -6.7200  -18.1210 C.3    87  ARG87       0.1563
     59  C         -1.5190   -6.1730  -17.1860 C.2    87  ARG87       0.2260
     60  O         -1.7470   -4.9250  -17.1360 O.2    87  ARG87      -0.2867
     61  CB        -0.9140   -6.9710  -19.5500 C.3    87  ARG87       0.0307
     62  CG        -2.1170   -7.8900  -19.6780 C.3    87  ARG87       0.0489
     63  CD        -2.5790   -7.9460  -21.1400 C.3    87  ARG87       0.2205
     64  NE        -3.4590   -9.0810  -21.4630 N.pl3  87  ARG87      -0.0865
     65  CZ        -3.0620  -10.3140  -21.7830 C.cat  87  ARG87       0.5346
     66  NH1       -1.7740  -10.6220  -21.8170 N.pl3  87  ARG87       0.1354
     67  NH2       -3.9530  -11.2420  -22.0960 N.pl3  87  ARG87       0.1354
     68  N        -12.1240  -14.6770  -36.2970 N.3   201  SER201     -0.1217
     69  CA       -11.1690  -14.4070  -35.2180 C.3   201  SER201      0.1889
     70  C         -9.8650  -13.7050  -35.6400 C.2   201  SER201      0.2288
     71  O         -9.3590  -12.8490  -34.8870 O.2   201  SER201     -0.2866
     72  CB       -10.8320  -15.6570  -34.3890 C.3   201  SER201      0.2089
     73  OG       -10.3480  -16.6240  -35.2670 O.3   201  SER201     -0.2183
     74  N        -10.8710  -10.0080  -35.9120 N.3   204  SER204     -0.1202
     75  CA       -11.0100   -9.4200  -34.5760 C.3   204  SER204      0.2020
     76  C         -9.6300   -9.1160  -33.9930 C.2   204  SER204      0.2618
     77  O         -9.3880   -8.0150  -33.4220 O.2   204  SER204     -0.2717
     78  CB       -11.7620  -10.3680  -33.6640 C.3   204  SER204      0.2103
     79  OG       -11.9940   -9.8210  -32.3950 O.3   204  SER204     -0.2182
     80  N         -8.7110  -10.0540  -34.1530 N.am  205  MET205     -0.1979
     81  CA        -7.3570   -9.8630  -33.5820 C.3   205  MET205      0.1605
     82  C         -6.5960   -8.7670  -34.3230 C.2   205  MET205      0.2287
     83  O         -6.0250   -7.8840  -33.7120 O.2   205  MET205     -0.2864
     84  CB        -6.5810  -11.1560  -33.6440 C.3   205  MET205      0.0413
     85  CG        -5.1780  -11.0450  -33.0890 C.3   205  MET205      0.0598
     86  SD        -4.2160  -12.5490  -33.3730 S.3   205  MET205     -0.1393
     87  CE        -5.0850  -13.7080  -32.3630 C.3   205  MET205      0.0692
     88  N         -7.8570   -5.1140  -33.6840 N.3   208  GLU208     -0.1245
     89  CA        -7.4370   -4.6910  -32.3610 C.3   208  GLU208      0.1567
     90  C         -5.9380   -4.2860  -32.3520 C.2   208  GLU208      0.2260
     91  O         -5.5870   -3.3170  -31.7030 O.2   208  GLU208     -0.2867
     92  CB        -7.7190   -5.7890  -31.3540 C.3   208  GLU208      0.0388
     93  CG        -7.1700   -5.5070  -29.9510 C.3   208  GLU208      0.1160
     94  CD        -8.0000   -4.4520  -29.2260 C.2   208  GLU208      0.3649
     95  OE1       -7.5590   -4.0100  -28.1390 O.co2 208  GLU208     -0.2457
     96  OE2       -9.0900   -4.0570  -29.7570 O.co2 208  GLU208     -0.2457
     97  N        -13.9310   -6.5340  -34.5840 N.3   239  HIS239     -0.1241
     98  CA       -13.5670   -6.8540  -33.2320 C.3   239  HIS239      0.1621
     99  C        -14.8120   -6.8700  -32.3350 C.2   239  HIS239      0.2264
    100  O        -15.1030   -7.8640  -31.6640 O.2   239  HIS239     -0.2867
    101  CB       -12.5920   -5.8300  -32.7550 C.3   239  HIS239      0.0745
    102  CG       -12.1110   -6.0880  -31.3920 C.ar  239  HIS239      0.0817
    103  ND1      -11.2560   -7.1280  -31.1090 N.ar  239  HIS239     -0.2268
    104  CD2      -12.3630   -5.4580  -30.2210 C.ar  239  HIS239      0.1154
    105  CE1      -10.9970   -7.1290  -29.8130 C.ar  239  HIS239      0.1986
    106  NE2      -11.6620   -6.1340  -29.2560 N.ar  239  HIS239     -0.2212
    107  N        -17.1470   -9.9160  -33.0350 N.3   242  GLN242     -0.1231
    108  CA       -16.7860  -11.2060  -32.4770 C.3   242  GLN242      0.1698
    109  C        -17.1040  -11.1720  -30.9570 C.2   242  GLN242      0.2592
    110  O        -17.6360  -12.1260  -30.4190 O.2   242  GLN242     -0.2718
    111  CB       -15.3270  -11.5810  -32.7130 C.3   242  GLN242      0.0381
    112  CG       -14.9630  -12.7660  -31.8250 C.3   242  GLN242      0.0905
    113  CD       -13.5870  -13.3100  -31.9950 C.2   242  GLN242      0.2608
    114  OE1      -13.3560  -14.3010  -32.7170 O.2   242  GLN242     -0.2717
    115  NE2      -12.6690  -12.7000  -31.3540 N.am  242  GLN242     -0.0878
    116  N        -16.8000  -10.0750  -30.2810 N.am  243  PHE243     -0.1976
    117  CA       -17.1520   -9.9570  -28.8640 C.3   243  PHE243      0.1639
    118  C        -18.6930   -9.9830  -28.6060 C.2   243  PHE243      0.2290
    119  O        -19.1410  -10.5820  -27.5920 O.2   243  PHE243     -0.2864
    120  CB       -16.4900   -8.7310  -28.2360 C.3   243  PHE243      0.0560
    121  CG       -15.0640   -8.9890  -27.7740 C.ar  243  PHE243     -0.0200
    122  CD1      -14.0570   -9.2610  -28.6920 C.ar  243  PHE243     -0.0042
    123  CD2      -14.7310   -8.9450  -26.4350 C.ar  243  PHE243     -0.0042
    124  CE1      -12.7620   -9.5210  -28.2950 C.ar  243  PHE243     -0.0003
    125  CE2      -13.4310   -9.2170  -26.0380 C.ar  243  PHE243     -0.0003
    126  CZ       -12.4510   -9.4940  -26.9840 C.ar  243  PHE243     -0.0000
    127  N        -19.4790  -16.8410  -17.2370 N.3   256  ARG256     -0.1245
    128  CA       -18.1280  -16.2780  -17.2060 C.3   256  ARG256      0.1563
    129  C        -17.9500  -15.0290  -16.2840 C.2   256  ARG256      0.2260
    130  O        -16.8300  -14.7540  -15.7520 O.2   256  ARG256     -0.2867
    131  CB       -17.7700  -15.8840  -18.6430 C.3   256  ARG256      0.0307
    132  CG       -16.3760  -16.1800  -19.0450 C.3   256  ARG256      0.0489
    133  CD       -16.2790  -15.9290  -20.5240 C.3   256  ARG256      0.2205
    134  NE       -14.9100  -15.9370  -20.9520 N.pl3 256  ARG256     -0.0865
    135  CZ       -14.0150  -14.9750  -20.7710 C.cat 256  ARG256      0.5346
    136  NH1      -14.2670  -13.8680  -20.0370 N.pl3 256  ARG256      0.1354
    137  NH2      -12.8030  -15.1670  -21.2690 N.pl3 256  ARG256      0.1354
    138  N         -9.7770   -7.8400  -18.1840 N.3   292  HIS292     -0.1226
    139  CA        -9.7230   -8.0800  -19.6260 C.3   292  HIS292      0.1752
    140  C        -10.9280   -7.5390  -20.3510 C.2   292  HIS292      0.2596
    141  O        -11.9840   -7.2940  -19.7600 O.2   292  HIS292     -0.2718
    142  CB        -9.6210   -9.5990  -19.9260 C.3   292  HIS292      0.0759
    143  CG        -8.4020  -10.2210  -19.3500 C.ar  292  HIS292      0.0818
    144  ND1       -7.1710  -10.1110  -19.9500 N.ar  292  HIS292     -0.2268
    145  CD2       -8.1960  -10.8670  -18.1730 C.ar  292  HIS292      0.1154
    146  CE1       -6.2600  -10.6960  -19.1930 C.ar  292  HIS292      0.1986
    147  NE2       -6.8510  -11.1390  -18.0980 N.ar  292  HIS292     -0.2212
    148  N        -10.7880   -7.3680  -21.6560 N.am  293  ASP293     -0.1960
    149  CA       -11.9130   -6.9410  -22.4340 C.3   293  ASP293      0.1840
    150  C        -13.0760   -7.8990  -22.2650 C.2   293  ASP293      0.2622
    151  O        -14.2220   -7.4420  -22.1420 O.2   293  ASP293     -0.2715
    152  CB       -11.6250   -6.7330  -23.9560 C.3   293  ASP293      0.1450
    153  CG       -10.7170   -7.7570  -24.5490 C.2   293  ASP293      0.3671
    154  OD1      -10.0430   -7.3830  -25.5610 O.co2 293  ASP293     -0.2456
    155  OD2      -10.6550   -8.9090  -24.0260 O.co2 293  ASP293     -0.2456
    156  N        -12.7730   -9.1940  -22.2550 N.am  294  THR294     -0.1951
    157  CA       -13.7760  -10.2050  -22.1160 C.3   294  THR294      0.1897
    158  C        -14.5970   -9.9510  -20.8840 C.2   294  THR294      0.2313
    159  O        -15.8290  -10.0320  -20.9320 O.2   294  THR294     -0.2863
    160  CB       -13.1840  -11.6240  -22.0300 C.3   294  THR294      0.1794
    161  OG1      -12.3650  -11.7200  -20.8670 O.3   294  THR294     -0.2208
    162  CG2      -12.3370  -11.9620  -23.2510 C.3   294  THR294      0.0378
@<TRIPOS>BOND
     1    68    69    1
     2    74    75    1
     3    70    69    1
     4    70    71    2
     5    73    72    1
     6    69    72    1
     7    97    98    1
     8    75    76    1
     9    75    78    1
    10    82    83    2
    11    82    81    1
    12    80    76   am
    13    80    81    1
    14    76    77    2
    15    88    89    1
    16    78    79    1
    17    84    81    1
    18    84    85    1
    19    86    85    1
    20    86    87    1
    21    98   101    1
    22    98    99    1
    23   107   108    1
    24   101   102    1
    25   114   113    2
    26   111   108    1
    27   111   112    1
    28   108   109    1
    29    89    90    1
    30    89    92    1
    31    90    91    2
    32    99   100    2
    33    43    42    2
    34   113   112    1
    35   113   115   am
    36    42    41    1
    37   102   103   ar
    38   102   104   ar
    39    92    93    1
    40    45    46    1
    41    45    44    1
    42    46    47    1
    43   103   105   ar
    44   109   110    2
    45   109   116   am
    46    44    41    1
    47    41    40    1
    48   116   117    1
    49   104   106   ar
    50    47    48    1
    51    93    94    1
    52   105   106   ar
    53    96    94   ar
    54    40    35   am
    55    94    95   ar
    56   117   118    1
    57   117   120    1
    58   122   124   ar
    59   122   121   ar
    60   118   119    2
    61    35    36    2
    62    35    34    1
    63   124   126   ar
    64    33    34    1
    65   120   121    1
    66    38    37    1
    67   121   123   ar
    68    34    37    1
    69    32    30    1
    70    31    30    1
    71    37    39    1
    72    25    24    2
    73   126   125   ar
    74    30    29    2
    75   123   125   ar
    76    24    23    1
    77    11     9    1
    78   154   153   ar
    79    10     9    1
    80    29    28    1
    81     9     8    2
    82    27    28    1
    83    27    26    1
    84    22    23    1
    85    23    26    1
    86   153   155   ar
    87   153   152    1
    88   152   149    1
    89     8     7    1
    90   162   160    1
    91     7     6    1
    92    20    21   ar
    93    20    18   ar
    94   149   150    1
    95   149   148    1
    96   150   156   am
    97   150   151    2
    98   156   157    1
    99   157   160    1
   100   157   158    1
   101    67    65    1
   102    21    19   ar
   103   160   161    1
   104    66    65    1
   105    65    64    2
   106   148   140   am
   107    18    17   ar
   108    64    63    1
   109     6     5    1
   110   137   135    1
   111    63    62    1
   112   134   135    2
   113   134   133    1
   114   159   158    2
   115    15    14    2
   116   135   136    1
   117    19    17   ar
   118   133   132    1
   119     5     2    1
   120    17    16    1
   121   140   141    2
   122   140   139    1
   123   144   143   ar
   124   144   146   ar
   125   142   139    1
   126   142   143    1
   127    14    13    1
   128    62    61    1
   129   139   138    1
   130    61    58    1
   131   143   145   ar
   132   146   147   ar
   133   132   131    1
   134    16    13    1
   135     2     3    1
   136     2     1    1
   137    12    13    1
   138    12     3   am
   139     3     4    2
   140   131   128    1
   141    55    54   ar
   142   145   147   ar
   143    58    57    1
   144    58    59    1
   145    54    53    1
   146    54    56   ar
   147   127   128    1
   148    53    50    1
   149   128   129    1
   150    59    60    2
   151   129   130    2
   152    50    51    1
   153    50    49    1
   154    51    52    2
