@<TRIPOS>MOLECULE
tmp/4tsxA00.pdb
 86 85 0 0 0
SMALL
GASTEIGER

@<TRIPOS>ATOM
      1  N        -46.5940   13.1140   20.6400 N.3    40  GLN40      -0.1245
      2  CA       -46.4540   12.2330   21.8040 C.3    40  GLN40       0.1566
      3  C        -45.6630   10.9610   21.4780 C.2    40  GLN40       0.2260
      4  O        -44.8060   10.5460   22.2620 O.2    40  GLN40      -0.2867
      5  CB       -47.8110   11.8330   22.4210 C.3    40  GLN40       0.0367
      6  CG       -48.6700   12.9810   22.9620 C.3    40  GLN40       0.0905
      7  CD       -49.4540   12.5970   24.2180 C.2    40  GLN40       0.2608
      8  OE1      -49.6250   11.4170   24.5280 O.2    40  GLN40      -0.2717
      9  NE2      -49.9270   13.6030   24.9520 N.am   40  GLN40      -0.0878
     10  N        -41.9710   11.9990   20.9770 N.3    43  ALA43      -0.1231
     11  CA       -41.3550   12.3560   22.2570 C.3    43  ALA43       0.1694
     12  C        -40.9860   11.1160   23.0130 C.2    43  ALA43       0.2592
     13  O        -39.8730   10.9900   23.5340 O.2    43  ALA43      -0.2718
     14  CB       -42.3000   13.2630   23.0770 C.3    43  ALA43       0.0304
     15  N        -41.9260   10.1760   23.0990 N.am   44  TYR44      -0.1976
     16  CA       -41.6680    8.9670   23.8170 C.3    44  TYR44       0.1639
     17  C        -40.5320    8.1780   23.2010 C.2    44  TYR44       0.2290
     18  O        -39.7030    7.5970   23.9080 O.2    44  TYR44      -0.2864
     19  CB       -42.9470    8.1300   23.8490 C.3    44  TYR44       0.0560
     20  CG       -42.8120    6.8750   24.6490 C.ar   44  TYR44      -0.0198
     21  CD1      -42.6360    6.9170   26.0450 C.ar   44  TYR44      -0.0009
     22  CD2      -42.8940    5.6320   24.0210 C.ar   44  TYR44      -0.0009
     23  CE1      -42.5370    5.7400   26.7730 C.ar   44  TYR44       0.0417
     24  CE2      -42.7830    4.4500   24.7350 C.ar   44  TYR44       0.0417
     25  CZ       -42.6050    4.5150   26.1060 C.ar   44  TYR44       0.1957
     26  OH       -42.4830    3.3480   26.7970 O.3    44  TYR44      -0.2866
     27  N        -37.2100    9.7340   24.1330 N.3    47  LEU47      -0.1245
     28  CA       -36.7850    9.3970   25.5000 C.3    47  LEU47       0.1561
     29  C        -36.1330    8.0080   25.6090 C.2    47  LEU47       0.2260
     30  O        -35.1010    7.8180   26.2870 O.2    47  LEU47      -0.2867
     31  CB       -37.9650    9.4540   26.4060 C.3    47  LEU47       0.0270
     32  CG       -38.3580   10.7020   27.2030 C.3    47  LEU47       0.0019
     33  CD1      -37.5040   11.9460   27.1640 C.3    47  LEU47       0.0001
     34  CD2      -39.8470   10.9690   27.2550 C.3    47  LEU47       0.0001
     35  N        -45.0070   20.7220   21.5620 N.3    69  THR69      -0.1203
     36  CA       -44.4720   21.0530   22.8720 C.3    69  THR69       0.1994
     37  C        -43.9970   19.7370   23.5340 C.2    69  THR69       0.2618
     38  O        -43.0400   19.7130   24.2880 O.2    69  THR69      -0.2717
     39  CB       -45.4730   21.9030   23.7200 C.3    69  THR69       0.1784
     40  OG1      -46.1950   21.0930   24.6330 O.3    69  THR69      -0.2211
     41  CG2      -46.4730   22.5740   22.8650 C.3    69  THR69       0.0376
     42  N        -44.6260   18.6390   23.1430 N.am   70  THR70      -0.1952
     43  CA       -44.3710   17.3510   23.7130 C.3    70  THR70       0.1897
     44  C        -42.9710   16.9120   23.2760 C.2    70  THR70       0.2313
     45  O        -42.1470   16.5230   24.1260 O.2    70  THR70      -0.2863
     46  CB       -45.5550   16.4380   23.2910 C.3    70  THR70       0.1794
     47  OG1      -46.2160   15.8550   24.4110 O.3    70  THR70      -0.2208
     48  CG2      -45.2250   15.4960   22.3030 C.3    70  THR70       0.0378
     49  N        -40.3450   19.1670   24.9470 N.3    73  ALA73      -0.1231
     50  CA       -40.1580   18.7610   26.3600 C.3    73  ALA73       0.1694
     51  C        -39.2090   17.5370   26.4290 C.2    73  ALA73       0.2591
     52  O        -38.3330   17.4510   27.3080 O.2    73  ALA73      -0.2718
     53  CB       -41.5130   18.4390   27.0030 C.3    73  ALA73       0.0304
     54  N        -39.3940   16.5610   25.5300 N.am   74  ALA74      -0.1980
     55  CA       -38.5330   15.3640   25.5740 C.3    74  ALA74       0.1597
     56  C        -37.1100   15.8310   25.3170 C.2    74  ALA74       0.2287
     57  O        -36.1060   15.3140   25.8660 O.2    74  ALA74      -0.2864
     58  CB       -38.9550   14.2940   24.5350 C.3    74  ALA74       0.0319
     59  N        -35.7500   18.8970   25.6850 N.3    75  TRP75      -0.1227
     60  CA       -35.3030   19.6350   26.8950 C.3    75  TRP75       0.1737
     61  C        -34.8370   18.6910   28.0050 C.2    75  TRP75       0.2595
     62  O        -33.7330   18.8420   28.5390 O.2    75  TRP75      -0.2718
     63  CB       -36.4470   20.5260   27.3840 C.3    75  TRP75       0.0564
     64  CG       -36.2040   21.0340   28.7470 C.ar   75  TRP75       0.0003
     65  CD1      -35.3570   22.0850   29.1190 C.ar   75  TRP75       0.0946
     66  CD2      -36.7620   20.5230   29.9510 C.ar   75  TRP75       0.0152
     67  NE1      -35.4050   22.2540   30.4820 N.ar   75  TRP75      -0.2442
     68  CE2      -36.2330   21.3090   31.0280 C.ar   75  TRP75       0.0810
     69  CE3      -37.6530   19.4760   30.2430 C.ar   75  TRP75       0.0012
     70  CZ2      -36.5910   21.0900   32.3600 C.ar   75  TRP75       0.0191
     71  CZ3      -38.0090   19.2680   31.5980 C.ar   75  TRP75       0.0001
     72  CH2      -37.4530   20.0550   32.6230 C.ar   75  TRP75       0.0015
     73  N        -35.6470   17.6870   28.3310 N.am   76  TRP76      -0.1976
     74  CA       -35.3380   16.8830   29.5060 C.3    76  TRP76       0.1640
     75  C        -34.0930   16.0220   29.2670 C.2    76  TRP76       0.2290
     76  O        -33.2310   15.8800   30.1500 O.2    76  TRP76      -0.2864
     77  CB       -36.5540   16.0160   29.9310 C.3    76  TRP76       0.0576
     78  CG       -36.2500   15.2770   31.2090 C.ar   76  TRP76       0.0006
     79  CD1      -36.4020   15.7750   32.4850 C.ar   76  TRP76       0.0946
     80  CD2      -35.6520   13.9710   31.3450 C.ar   76  TRP76       0.0152
     81  NE1      -35.9670   14.8360   33.4050 N.ar   76  TRP76      -0.2442
     82  CE2      -35.5100   13.7220   32.7430 C.ar   76  TRP76       0.0810
     83  CE3      -35.2390   12.9740   30.4270 C.ar   76  TRP76       0.0012
     84  CZ2      -34.9920   12.5200   33.2500 C.ar   76  TRP76       0.0191
     85  CZ3      -34.7110   11.7610   30.9390 C.ar   76  TRP76       0.0001
     86  CH2      -34.5990   11.5560   32.3490 C.ar   76  TRP76       0.0015
@<TRIPOS>BOND
     1     1     2    1
     2    10    11    1
     3     3     2    1
     4     3     4    2
     5    35    36    1
     6     2     5    1
     7    11    12    1
     8    11    14    1
     9    48    46    1
    10     5     6    1
    11    41    39    1
    12    36    37    1
    13    36    39    1
    14     6     7    1
    15    12    15   am
    16    12    13    2
    17    15    16    1
    18    42    37   am
    19    42    43    1
    20    17    16    1
    21    17    18    2
    22    44    43    1
    23    44    45    2
    24    46    43    1
    25    46    47    1
    26    37    38    2
    27    39    40    1
    28    16    19    1
    29    19    20    1
    30    22    20   ar
    31    22    24   ar
    32    27    28    1
    33     7     8    2
    34     7     9   am
    35    58    55    1
    36    20    21   ar
    37    24    25   ar
    38    49    50    1
    39    56    55    1
    40    56    57    2
    41    28    29    1
    42    28    31    1
    43    54    55    1
    44    54    51   am
    45    29    30    2
    46    59    60    1
    47    21    23   ar
    48    25    23   ar
    49    25    26    1
    50    50    51    1
    51    50    53    1
    52    31    32    1
    53    51    52    2
    54    60    63    1
    55    60    61    1
    56    33    32    1
    57    32    34    1
    58    63    64    1
    59    61    73   am
    60    61    62    2
    61    73    74    1
    62    64    65   ar
    63    64    66   ar
    64    65    67   ar
    65    75    74    1
    66    75    76    2
    67    74    77    1
    68    77    78    1
    69    66    69   ar
    70    66    68   ar
    71    69    71   ar
    72    83    85   ar
    73    83    80   ar
    74    67    68   ar
    75    85    86   ar
    76    68    70   ar
    77    78    80   ar
    78    78    79   ar
    79    80    82   ar
    80    71    72   ar
    81    86    84   ar
    82    70    72   ar
    83    79    81   ar
    84    82    84   ar
    85    82    81   ar
