@<TRIPOS>MOLECULE
tmp/4tsyD03.pdb
 83 79 0 0 0
SMALL
GASTEIGER

@<TRIPOS>ATOM
      1  N       -134.6970   12.6680   38.1180 N.3    22  ALA22      -0.1231
      2  CA      -134.6050   13.2170   39.4660 C.3    22  ALA22       0.1694
      3  C       -133.3220   13.9980   39.6320 C.2    22  ALA22       0.2591
      4  O       -133.3680   15.1940   39.8640 O.2    22  ALA22      -0.2718
      5  CB      -134.6630   12.1080   40.4950 C.3    22  ALA22       0.0304
      6  N       -132.1860   13.3290   39.4650 N.am   23  LEU23      -0.1980
      7  CA      -130.8810   13.9760   39.6290 C.3    23  LEU23       0.1596
      8  C       -130.7340   15.1760   38.6860 C.2    23  LEU23       0.2287
      9  O       -129.9800   16.1260   38.9630 O.2    23  LEU23      -0.2864
     10  CB      -129.7420   12.9880   39.3550 C.3    23  LEU23       0.0297
     11  CG      -129.8440   11.5740   39.9310 C.3    23  LEU23       0.0022
     12  CD1     -128.6230   10.7550   39.5590 C.3    23  LEU23       0.0001
     13  CD2     -130.0580   11.6120   41.4430 C.3    23  LEU23       0.0001
     14  N       -132.2130   18.3500   40.4340 N.3    26  VAL26      -0.1245
     15  CA      -131.5300   18.9590   41.5490 C.3    26  VAL26       0.1561
     16  C       -130.8080   20.1460   40.9770 C.2    26  VAL26       0.2260
     17  O       -130.0560   19.9980   40.0210 O.2    26  VAL26      -0.2867
     18  CB      -130.5220   18.0050   42.2090 C.3    26  VAL26       0.0252
     19  CG1     -129.8480   18.6710   43.4010 C.3    26  VAL26       0.0019
     20  CG2     -131.2280   16.7380   42.6540 C.3    26  VAL26       0.0019
     21  N       -128.2360   23.3790   41.8660 N.3    28  ARG28      -0.1245
     22  CA      -127.3290   24.0110   42.7730 C.3    28  ARG28       0.1563
     23  C       -126.9060   25.2540   42.0590 C.2    28  ARG28       0.2260
     24  O       -126.4610   25.1760   40.9320 O.2    28  ARG28      -0.2867
     25  CB      -126.1250   23.1250   42.9990 C.3    28  ARG28       0.0307
     26  CG      -126.4520   21.8790   43.7820 C.3    28  ARG28       0.0489
     27  CD      -126.6600   22.2300   45.2310 C.3    28  ARG28       0.2205
     28  NE      -126.9510   21.0510   46.0320 N.pl3  28  ARG28      -0.0865
     29  CZ      -128.1600   20.5360   46.1840 C.cat  28  ARG28       0.5346
     30  NH1     -129.1870   21.0580   45.5740 N.pl3  28  ARG28       0.1354
     31  NH2     -128.3400   19.4860   46.9550 N.pl3  28  ARG28       0.1354
     32  N       -125.3320   17.4930   50.3840 N.3   107  TYR107     -0.1227
     33  CA      -125.3530   18.1430   51.6910 C.3   107  TYR107      0.1736
     34  C       -125.2060   17.2020   52.8670 C.2   107  TYR107      0.2595
     35  O       -125.0110   17.6660   53.9690 O.2   107  TYR107     -0.2718
     36  CB      -126.6120   18.9820   51.8670 C.3   107  TYR107      0.0548
     37  CG      -126.4930   20.2910   51.1730 C.ar  107  TYR107     -0.0200
     38  CD1     -125.5740   21.2390   51.6130 C.ar  107  TYR107     -0.0009
     39  CD2     -127.2730   20.5870   50.0710 C.ar  107  TYR107     -0.0009
     40  CE1     -125.4250   22.4440   50.9730 C.ar  107  TYR107      0.0417
     41  CE2     -127.1390   21.7970   49.4230 C.ar  107  TYR107      0.0417
     42  CZ      -126.2050   22.7190   49.8650 C.ar  107  TYR107      0.1957
     43  OH      -126.0560   23.9270   49.2160 O.3   107  TYR107     -0.2866
     44  N       -125.2770   15.8910   52.6440 N.am  108  ASN108     -0.1974
     45  CA      -124.9180   14.9360   53.6890 C.3   108  ASN108      0.1688
     46  C       -123.4730   15.0440   54.0940 C.2   108  ASN108      0.2292
     47  O       -123.1470   14.9950   55.2760 O.2   108  ASN108     -0.2864
     48  CB      -125.1430   13.5140   53.2270 C.3   108  ASN108      0.1181
     49  CG      -126.5960   13.2140   52.9910 C.2   108  ASN108      0.2629
     50  OD1     -127.4310   13.4360   53.8640 O.2   108  ASN108     -0.2716
     51  ND2     -126.9050   12.6690   51.8240 N.am  108  ASN108     -0.0877
     52  N       -121.0660   21.2810   53.0740 N.3   111  SER111     -0.1217
     53  CA      -121.8250   22.4860   53.3570 C.3   111  SER111      0.1889
     54  C       -121.4540   23.5570   52.3840 C.2   111  SER111      0.2288
     55  O       -120.4670   23.4340   51.6680 O.2   111  SER111     -0.2866
     56  CB      -121.4500   23.0740   54.7180 C.3   111  SER111      0.2089
     57  OG      -121.9560   22.3210   55.7850 O.3   111  SER111     -0.2183
     58  N       -127.4910   29.1080   53.5280 N.3   163  SER163     -0.1202
     59  CA      -127.1220   27.7230   53.6890 C.3   163  SER163      0.2020
     60  C       -127.6600   26.7490   52.6770 C.2   163  SER163      0.2619
     61  O       -127.3430   25.5800   52.7570 O.2   163  SER163     -0.2717
     62  CB      -127.5590   27.2640   55.0730 C.3   163  SER163      0.2103
     63  OG      -128.9650   27.1970   55.2200 O.3   163  SER163     -0.2182
     64  N       -128.4730   27.2210   51.7400 N.am  164  SER164     -0.1937
     65  CA      -129.2300   26.3350   50.8240 C.3   164  SER164      0.2055
     66  C       -128.5210   26.0670   49.5020 C.2   164  SER164      0.2644
     67  O       -127.4950   26.6550   49.2140 O.2   164  SER164     -0.2714
     68  CB      -130.6420   26.9130   50.5370 C.3   164  SER164      0.2130
     69  OG      -130.6500   27.8090   49.4370 O.3   164  SER164     -0.2179
     70  N       -129.1180   25.1970   48.6940 N.am  165  GLY165     -0.1939
     71  CA      -128.6820   24.9620   47.3100 C.3   165  GLY165      0.2014
     72  C       -128.9200   26.1130   46.3480 C.2   165  GLY165      0.2638
     73  O       -128.3030   26.1730   45.3090 O.2   165  GLY165     -0.2714
     74  N       -129.8100   27.0210   46.7100 N.am  166  HIS166     -0.1973
     75  CA      -130.0550   28.2440   45.9760 C.3   166  HIS166      0.1656
     76  C       -129.3160   29.3650   46.6780 C.2   166  HIS166      0.2291
     77  O       -129.9280   30.3070   47.2420 O.2   166  HIS166     -0.2864
     78  CB      -131.5400   28.5350   45.9570 C.3   166  HIS166      0.0771
     79  CG      -132.3230   27.5850   45.1140 C.ar  166  HIS166      0.0820
     80  ND1     -133.0820   28.0200   44.0560 N.ar  166  HIS166     -0.2267
     81  CD2     -132.4930   26.2390   45.1770 C.ar  166  HIS166      0.1154
     82  CE1     -133.6990   26.9880   43.5050 C.ar  166  HIS166      0.1986
     83  NE2     -133.3670   25.8960   44.1720 N.ar  166  HIS166     -0.2212
@<TRIPOS>BOND
     1     1     2    1
     2     8     9    2
     3     8     7    1
     4    10     7    1
     5    10    11    1
     6     6     7    1
     7     6     3   am
     8     2     3    1
     9     2     5    1
    10    12    11    1
    11     3     4    2
    12    11    13    1
    13    17    16    2
    14    14    15    1
    15    24    23    2
    16    16    15    1
    17    15    18    1
    18    21    22    1
    19    23    22    1
    20    18    20    1
    21    18    19    1
    22    22    25    1
    23    25    26    1
    24    82    80   ar
    25    82    83   ar
    26    26    27    1
    27    80    79   ar
    28    83    81   ar
    29    79    81   ar
    30    79    78    1
    31    27    28    1
    32    73    72    2
    33    30    29    1
    34    78    75    1
    35    75    76    1
    36    75    74    1
    37    28    29    2
    38    29    31    1
    39    72    74   am
    40    72    71    1
    41    76    77    2
    42    71    70    1
    43    70    66   am
    44    67    66    2
    45    43    42    1
    46    41    42   ar
    47    41    39   ar
    48    69    68    1
    49    66    65    1
    50    42    40   ar
    51    39    37   ar
    52    32    33    1
    53    68    65    1
    54    65    64    1
    55    40    38   ar
    56    37    38   ar
    57    37    36    1
    58    55    54    2
    59    33    36    1
    60    33    34    1
    61    64    60   am
    62    51    49   am
    63    54    53    1
    64    44    34   am
    65    44    45    1
    66    60    61    2
    67    60    59    1
    68    34    35    2
    69    49    48    1
    70    49    50    2
    71    52    53    1
    72    48    45    1
    73    53    56    1
    74    58    59    1
    75    59    62    1
    76    45    46    1
    77    46    47    2
    78    56    57    1
    79    62    63    1
