@<TRIPOS>MOLECULE
tmp/4tsyD01.pdb
 135 135 0 0 0
SMALL
GASTEIGER

@<TRIPOS>ATOM
      1  N       -114.0880   24.9010   40.1250 N.3    50  ARG50      -0.1231
      2  CA      -113.7210   23.5630   40.5000 C.3    50  ARG50       0.1694
      3  C       -114.8230   22.5750   40.1940 C.2    50  ARG50       0.2592
      4  O       -114.5760   21.3940   39.9650 O.2    50  ARG50      -0.2718
      5  CB      -113.4520   23.5380   41.9790 C.3    50  ARG50       0.0321
      6  CG      -112.6450   22.2840   42.2690 C.3    50  ARG50       0.0489
      7  CD      -113.5210   21.2460   42.8430 C.3    50  ARG50       0.2205
      8  NE      -112.8730   20.0050   43.1890 N.pl3  50  ARG50      -0.0865
      9  CZ      -113.3090   18.8350   42.7750 C.cat  50  ARG50       0.5346
     10  NH1     -114.3270   18.7560   41.9250 N.pl3  50  ARG50       0.1354
     11  NH2     -112.7440   17.7400   43.2230 N.pl3  50  ARG50       0.1354
     12  N       -116.0510   23.0780   40.2980 N.am   51  SER51      -0.1952
     13  CA      -117.2530   22.3320   39.9560 C.3    51  SER51       0.1924
     14  C       -118.2170   23.2980   39.3130 C.2    51  SER51       0.2314
     15  O       -118.2720   24.4670   39.6900 O.2    51  SER51      -0.2863
     16  CB      -117.8890   21.6970   41.1910 C.3    51  SER51       0.2116
     17  OG      -117.1850   20.5280   41.5810 O.3    51  SER51      -0.2180
     18  N       -123.8640   14.4340   39.7790 N.3    80  ALA80      -0.1231
     19  CA      -123.9200   14.7590   41.2040 C.3    80  ALA80       0.1694
     20  C       -122.7360   15.6550   41.5650 C.2    80  ALA80       0.2593
     21  O       -121.9210   15.3090   42.4070 O.2    80  ALA80      -0.2718
     22  CB      -123.8920   13.4910   42.0340 C.3    80  ALA80       0.0304
     23  N       -122.6540   16.7980   40.8950 N.am   81  THR81      -0.1939
     24  CA      -121.6350   17.7780   41.1720 C.3    81  THR81       0.2028
     25  C       -122.3620   19.0540   41.5180 C.2    81  THR81       0.2642
     26  O       -123.5260   19.2360   41.1550 O.2    81  THR81      -0.2714
     27  CB      -120.6710   18.0330   39.9710 C.3    81  THR81       0.1808
     28  OG1     -121.2770   18.8720   38.9360 O.3    81  THR81      -0.2208
     29  CG2     -120.1690   16.7290   39.3900 C.3    81  THR81       0.0379
     30  N       -121.6630   19.9560   42.1930 N.am   82  GLY82      -0.1954
     31  CA      -122.2120   21.2550   42.5190 C.3    82  GLY82       0.1869
     32  C       -121.6290   22.3930   41.6910 C.2    82  GLY82       0.2309
     33  O       -121.3720   22.2540   40.4920 O.2    82  GLY82      -0.2863
     34  N       -118.6940   25.3700   42.5090 N.3    84  VAL84      -0.1245
     35  CA      -117.6040   25.6090   43.4310 C.3    84  VAL84       0.1561
     36  C       -116.4550   26.2650   42.6900 C.2    84  VAL84       0.2260
     37  O       -116.0470   25.7630   41.6370 O.2    84  VAL84      -0.2867
     38  CB      -117.0580   24.2780   43.9450 C.3    84  VAL84       0.0252
     39  CG1     -115.8500   24.5060   44.8290 C.3    84  VAL84       0.0019
     40  CG2     -118.1560   23.5220   44.6630 C.3    84  VAL84       0.0019
     41  N       -118.5680   27.7860   47.5750 N.3   102  SER102     -0.1217
     42  CA      -118.7770   26.3480   47.4430 C.3   102  SER102      0.1889
     43  C       -120.2450   26.0090   47.7650 C.2   102  SER102      0.2288
     44  O       -120.7410   26.3140   48.8400 O.2   102  SER102     -0.2866
     45  CB      -117.8100   25.5750   48.3260 C.3   102  SER102      0.2089
     46  OG      -117.9300   24.1750   48.1320 O.3   102  SER102     -0.2183
     47  N       -122.2880   22.6410   47.3360 N.3   104  PRO104     -0.2102
     48  CA      -122.0650   21.2580   46.9350 C.3   104  PRO104      0.1504
     49  C       -123.3270   20.5460   46.5780 C.2   104  PRO104      0.2576
     50  O       -124.3920   20.9810   46.9770 O.2   104  PRO104     -0.2718
     51  CB      -121.4910   20.6320   48.1980 C.3   104  PRO104      0.0282
     52  CG      -122.1270   21.3920   49.3020 C.3   104  PRO104      0.0208
     53  CD      -122.3010   22.7960   48.7950 C.3   104  PRO104      0.0893
     54  N       -123.1930   19.4450   45.8500 N.am  105  TYR105     -0.1963
     55  CA      -124.3390   18.6170   45.5250 C.3   105  TYR105      0.1771
     56  C       -124.8200   17.9010   46.7650 C.2   105  TYR105      0.2619
     57  O       -125.9620   18.0790   47.1570 O.2   105  TYR105     -0.2715
     58  CB      -124.0090   17.5840   44.4590 C.3   105  TYR105      0.0574
     59  CG      -125.2220   16.9210   43.8200 C.ar  105  TYR105     -0.0198
     60  CD1     -125.6490   15.6500   44.2140 C.ar  105  TYR105     -0.0009
     61  CD2     -125.9260   17.5550   42.7880 C.ar  105  TYR105     -0.0009
     62  CE1     -126.7420   15.0390   43.6130 C.ar  105  TYR105      0.0417
     63  CE2     -127.0140   16.9500   42.1800 C.ar  105  TYR105      0.0417
     64  CZ      -127.4250   15.6980   42.5990 C.ar  105  TYR105      0.1957
     65  OH      -128.4970   15.0910   41.9730 O.3   105  TYR105     -0.2866
     66  N       -123.9460   17.1210   47.4070 N.am  106  ASP106     -0.1971
     67  CA      -124.3550   16.2310   48.5210 C.3   106  ASP106      0.1709
     68  C       -124.2420   16.8910   49.9180 C.2   106  ASP106      0.2293
     69  O       -123.2180   16.8180   50.5760 O.2   106  ASP106     -0.2864
     70  CB      -123.5440   14.9260   48.4510 C.3   106  ASP106      0.1436
     71  CG      -124.1690   13.7850   49.2440 C.2   106  ASP106      0.3671
     72  OD1     -124.8800   14.0550   50.2260 O.co2 106  ASP106     -0.2456
     73  OD2     -123.9140   12.6110   48.9010 O.co2 106  ASP106     -0.2456
     74  N       -122.6160   15.1620   53.0870 N.3   109  TRP109     -0.1227
     75  CA      -121.1690   15.1600   53.2780 C.3   109  TRP109      0.1737
     76  C       -120.5490   16.5710   53.3110 C.2   109  TRP109      0.2595
     77  O       -119.4610   16.7370   53.8510 O.2   109  TRP109     -0.2718
     78  CB      -120.4940   14.2940   52.1960 C.3   109  TRP109      0.0564
     79  CG      -121.0250   12.8730   52.1350 C.ar  109  TRP109      0.0003
     80  CD1     -121.7730   12.3210   51.1430 C.ar  109  TRP109      0.0946
     81  CD2     -120.8610   11.8540   53.1210 C.ar  109  TRP109      0.0152
     82  NE1     -122.0860   11.0170   51.4400 N.ar  109  TRP109     -0.2442
     83  CE2     -121.5370   10.7040   52.6530 C.ar  109  TRP109      0.0810
     84  CE3     -120.1950   11.7940   54.3510 C.ar  109  TRP109      0.0012
     85  CZ2     -121.5750    9.5090   53.3770 C.ar  109  TRP109      0.0191
     86  CZ3     -120.2300   10.6020   55.0720 C.ar  109  TRP109      0.0001
     87  CH2     -120.9180    9.4760   54.5820 C.ar  109  TRP109      0.0015
     88  N       -121.2430   17.5820   52.7780 N.am  110  TYR110     -0.1976
     89  CA      -120.6580   18.9250   52.6190 C.3   110  TYR110      0.1639
     90  C       -121.6130   20.0820   52.9470 C.2   110  TYR110      0.2290
     91  O       -122.7970   19.8800   53.0910 O.2   110  TYR110     -0.2864
     92  CB      -120.1700   19.0900   51.1870 C.3   110  TYR110      0.0560
     93  CG      -119.1200   18.0880   50.7260 C.ar  110  TYR110     -0.0198
     94  CD1     -117.8180   18.1490   51.1980 C.ar  110  TYR110     -0.0009
     95  CD2     -119.4190   17.1080   49.7710 C.ar  110  TYR110     -0.0009
     96  CE1     -116.8580   17.2540   50.7520 C.ar  110  TYR110      0.0417
     97  CE2     -118.4620   16.2100   49.3290 C.ar  110  TYR110      0.0417
     98  CZ      -117.1940   16.2960   49.8270 C.ar  110  TYR110      0.1957
     99  OH      -116.2470   15.4370   49.3980 O.3   110  TYR110     -0.2866
    100  N       -107.8440   27.8360   44.7980 N.3   130  TYR130     -0.1241
    101  CA      -109.0730   27.3090   45.3720 C.3   130  TYR130      0.1605
    102  C       -108.7230   26.4870   46.5740 C.2   130  TYR130      0.2264
    103  O       -109.2920   26.7000   47.6350 O.2   130  TYR130     -0.2867
    104  CB      -109.8730   26.4940   44.3470 C.3   130  TYR130      0.0534
    105  CG      -110.6040   25.3240   44.9380 C.ar  130  TYR130     -0.0201
    106  CD1     -111.8100   25.4980   45.5940 C.ar  130  TYR130     -0.0009
    107  CD2     -110.0720   24.0350   44.8530 C.ar  130  TYR130     -0.0009
    108  CE1     -112.4800   24.4180   46.1410 C.ar  130  TYR130      0.0417
    109  CE2     -110.7260   22.9530   45.3870 C.ar  130  TYR130      0.0417
    110  CZ      -111.9250   23.1480   46.0290 C.ar  130  TYR130      0.1957
    111  OH      -112.5740   22.0760   46.5700 O.3   130  TYR130     -0.2866
    112  N       -110.0490   27.2800   50.2740 N.3   134  TYR134     -0.1227
    113  CA      -110.9760   26.3050   50.7840 C.3   134  TYR134      0.1736
    114  C       -110.4440   25.5510   51.9770 C.2   134  TYR134      0.2595
    115  O       -111.1350   25.4420   52.9810 O.2   134  TYR134     -0.2718
    116  CB      -111.3240   25.2900   49.7050 C.3   134  TYR134      0.0548
    117  CG      -112.5250   24.4410   50.0430 C.ar  134  TYR134     -0.0200
    118  CD1     -113.8170   24.9080   49.8340 C.ar  134  TYR134     -0.0009
    119  CD2     -112.3680   23.1750   50.5810 C.ar  134  TYR134     -0.0009
    120  CE1     -114.9220   24.1370   50.1620 C.ar  134  TYR134      0.0417
    121  CE2     -113.4710   22.3870   50.9070 C.ar  134  TYR134      0.0417
    122  CZ      -114.7510   22.8750   50.7000 C.ar  134  TYR134      0.1957
    123  OH      -115.8530   22.1080   51.0230 O.3   134  TYR134     -0.2866
    124  N       -109.2360   25.0090   51.8660 N.am  135  TYR135     -0.1976
    125  CA      -108.7040   24.1130   52.8950 C.3   135  TYR135      0.1639
    126  C       -107.8320   24.7720   53.9590 C.2   135  TYR135      0.2290
    127  O       -107.7920   24.2920   55.0880 O.2   135  TYR135     -0.2864
    128  CB      -107.9340   22.9700   52.2600 C.3   135  TYR135      0.0560
    129  CG      -108.8320   22.0420   51.5090 C.ar  135  TYR135     -0.0198
    130  CD1     -109.6750   21.1980   52.1790 C.ar  135  TYR135     -0.0009
    131  CD2     -108.8270   22.0030   50.1410 C.ar  135  TYR135     -0.0009
    132  CE1     -110.5000   20.3340   51.5120 C.ar  135  TYR135      0.0417
    133  CE2     -109.6510   21.1470   49.4470 C.ar  135  TYR135      0.0417
    134  CZ      -110.4930   20.3140   50.1420 C.ar  135  TYR135      0.1957
    135  OH      -111.3580   19.4680   49.4690 O.3   135  TYR135     -0.2866
@<TRIPOS>BOND
     1    28    27    1
     2    14    15    2
     3    14    13    1
     4    29    27    1
     5    18    19    1
     6    13    12    1
     7    13    16    1
     8     4     3    2
     9    27    24    1
    10     1     2    1
    11     3    12   am
    12     3     2    1
    13    33    32    2
    14     2     5    1
    15    23    24    1
    16    23    20   am
    17    26    25    2
    18    24    25    1
    19    16    17    1
    20    19    20    1
    21    19    22    1
    22    25    30   am
    23    20    21    2
    24    37    36    2
    25    32    31    1
    26    10     9    1
    27    65    64    1
    28     5     6    1
    29    63    64   ar
    30    63    61   ar
    31    30    31    1
    32     6     7    1
    33    34    35    1
    34    64    62   ar
    35    36    35    1
    36     9     8    2
    37     9    11    1
    38    61    59   ar
    39     7     8    1
    40    35    38    1
    41    62    60   ar
    42    59    60   ar
    43    59    58    1
    44    38    40    1
    45    38    39    1
    46   104   105    1
    47   104   101    1
    48    58    55    1
    49   100   101    1
    50   107   105   ar
    51   107   109   ar
    52   105   106   ar
    53   101   102    1
    54   109   110   ar
    55    55    54    1
    56    55    56    1
    57   106   108   ar
    58    54    49   am
    59   110   108   ar
    60   110   111    1
    61   102   103    2
    62    49    48    1
    63    49    50    2
    64    56    57    2
    65    56    66   am
    66    48    47    1
    67    48    51    1
    68    47    53    1
    69    66    67    1
    70    42    41    1
    71    42    43    1
    72    42    45    1
    73    43    44    2
    74    46    45    1
    75    51    52    1
    76    70    67    1
    77    70    71    1
    78    67    68    1
    79    53    52    1
    80    73    71   ar
    81    71    72   ar
    82    97    95   ar
    83    97    98   ar
    84    99    98    1
    85   133   131   ar
    86   133   134   ar
    87   135   134    1
    88   116   117    1
    89   116   113    1
    90    95    93   ar
    91    98    96   ar
    92   118   117   ar
    93   118   120   ar
    94    68    69    2
    95   117   119   ar
    96   131   129   ar
    97   134   132   ar
    98   120   122   ar
    99   112   113    1
   100   119   121   ar
   101   122   121   ar
   102   122   123    1
   103    93    92    1
   104    93    94   ar
   105    96    94   ar
   106   113   114    1
   107    80    82   ar
   108    80    79   ar
   109    92    89    1
   110    82    83   ar
   111   129   130   ar
   112   129   128    1
   113   132   130   ar
   114   124   114   am
   115   124   125    1
   116   114   115    2
   117    79    78    1
   118    79    81   ar
   119    78    75    1
   120   128   125    1
   121    89    88    1
   122    89    90    1
   123    83    81   ar
   124    83    85   ar
   125    88    76   am
   126   125   126    1
   127    90    91    2
   128    74    75    1
   129    81    84   ar
   130    75    76    1
   131    76    77    2
   132    85    87   ar
   133   126   127    2
   134    84    86   ar
   135    87    86   ar
