@<TRIPOS>MOLECULE
tmp/4tt2A00.pdb
 152 147 0 0 0
SMALL
GASTEIGER

@<TRIPOS>ATOM
      1  N         17.2980   10.6340    7.2960 N.3    30  VAL30      -0.1231
      2  CA        17.1520    9.2370    7.7160 C.3    30  VAL30       0.1692
      3  C         15.6880    8.8260    7.9460 C.2    30  VAL30       0.2592
      4  O         15.3450    7.6490    7.8220 O.2    30  VAL30      -0.2718
      5  CB        17.9920    8.9450    8.9870 C.3    30  VAL30       0.0266
      6  CG1       17.4410    9.6870   10.2020 C.3    30  VAL30       0.0020
      7  CG2       18.0730    7.4520    9.2580 C.3    30  VAL30       0.0020
      8  N         14.8310    9.7920    8.2750 N.am   31  PHE31      -0.1976
      9  CA        13.4100    9.5260    8.4940 C.3    31  PHE31       0.1639
     10  C         12.5400    9.7620    7.2550 C.2    31  PHE31       0.2290
     11  O         11.3190    9.6630    7.3420 O.2    31  PHE31      -0.2864
     12  CB        12.8920   10.3750    9.6560 C.3    31  PHE31       0.0560
     13  CG        13.7190   10.2510   10.9040 C.ar   31  PHE31      -0.0200
     14  CD1       13.7510    9.0600   11.6140 C.ar   31  PHE31      -0.0042
     15  CD2       14.4780   11.3240   11.3670 C.ar   31  PHE31      -0.0042
     16  CE1       14.5180    8.9430   12.7650 C.ar   31  PHE31      -0.0003
     17  CE2       15.2420   11.2130   12.5190 C.ar   31  PHE31      -0.0003
     18  CZ        15.2630   10.0220   13.2180 C.ar   31  PHE31      -0.0000
     19  N         12.9730    7.9640    4.3980 N.3    33  LYS33      -0.1245
     20  CA        12.8540    6.6580    3.7580 C.3    33  LYS33       0.1561
     21  C         12.4840    5.6130    4.7980 C.2    33  LYS33       0.2260
     22  O         12.7050    5.8200    5.9910 O.2    33  LYS33      -0.2867
     23  CB        14.1840    6.2390    3.1190 C.3    33  LYS33       0.0271
     24  CG        14.9710    7.3530    2.4430 C.3    33  LYS33       0.0035
     25  CD        16.3260    6.8580    1.9540 C.3    33  LYS33       0.0206
     26  CE        17.3260    6.6810    3.0940 C.3    33  LYS33       0.1093
     27  NZ        17.8240    7.9770    3.6480 N.3    33  LYS33      -0.1314
     28  N         13.2570    1.9980    6.7020 N.3    35  VAL35      -0.1245
     29  CA        14.5120    1.4130    7.1650 C.3    35  VAL35       0.1561
     30  C         14.9710    0.3180    6.2030 C.2    35  VAL35       0.2260
     31  O         14.1920   -0.5530    5.8200 O.2    35  VAL35      -0.2867
     32  CB        14.3850    0.8510    8.5930 C.3    35  VAL35       0.0252
     33  CG1       15.6390    0.0790    8.9850 C.3    35  VAL35       0.0019
     34  CG2       14.1240    1.9880    9.5700 C.3    35  VAL35       0.0019
     35  N         20.4590   -3.5000    5.3310 N.3    39  GLU39      -0.1231
     36  CA        21.4350   -2.8730    6.2320 C.3    39  GLU39       0.1699
     37  C         21.0820   -3.0880    7.7000 C.2    39  GLU39       0.2592
     38  O         21.9640   -3.2860    8.5320 O.2    39  GLU39      -0.2718
     39  CB        21.5450   -1.3690    5.9600 C.3    39  GLU39       0.0402
     40  CG        21.9710   -1.0250    4.5400 C.3    39  GLU39       0.1161
     41  CD        23.4270   -1.3490    4.2630 C.2    39  GLU39       0.3649
     42  OE1       24.2960   -0.8430    5.0110 O.co2  39  GLU39      -0.2457
     43  OE2       23.6990   -2.0990    3.2940 O.co2  39  GLU39      -0.2457
     44  N         19.7940   -3.0320    8.0170 N.am   40  VAL40      -0.1966
     45  CA        19.3240   -3.2330    9.3820 C.3    40  VAL40       0.1712
     46  C         18.3340   -4.4010    9.4010 C.2    40  VAL40       0.2458
     47  O         17.1230   -4.1960    9.4760 O.2    40  VAL40      -0.2730
     48  CB        18.6760   -1.9530    9.9400 C.3    40  VAL40       0.0289
     49  CG1       18.5160   -2.0570   11.4430 C.3    40  VAL40       0.0023
     50  CG2       19.5170   -0.7360    9.5900 C.3    40  VAL40       0.0023
     51  N         18.8520   -5.6400    9.3320 N.am   41  PRO41      -0.2716
     52  CA        17.9980   -6.8300    9.2090 C.3    41  PRO41       0.1536
     53  C         17.1360   -7.1150   10.4360 C.2    41  PRO41       0.2599
     54  O         16.0800   -7.7390   10.3060 O.2    41  PRO41      -0.2715
     55  CB        19.0050   -7.9610    8.9900 C.3    41  PRO41       0.0310
     56  CG        20.2520   -7.4810    9.6480 C.3    41  PRO41       0.0237
     57  CD        20.2800   -5.9970    9.4410 C.3    41  PRO41       0.0939
     58  N         17.5780   -6.6600   11.6080 N.am   42  ASP42      -0.1958
     59  CA        16.8330   -6.8720   12.8510 C.3    42  ASP42       0.1840
     60  C         15.8010   -5.7840   13.1550 C.2    42  ASP42       0.2622
     61  O         15.0910   -5.8840   14.1580 O.2    42  ASP42      -0.2715
     62  CB        17.7940   -7.0270   14.0410 C.3    42  ASP42       0.1450
     63  CG        18.5330   -5.7420   14.3820 C.2    42  ASP42       0.3671
     64  OD1       18.9620   -5.0230   13.4500 O.co2  42  ASP42      -0.2456
     65  OD2       18.6970   -5.4620   15.5900 O.co2  42  ASP42      -0.2456
     66  N         15.7020   -4.7590   12.3040 N.am   43  TYR43      -0.1974
     67  CA        14.7550   -3.6650   12.5450 C.3    43  TYR43       0.1639
     68  C         13.3140   -4.1650   12.6340 C.2    43  TYR43       0.2290
     69  O         12.5830   -3.8000   13.5550 O.2    43  TYR43      -0.2864
     70  CB        14.8530   -2.5770   11.4670 C.3    43  TYR43       0.0560
     71  CG        14.0390   -1.3370   11.8030 C.ar   43  TYR43      -0.0198
     72  CD1       14.4910   -0.4150   12.7490 C.ar   43  TYR43      -0.0009
     73  CD2       12.8100   -1.0990   11.1940 C.ar   43  TYR43      -0.0009
     74  CE1       13.7500    0.7120   13.0700 C.ar   43  TYR43       0.0417
     75  CE2       12.0600    0.0270   11.5090 C.ar   43  TYR43       0.0417
     76  CZ        12.5340    0.9290   12.4460 C.ar   43  TYR43       0.1957
     77  OH        11.7900    2.0440   12.7570 O.3    43  TYR43      -0.2866
     78  N         12.1800   -5.7590   15.9090 N.3    46  VAL46      -0.1245
     79  CA        11.9450   -4.8260   17.0180 C.3    46  VAL46       0.1561
     80  C         10.6880   -3.9810   16.7960 C.2    46  VAL46       0.2260
     81  O          9.8020   -3.9430   17.6460 O.2    46  VAL46      -0.2867
     82  CB        13.1520   -3.8900   17.2240 C.3    46  VAL46       0.0252
     83  CG1       12.8810   -2.8980   18.3530 C.3    46  VAL46       0.0019
     84  CG2       14.4080   -4.7060   17.5070 C.3    46  VAL46       0.0019
     85  N         12.3410    5.1680   16.7330 N.3    82  ALA82      -0.1245
     86  CA        13.7740    5.4590   16.7620 C.3    82  ALA82       0.1562
     87  C         14.3700    5.2860   18.1690 C.2    82  ALA82       0.2260
     88  O         15.4490    4.7140   18.3240 O.2    82  ALA82      -0.2867
     89  CB        14.0350    6.8640   16.2380 C.3    82  ALA82       0.0290
     90  N         12.9670    3.4530   20.4980 N.3    84  GLU84      -0.1231
     91  CA        12.7440    2.0500   20.8440 C.3    84  GLU84       0.1699
     92  C         13.8240    1.1590   20.2280 C.2    84  GLU84       0.2592
     93  O         14.3410    0.2640   20.9000 O.2    84  GLU84      -0.2718
     94  CB        11.3470    1.5950   20.3880 C.3    84  GLU84       0.0402
     95  CG        11.0340    0.1170   20.6010 C.3    84  GLU84       0.1161
     96  CD        11.0250   -0.2830   22.0650 C.2    84  GLU84       0.3649
     97  OE1       10.2780    0.3380   22.8520 O.co2  84  GLU84      -0.2457
     98  OE2       11.7550   -1.2280   22.4320 O.co2  84  GLU84      -0.2457
     99  N         14.1600    1.3980   18.9600 N.am   85  TYR85      -0.1962
    100  CA        15.1250    0.5470   18.2640 C.3    85  TYR85       0.1771
    101  C         16.5720    0.8220   18.6710 C.2    85  TYR85       0.2620
    102  O         17.2800   -0.0790   19.1210 O.2    85  TYR85      -0.2715
    103  CB        15.0190    0.6710   16.7400 C.3    85  TYR85       0.0574
    104  CG        16.0850   -0.1580   16.0580 C.ar   85  TYR85      -0.0198
    105  CD1       16.0030   -1.5460   16.0470 C.ar   85  TYR85      -0.0009
    106  CD2       17.2030    0.4360   15.4760 C.ar   85  TYR85      -0.0009
    107  CE1       16.9860   -2.3200   15.4540 C.ar   85  TYR85       0.0417
    108  CE2       18.1910   -0.3310   14.8750 C.ar   85  TYR85       0.0417
    109  CZ        18.0770   -1.7090   14.8690 C.ar   85  TYR85       0.1957
    110  OH        19.0530   -2.4870   14.2900 O.3    85  TYR85      -0.2866
    111  N         17.0130    2.0610   18.4840 N.am   86  ASN86      -0.1959
    112  CA        18.4230    2.3940   18.6500 C.3    86  ASN86       0.1804
    113  C         18.8490    2.3800   20.1170 C.2    86  ASN86       0.2463
    114  O         18.1640    2.9510   20.9660 O.2    86  ASN86      -0.2730
    115  CB        18.7190    3.7520   18.0190 C.3    86  ASN86       0.1195
    116  CG        18.4990    3.7500   16.5180 C.2    86  ASN86       0.2630
    117  OD1       19.3620    3.3160   15.7570 O.2    86  ASN86      -0.2716
    118  ND2       17.3340    4.2220   16.0850 N.am   86  ASN86      -0.0877
    119  N         19.9750    1.7120   20.4250 N.am   87  PRO87      -0.2727
    120  CA        20.5000    1.7440   21.7880 C.3    87  PRO87       0.1402
    121  C         21.2010    3.0720   22.0650 C.2    87  PRO87       0.2269
    122  O         21.3500    3.8810   21.1590 O.2    87  PRO87      -0.2865
    123  CB        21.4830    0.5740   21.8130 C.3    87  PRO87       0.0296
    124  CG        21.9310    0.4200   20.4020 C.3    87  PRO87       0.0237
    125  CD        20.8300    0.9250   19.5170 C.3    87  PRO87       0.0939
    126  N         24.3930    3.6860   23.0290 N.3    89  ARG89      -0.1245
    127  CA        25.8010    3.3230   23.1930 C.3    89  ARG89       0.1563
    128  C         26.7110    4.1280   22.2570 C.2    89  ARG89       0.2260
    129  O         27.2950    5.1300   22.6700 O.2    89  ARG89      -0.2867
    130  CB        25.9860    1.8160   22.9700 C.3    89  ARG89       0.0307
    131  CG        25.2390    0.9410   23.9650 C.3    89  ARG89       0.0489
    132  CD        25.4290   -0.5370   23.6560 C.3    89  ARG89       0.2205
    133  NE        24.8520   -0.9230   22.3650 N.pl3  89  ARG89      -0.0865
    134  CZ        24.9160   -2.1490   21.8410 C.cat  89  ARG89       0.5346
    135  NH1       25.5360   -3.1350   22.4890 N.pl3  89  ARG89       0.1354
    136  NH2       24.3570   -2.3950   20.6590 N.pl3  89  ARG89       0.1354
    137  N         24.4150    5.9720   17.3100 N.3    93  ASP93      -0.1239
    138  CA        23.1520    5.6900   17.9820 C.3    93  ASP93       0.1674
    139  C         22.5860    6.9550   18.6440 C.2    93  ASP93       0.2266
    140  O         21.3920    7.2240   18.5560 O.2    93  ASP93      -0.2867
    141  CB        23.3320    4.5960   19.0450 C.3    93  ASP93       0.1410
    142  CG        23.8210    3.2700   18.4680 C.2    93  ASP93       0.3668
    143  OD1       23.2990    2.8320   17.4200 O.co2  93  ASP93      -0.2456
    144  OD2       24.7140    2.6490   19.0850 O.co2  93  ASP93      -0.2456
    145  N         21.3120    9.6290   15.9920 N.3    96  ILE96      -0.1245
    146  CA        19.9900    9.3320   15.4280 C.3    96  ILE96       0.1561
    147  C         18.8640    9.5250   16.4530 C.2    96  ILE96       0.2260
    148  O         17.8140   10.0630   16.1170 O.2    96  ILE96      -0.2867
    149  CB        19.9150    7.9290   14.7640 C.3    96  ILE96       0.0252
    150  CG1       18.6050    7.7770   13.9920 C.3    96  ILE96       0.0019
    151  CG2       20.0340    6.7990   15.7780 C.3    96  ILE96       0.0019
    152  CD1       18.6000    6.6040   13.0360 C.3    96  ILE96       0.0001
@<TRIPOS>BOND
     1    25    24    1
     2    25    26    1
     3    24    23    1
     4    26    27    1
     5    23    20    1
     6    43    41   ar
     7    20    19    1
     8    20    21    1
     9    41    40    1
    10    41    42   ar
    11    40    39    1
    12    21    22    2
    13    35    36    1
    14    31    30    2
    15    39    36    1
    16    30    29    1
    17    36    37    1
    18    28    29    1
    19    29    32    1
    20    10    11    2
    21    10     9    1
    22     1     2    1
    23    37    44   am
    24    37    38    2
    25     2     3    1
    26     2     5    1
    27     4     3    2
    28     3     8   am
    29    44    45    1
    30     8     9    1
    31     9    12    1
    32    32    33    1
    33    32    34    1
    34     5     7    1
    35     5     6    1
    36    55    52    1
    37    55    56    1
    38    52    51    1
    39    52    53    1
    40    51    46   am
    41    51    57    1
    42    45    46    1
    43    45    48    1
    44    46    47    2
    45    57    56    1
    46    50    48    1
    47    12    13    1
    48    48    49    1
    49    54    53    2
    50    53    58   am
    51    13    15   ar
    52    13    14   ar
    53    73    75   ar
    54    73    71   ar
    55    15    17   ar
    56    70    71    1
    57    70    67    1
    58    75    76   ar
    59    58    59    1
    60    14    16   ar
    61    71    72   ar
    62    66    67    1
    63    66    60   am
    64    76    77    1
    65    76    74   ar
    66    17    18   ar
    67    67    68    1
    68    68    69    2
    69    72    74   ar
    70    16    18   ar
    71    59    60    1
    72    59    62    1
    73   152   150    1
    74    60    61    2
    75    64    63   ar
    76   150   149    1
    77    62    63    1
    78   110   109    1
    79    63    65   ar
    80   149   146    1
    81   149   151    1
    82   109   108   ar
    83   109   107   ar
    84   108   106   ar
    85   146   145    1
    86   146   147    1
    87   107   105   ar
    88   106   104   ar
    89   117   116    2
    90    78    79    1
    91   105   104   ar
    92   104   103    1
    93   118   116   am
    94   148   147    2
    95    89    86    1
    96   116   115    1
    97    85    86    1
    98   103   100    1
    99    86    87    1
   100    80    79    1
   101    80    81    2
   102    79    82    1
   103    82    84    1
   104    82    83    1
   105   137   138    1
   106   143   142   ar
   107   138   139    1
   108   138   141    1
   109   115   112    1
   110    87    88    2
   111   100   101    1
   112   100    99    1
   113   142   141    1
   114   142   144   ar
   115   111   112    1
   116   111   101   am
   117   140   139    2
   118   112   113    1
   119   101   102    2
   120    99    92   am
   121   125   124    1
   122   125   119    1
   123   113   119   am
   124   113   114    2
   125    92    91    1
   126    92    93    2
   127    94    95    1
   128    94    91    1
   129   124   123    1
   130   119   120    1
   131    90    91    1
   132    95    96    1
   133   136   134    1
   134   122   121    2
   135   120   123    1
   136   120   121    1
   137   134   133    2
   138   134   135    1
   139    96    98   ar
   140    96    97   ar
   141   128   129    2
   142   128   127    1
   143   133   132    1
   144   130   127    1
   145   130   131    1
   146   126   127    1
   147   132   131    1
