@<TRIPOS>MOLECULE
tmp/4tt8A00.pdb
 192 186 0 0 0
SMALL
GASTEIGER

@<TRIPOS>ATOM
      1  N        -19.5110    3.2030  -11.3010 N.3    59  TRP59      -0.1227
      2  CA       -18.1570    2.6560  -11.2690 C.3    59  TRP59       0.1737
      3  C        -17.8710    2.0170   -9.9170 C.2    59  TRP59       0.2595
      4  O        -17.2910    0.9340   -9.8380 O.2    59  TRP59      -0.2718
      5  CB       -17.1220    3.7460  -11.5540 C.3    59  TRP59       0.0564
      6  CG       -17.1920    4.2940  -12.9390 C.ar   59  TRP59       0.0003
      7  CD1      -18.1310    5.1490  -13.4320 C.ar   59  TRP59       0.0946
      8  CD2      -16.2820    4.0330  -14.0170 C.ar   59  TRP59       0.0152
      9  NE1      -17.8670    5.4340  -14.7500 N.ar   59  TRP59      -0.2442
     10  CE2      -16.7370    4.7610  -15.1330 C.ar   59  TRP59       0.0810
     11  CE3      -15.1270    3.2530  -14.1440 C.ar   59  TRP59       0.0012
     12  CZ2      -16.0790    4.7330  -16.3630 C.ar   59  TRP59       0.0191
     13  CZ3      -14.4770    3.2240  -15.3660 C.ar   59  TRP59       0.0001
     14  CH2      -14.9530    3.9600  -16.4590 C.ar   59  TRP59       0.0015
     15  N        -18.2860    2.7010   -8.8560 N.am   60  ARG60      -0.1980
     16  CA       -18.0440    2.2280   -7.5010 C.3    60  ARG60       0.1597
     17  C        -19.3360    1.8320   -6.7930 C.2    60  ARG60       0.2287
     18  O        -20.4150    2.3480   -7.0970 O.2    60  ARG60      -0.2864
     19  CB       -17.2670    3.2730   -6.6960 C.3    60  ARG60       0.0334
     20  CG       -17.8080    4.6890   -6.8090 C.3    60  ARG60       0.0492
     21  CD       -18.8030    4.9850   -5.7020 C.3    60  ARG60       0.2205
     22  NE       -18.5440    6.2780   -5.0780 N.pl3  60  ARG60      -0.0865
     23  CZ       -17.6700    6.4700   -4.0960 C.cat  60  ARG60       0.5346
     24  NH1      -16.9660    5.4510   -3.6190 N.pl3  60  ARG60       0.1354
     25  NH2      -17.4980    7.6830   -3.5900 N.pl3  60  ARG60       0.1354
     26  N        -10.9050   13.1050  -19.0490 N.3    83  LEU83      -0.1245
     27  CA       -12.2420   13.2560  -18.4780 C.3    83  LEU83       0.1561
     28  C        -12.8100   14.6550  -18.7380 C.2    83  LEU83       0.2260
     29  O        -12.7050   15.5340  -17.8830 O.2    83  LEU83      -0.2867
     30  CB       -12.2230   12.9730  -16.9680 C.3    83  LEU83       0.0270
     31  CG       -12.0910   11.5370  -16.4410 C.3    83  LEU83       0.0019
     32  CD1      -10.7260   10.9230  -16.7310 C.3    83  LEU83       0.0001
     33  CD2      -12.3700   11.4840  -14.9440 C.3    83  LEU83       0.0001
     34  N        -16.8950   14.3830  -16.9380 N.3    86  CYS86      -0.1221
     35  CA       -17.3380   13.1720  -16.2570 C.3    86  CYS86       0.1808
     36  C        -18.2490   13.5070  -15.0780 C.2    86  CYS86       0.2602
     37  O        -17.8480   14.2180  -14.1550 O.2    86  CYS86      -0.2717
     38  CB       -16.1220   12.3780  -15.7730 C.3    86  CYS86       0.0970
     39  SG       -16.4560   10.6660  -15.3170 S.3    86  CYS86      -0.0800
     40  N        -19.4760   12.9970  -15.1210 N.am   87  SER87      -0.1938
     41  CA       -20.4540   13.2560  -14.0710 C.3    87  SER87       0.2055
     42  C        -20.3390   12.2210  -12.9630 C.2    87  SER87       0.2643
     43  O        -21.0110   12.3210  -11.9380 O.2    87  SER87      -0.2714
     44  CB       -21.8710   13.2420  -14.6450 C.3    87  SER87       0.2130
     45  OG       -22.1800   11.9820  -15.2130 O.3    87  SER87      -0.2179
     46  N        -19.4820   11.2280  -13.1740 N.am   88  GLN88      -0.1963
     47  CA       -19.3070   10.1500  -12.2100 C.3    88  GLN88       0.1733
     48  C        -17.9150   10.1900  -11.5880 C.2    88  GLN88       0.2616
     49  O        -16.9230   10.3810  -12.2880 O.2    88  GLN88      -0.2715
     50  CB       -19.5500    8.7980  -12.8870 C.3    88  GLN88       0.0408
     51  CG       -20.9760    8.6130  -13.3900 C.3    88  GLN88       0.0908
     52  CD       -21.1090    7.4820  -14.3950 C.2    88  GLN88       0.2608
     53  OE1      -20.1170    6.8940  -14.8260 O.2    88  GLN88      -0.2717
     54  NE2      -22.3440    7.1760  -14.7780 N.am   88  GLN88      -0.0878
     55  N        -17.8410   10.0190  -10.2710 N.am   89  PHE89      -0.1960
     56  CA       -16.5520    9.9880   -9.5880 C.3    89  PHE89       0.1771
     57  C        -15.8550    8.6580   -9.8870 C.2    89  PHE89       0.2619
     58  O        -16.4700    7.5940   -9.7990 O.2    89  PHE89      -0.2715
     59  CB       -16.7370   10.1840   -8.0820 C.3    89  PHE89       0.0574
     60  CG       -15.5200   10.7210   -7.3860 C.ar   89  PHE89      -0.0200
     61  CD1      -15.2190   12.0740   -7.4360 C.ar   89  PHE89      -0.0042
     62  CD2      -14.6830    9.8760   -6.6730 C.ar   89  PHE89      -0.0042
     63  CE1      -14.1010   12.5740   -6.7950 C.ar   89  PHE89      -0.0003
     64  CE2      -13.5640   10.3690   -6.0300 C.ar   89  PHE89      -0.0003
     65  CZ       -13.2720   11.7200   -6.0920 C.ar   89  PHE89      -0.0000
     66  N        -14.5750    8.7220  -10.2440 N.am   90  ILE90      -0.1977
     67  CA       -13.8640    7.5540  -10.7610 C.3    90  ILE90       0.1596
     68  C        -12.9140    6.9140   -9.7420 C.2    90  ILE90       0.2287
     69  O        -12.1070    7.6050   -9.1200 O.2    90  ILE90      -0.2864
     70  CB       -13.0790    7.9150  -12.0430 C.3    90  ILE90       0.0276
     71  CG1      -14.0160    8.5070  -13.0960 C.3    90  ILE90       0.0022
     72  CG2      -12.3560    6.7010  -12.5990 C.3    90  ILE90       0.0022
     73  CD1      -15.0880    7.5490  -13.5700 C.3    90  ILE90       0.0001
     74  N         -9.7950    5.0490   -8.0310 N.3    92  MET92      -0.1245
     75  CA        -8.3710    5.2950   -8.2510 C.3    92  MET92       0.1570
     76  C         -7.6590    4.1730   -9.0170 C.2    92  MET92       0.2261
     77  O         -6.6200    4.4070   -9.6360 O.2    92  MET92      -0.2867
     78  CB        -7.6600    5.5860   -6.9240 C.3    92  MET92       0.0387
     79  CG        -8.1490    6.8480   -6.2260 C.3    92  MET92       0.0595
     80  SD        -8.1040    8.2930   -7.3030 S.3    92  MET92      -0.1393
     81  CE        -6.3410    8.4280   -7.5910 C.3    92  MET92       0.0692
     82  N         -8.2370    5.5110  -12.4170 N.3    95  ILE95      -0.1245
     83  CA        -7.4760    6.7540  -12.5400 C.3    95  ILE95       0.1561
     84  C         -5.9720    6.5030  -12.6820 C.2    95  ILE95       0.2260
     85  O         -5.3220    7.0540  -13.5770 O.2    95  ILE95      -0.2867
     86  CB        -7.7220    7.6850  -11.3270 C.3    95  ILE95       0.0252
     87  CG1       -9.1530    8.2280  -11.3400 C.3    95  ILE95       0.0019
     88  CG2       -6.7240    8.8360  -11.3160 C.3    95  ILE95       0.0019
     89  CD1       -9.4290    9.2040  -12.4700 C.3    95  ILE95       0.0001
     90  N         -8.2520   15.8930  -15.9560 N.3   104  ILE104     -0.1231
     91  CA        -9.6510   16.2540  -15.7740 C.3   104  ILE104      0.1692
     92  C         -9.9030   17.7080  -16.1580 C.2   104  ILE104      0.2592
     93  O         -9.1470   18.6000  -15.7670 O.2   104  ILE104     -0.2718
     94  CB       -10.0770   16.0410  -14.3050 C.3   104  ILE104      0.0266
     95  CG1      -10.0110   14.5580  -13.9410 C.3   104  ILE104      0.0019
     96  CG2      -11.4770   16.5900  -14.0490 C.3   104  ILE104      0.0020
     97  CD1      -10.5340   14.2530  -12.5600 C.3   104  ILE104      0.0001
     98  N        -10.9550   17.9440  -16.9370 N.am  105  TYR105     -0.1962
     99  CA       -11.3980   19.3050  -17.2050 C.3   105  TYR105      0.1771
    100  C        -12.2800   19.7690  -16.0540 C.2   105  TYR105      0.2619
    101  O        -13.1530   19.0320  -15.5960 O.2   105  TYR105     -0.2715
    102  CB       -12.1760   19.3750  -18.5190 C.3   105  TYR105      0.0574
    103  CG       -12.8270   20.7170  -18.7720 C.ar  105  TYR105     -0.0198
    104  CD1      -12.1190   21.7470  -19.3680 C.ar  105  TYR105     -0.0009
    105  CD2      -14.1500   20.9500  -18.4150 C.ar  105  TYR105     -0.0009
    106  CE1      -12.7050   22.9720  -19.6010 C.ar  105  TYR105      0.0417
    107  CE2      -14.7460   22.1740  -18.6430 C.ar  105  TYR105      0.0417
    108  CZ       -14.0150   23.1800  -19.2390 C.ar  105  TYR105      0.1957
    109  OH       -14.5920   24.4050  -19.4770 O.3   105  TYR105     -0.2866
    110  N        -12.0490   20.9890  -15.5850 N.am  106  HIS106     -0.1973
    111  CA       -12.8500   21.5440  -14.5020 C.3   106  HIS106      0.1656
    112  C        -13.0570   23.0390  -14.7020 C.2   106  HIS106      0.2291
    113  O        -12.0960   23.8040  -14.7440 O.2   106  HIS106     -0.2864
    114  CB       -12.1920   21.2760  -13.1510 C.3   106  HIS106      0.0771
    115  CG       -13.0180   21.7140  -11.9850 C.ar  106  HIS106      0.0820
    116  ND1      -14.0900   20.9820  -11.5140 N.ar  106  HIS106     -0.2267
    117  CD2      -12.9410   22.8130  -11.1980 C.ar  106  HIS106      0.1154
    118  CE1      -14.6290   21.6110  -10.4850 C.ar  106  HIS106      0.1986
    119  NE2      -13.9520   22.7240  -10.2730 N.ar  106  HIS106     -0.2212
    120  N        -18.7470   19.7690   -8.2620 N.3   116  ALA116     -0.1245
    121  CA       -19.2840   19.5600   -9.6070 C.3   116  ALA116      0.1562
    122  C        -20.0980   20.7260  -10.1830 C.2   116  ALA116      0.2260
    123  O        -20.3460   20.7640  -11.3880 O.2   116  ALA116     -0.2867
    124  CB       -20.0950   18.2760   -9.6520 C.3   116  ALA116      0.0290
    125  N         -6.3770   19.4900  -14.7220 N.3   135  PHE135     -0.1241
    126  CA        -5.5120   19.0070  -13.6490 C.3   135  PHE135      0.1605
    127  C         -5.3390   17.4910  -13.6820 C.2   135  PHE135      0.2264
    128  O         -6.1210   16.7820  -14.3200 O.2   135  PHE135     -0.2867
    129  CB        -6.0280   19.4660  -12.2780 C.3   135  PHE135      0.0534
    130  CG        -7.3020   18.7920  -11.8410 C.ar  135  PHE135     -0.0203
    131  CD1       -8.5370   19.3230  -12.1810 C.ar  135  PHE135     -0.0042
    132  CD2       -7.2620   17.6400  -11.0670 C.ar  135  PHE135     -0.0042
    133  CE1       -9.7080   18.7090  -11.7690 C.ar  135  PHE135     -0.0003
    134  CE2       -8.4280   17.0210  -10.6560 C.ar  135  PHE135     -0.0003
    135  CZ        -9.6510   17.5560  -11.0060 C.ar  135  PHE135     -0.0000
    136  N         -5.7100   13.9880  -12.0270 N.3   137  ALA137     -0.1231
    137  CA        -6.5910   13.4230  -11.0120 C.3   137  ALA137      0.1694
    138  C         -5.8040   12.7610   -9.8820 C.2   137  ALA137      0.2592
    139  O         -4.8620   12.0020  -10.1270 O.2   137  ALA137     -0.2718
    140  CB        -7.5530   12.4300  -11.6370 C.3   137  ALA137      0.0304
    141  N         -6.1840   13.0690   -8.6450 N.am  138  ASP138     -0.1974
    142  CA        -5.7460   12.2800   -7.4970 C.3   138  ASP138      0.1709
    143  C         -6.9700   11.7620   -6.7390 C.2   138  ASP138      0.2293
    144  O         -8.0660   11.7040   -7.3000 O.2   138  ASP138     -0.2864
    145  CB        -4.7620   13.0480   -6.5930 C.3   138  ASP138      0.1436
    146  CG        -5.3690   14.2920   -5.9530 C.2   138  ASP138      0.3671
    147  OD1       -4.5850   15.1510   -5.4930 O.co2 138  ASP138     -0.2456
    148  OD2       -6.6110   14.4220   -5.8950 O.co2 138  ASP138     -0.2456
    149  N         -8.4590   13.0510   -4.0410 N.3   140  GLY140     -0.1210
    150  CA        -9.3330   14.0810   -3.5060 C.3   140  GLY140      0.1956
    151  C        -10.2920   14.6320   -4.5440 C.2   140  GLY140      0.2612
    152  O        -10.2810   14.2080   -5.7030 O.2   140  GLY140     -0.2717
    153  N        -11.1250   15.5820   -4.1260 N.am  141  LEU141     -0.1965
    154  CA       -12.1180   16.1850   -5.0110 C.3   141  LEU141      0.1728
    155  C        -11.5850   17.4690   -5.6430 C.2   141  LEU141      0.2616
    156  O        -11.5180   18.5070   -4.9820 O.2   141  LEU141     -0.2715
    157  CB       -13.4080   16.4760   -4.2340 C.3   141  LEU141      0.0311
    158  CG       -14.5050   17.2620   -4.9590 C.3   141  LEU141      0.0022
    159  CD1      -14.9430   16.5360   -6.2140 C.3   141  LEU141      0.0001
    160  CD2      -15.6990   17.5160   -4.0470 C.3   141  LEU141      0.0001
    161  N        -11.2140   17.3910   -6.9210 N.am  142  ASP142     -0.1957
    162  CA       -10.6550   18.5320   -7.6500 C.3   142  ASP142      0.1840
    163  C         -9.4340   19.1240   -6.9400 C.2   142  ASP142      0.2622
    164  O         -9.2650   20.3410   -6.8740 O.2   142  ASP142     -0.2715
    165  CB       -11.7220   19.6120   -7.8640 C.3   142  ASP142      0.1450
    166  CG       -12.9580   19.0850   -8.5700 C.2   142  ASP142      0.3671
    167  OD1      -12.8300   18.1780   -9.4150 O.co2 142  ASP142     -0.2456
    168  OD2      -14.0630   19.5840   -8.2710 O.co2 142  ASP142     -0.2456
    169  N         -8.5880   18.2430   -6.4190 N.am  143  THR143     -0.1951
    170  CA        -7.4370   18.6450   -5.6170 C.3   143  THR143      0.1897
    171  C         -6.1000   18.3590   -6.2980 C.2   143  THR143      0.2313
    172  O         -5.0570   18.8360   -5.8480 O.2   143  THR143     -0.2863
    173  CB        -7.4440   17.9240   -4.2610 C.3   143  THR143      0.1794
    174  OG1       -7.6720   16.5280   -4.4810 O.3   143  THR143     -0.2208
    175  CG2       -8.5360   18.4680   -3.3620 C.3   143  THR143      0.0378
    176  N        -23.3450   20.4790   -4.6190 N.3   203  ILE203     -0.1245
    177  CA       -23.8170   20.2340   -5.9760 C.3   203  ILE203      0.1561
    178  C        -25.1890   20.8700   -6.1650 C.2   203  ILE203      0.2260
    179  O        -26.0780   20.7070   -5.3280 O.2   203  ILE203     -0.2867
    180  CB       -23.8800   18.7270   -6.2890 C.3   203  ILE203      0.0252
    181  CG1      -22.5200   18.0790   -6.0200 C.3   203  ILE203      0.0019
    182  CG2      -24.3200   18.4890   -7.7330 C.3   203  ILE203      0.0019
    183  CD1      -22.4080   16.6540   -6.5140 C.3   203  ILE203      0.0001
    184  N        -28.6670   21.0350   -7.3720 N.3   205  LYS205     -0.1245
    185  CA       -29.8320   20.3320   -7.8850 C.3   205  LYS205      0.1561
    186  C        -31.0410   21.2400   -7.7020 C.2   205  LYS205      0.2260
    187  O        -30.9270   22.3080   -7.0970 O.2   205  LYS205     -0.2867
    188  CB       -30.0270   19.0120   -7.1370 C.3   205  LYS205      0.0271
    189  CG       -28.7460   18.2040   -6.9730 C.3   205  LYS205      0.0035
    190  CD       -29.0010   16.8630   -6.2970 C.3   205  LYS205      0.0206
    191  CE       -28.1770   15.7690   -6.9550 C.3   205  LYS205      0.1093
    192  NZ       -28.4120   15.7530   -8.4260 N.3   205  LYS205     -0.1314
@<TRIPOS>BOND
     1   106   104   ar
     2   106   108   ar
     3   109   108    1
     4   104   103   ar
     5   108   107   ar
     6    26    27    1
     7   103   102    1
     8   103   105   ar
     9    28    27    1
    10    28    29    2
    11   107   105   ar
    12   102    99    1
    13    27    30    1
    14    99    98    1
    15    99   100    1
    16    30    31    1
    17    34    35    1
    18    98    92   am
    19    32    31    1
    20    14    12   ar
    21    14    13   ar
    22    31    33    1
    23    12    10   ar
    24    35    38    1
    25    35    36    1
    26    92    91    1
    27    92    93    2
    28   100   101    2
    29   100   110   am
    30    90    91    1
    31    91    94    1
    32    38    39    1
    33   110   111    1
    34    13    11   ar
    35    45    44    1
    36    10     9   ar
    37    10     8   ar
    38    40    36   am
    39    40    41    1
    40    36    37    2
    41    53    52    2
    42    54    52   am
    43     9     7   ar
    44   113   112    2
    45   125   126    1
    46   112   111    1
    47    44    41    1
    48   111   114    1
    49    52    51    1
    50   128   127    2
    51    94    96    1
    52    94    95    1
    53    11     8   ar
    54    41    42    1
    55     8     6   ar
    56    95    97    1
    57   127   126    1
    58   126   129    1
    59    85    84    2
    60    73    71    1
    61     7     6   ar
    62    51    50    1
    63    46    42   am
    64    46    47    1
    65   114   115    1
    66    71    70    1
    67    42    43    2
    68     6     5    1
    69    50    47    1
    70    84    83    1
    71    72    70    1
    72    83    82    1
    73    83    86    1
    74    89    87    1
    75    49    48    2
    76   129   130    1
    77    47    48    1
    78   131   130   ar
    79   131   133   ar
    80    70    67    1
    81   136   137    1
    82   115   116   ar
    83   115   117   ar
    84   130   132   ar
    85   133   135   ar
    86   140   137    1
    87    48    55   am
    88     5     2    1
    89   116   118   ar
    90   123   122    2
    91    87    86    1
    92    86    88    1
    93     1     2    1
    94     2     3    1
    95   117   119   ar
    96   132   134   ar
    97   137   138    1
    98   135   134   ar
    99    67    66    1
   100    67    68    1
   101   118   119   ar
   102    55    56    1
   103    66    57   am
   104   122   121    1
   105   139   138    2
   106     3     4    2
   107     3    15   am
   108    57    58    2
   109    57    56    1
   110   138   141   am
   111    68    69    2
   112   124   121    1
   113    77    76    2
   114   121   120    1
   115    56    59    1
   116   167   166   ar
   117    76    75    1
   118    15    16    1
   119   141   142    1
   120   166   168   ar
   121   166   165    1
   122   192   191    1
   123    75    74    1
   124    75    78    1
   125    59    60    1
   126   185   186    1
   127   185   184    1
   128   185   188    1
   129   165   162    1
   130   182   180    1
   131   186   187    2
   132   162   163    1
   133   162   161    1
   134    81    80    1
   135    16    17    1
   136    16    19    1
   137   142   143    1
   138   142   145    1
   139    61    60   ar
   140    61    63   ar
   141    60    62   ar
   142    80    79    1
   143   144   143    2
   144   188   189    1
   145    18    17    2
   146   189   190    1
   147   191   190    1
   148   163   164    2
   149   163   169   am
   150    78    79    1
   151   161   155   am
   152    20    19    1
   153    20    21    1
   154    63    65   ar
   155    62    64   ar
   156   145   146    1
   157   183   181    1
   158   169   170    1
   159   171   172    2
   160   171   170    1
   161   180   181    1
   162   180   177    1
   163   159   158    1
   164   178   177    1
   165   178   179    2
   166    65    64   ar
   167   177   176    1
   168   146   148   ar
   169   146   147   ar
   170   152   151    2
   171    21    22    1
   172   155   154    1
   173   155   156    2
   174   170   173    1
   175    22    23    2
   176   154   157    1
   177   154   153    1
   178   158   157    1
   179   158   160    1
   180   151   153   am
   181   151   150    1
   182   174   173    1
   183   173   175    1
   184    23    24    1
   185    23    25    1
   186   149   150    1
