@<TRIPOS>MOLECULE
tmp/4ttbB01.pdb
 131 123 0 0 0
SMALL
GASTEIGER

@<TRIPOS>ATOM
      1  N        -17.0570   12.3780   11.0790 N.3    30  ARG30      -0.1231
      2  CA       -18.4630   12.0740   10.9830 C.3    30  ARG30       0.1694
      3  C        -18.8360   11.1190   12.1090 C.2    30  ARG30       0.2592
      4  O        -18.1760   10.1040   12.3120 O.2    30  ARG30      -0.2718
      5  CB       -18.7810   11.4170    9.6430 C.3    30  ARG30       0.0321
      6  CG       -20.2510   11.0930    9.4620 C.3    30  ARG30       0.0489
      7  CD       -20.4440    9.9200    8.5140 C.3    30  ARG30       0.2205
      8  NE       -19.7330    8.7510    9.0160 N.pl3  30  ARG30      -0.0865
      9  CZ       -20.1590    7.9760   10.0090 C.cat  30  ARG30       0.5346
     10  NH1      -21.3110    8.2290   10.6190 N.pl3  30  ARG30       0.1354
     11  NH2      -19.4330    6.9370   10.3820 N.pl3  30  ARG30       0.1354
     12  N        -19.8990   11.4390   12.8360 N.am   31  ARG31      -0.1966
     13  CA       -20.4560   10.4950   13.7830 C.3    31  ARG31       0.1729
     14  C        -21.9460   10.4730   13.5770 C.2    31  ARG31       0.2616
     15  O        -22.5250   11.4810   13.1960 O.2    31  ARG31      -0.2715
     16  CB       -20.1450   10.9090   15.2320 C.3    31  ARG31       0.0348
     17  CG       -18.6610   11.0520   15.5660 C.3    31  ARG31       0.0492
     18  CD       -17.9500    9.7250   15.4020 C.3    31  ARG31       0.2205
     19  NE       -18.6850    8.6600   16.0580 N.pl3  31  ARG31      -0.0865
     20  CZ       -18.5410    8.3680   17.3450 C.cat  31  ARG31       0.5346
     21  NH1      -17.6910    9.0720   18.0780 N.pl3  31  ARG31       0.1354
     22  NH2      -19.2410    7.3850   17.8960 N.pl3  31  ARG31       0.1354
     23  N        -22.5630    9.3270   13.8210 N.am   32  SER32      -0.1950
     24  CA       -24.0080    9.2620   13.8460 C.3    32  SER32       0.1924
     25  C        -24.4160   10.0160   15.1040 C.2    32  SER32       0.2314
     26  O        -24.0410    9.6390   16.2090 O.2    32  SER32      -0.2863
     27  CB       -24.4700    7.8060   13.9640 C.3    32  SER32       0.2116
     28  OG       -23.7290    6.9760   13.0890 O.3    32  SER32      -0.2180
     29  N        -27.4520   11.3530   17.4510 N.3    34  ARG34      -0.1245
     30  CA       -28.8260   11.0090   17.7780 C.3    34  ARG34       0.1563
     31  C        -29.6090   12.1630   18.3920 C.2    34  ARG34       0.2260
     32  O        -30.7350   11.9790   18.8430 O.2    34  ARG34      -0.2867
     33  CB       -28.8860    9.7300   18.6190 C.3    34  ARG34       0.0307
     34  CG       -28.5010    8.5050   17.7730 C.3    34  ARG34       0.0489
     35  CD       -28.1790    7.2690   18.6020 C.3    34  ARG34       0.2205
     36  NE       -27.6850    6.1660   17.7720 N.pl3  34  ARG34      -0.0865
     37  CZ       -26.4140    6.0220   17.3930 C.cat  34  ARG34       0.5346
     38  NH1      -25.5070    6.9140   17.7600 N.pl3  34  ARG34       0.1354
     39  NH2      -26.0440    4.9890   16.6420 N.pl3  34  ARG34       0.1354
     40  N        -40.3990   -1.2980   16.5240 N.3    87  GLU87      -0.1245
     41  CA       -39.1590   -1.5790   17.2360 C.3    87  GLU87       0.1567
     42  C        -39.4060   -1.8670   18.7090 C.2    87  GLU87       0.2260
     43  O        -38.4980   -2.2710   19.4350 O.2    87  GLU87      -0.2867
     44  CB       -38.1810   -0.4200   17.0740 C.3    87  GLU87       0.0388
     45  CG       -37.8170   -0.1450   15.6310 C.3    87  GLU87       0.1160
     46  CD       -36.8490    1.0020   15.4950 C.2    87  GLU87       0.3649
     47  OE1      -36.3530    1.4760   16.5410 O.co2  87  GLU87      -0.2457
     48  OE2      -36.5880    1.4290   14.3490 O.co2  87  GLU87      -0.2457
     49  N        -37.2250    7.1950   19.5290 N.3    94  LYS94      -0.1245
     50  CA       -36.3820    8.0160   18.6820 C.3    94  LYS94       0.1561
     51  C        -37.0580    9.3670   18.5450 C.2    94  LYS94       0.2260
     52  O        -37.8890    9.5620   17.6430 O.2    94  LYS94      -0.2867
     53  CB       -36.2790    7.3750   17.2940 C.3    94  LYS94       0.0271
     54  CG       -36.0660    5.8640   17.3110 C.3    94  LYS94       0.0035
     55  CD       -34.7910    5.5040   18.0640 C.3    94  LYS94       0.0206
     56  CE       -34.6330    4.0020   18.2610 C.3    94  LYS94       0.1093
     57  NZ       -33.4670    3.6890   19.1460 N.3    94  LYS94      -0.1314
     58  N        -35.6000   12.1560   17.6960 N.3    96  TYR96      -0.1241
     59  CA       -34.9590   12.9610   16.6940 C.3    96  TYR96       0.1605
     60  C        -35.7240   12.9100   15.3650 C.2    96  TYR96       0.2264
     61  O        -35.5740   13.7860   14.5210 O.2    96  TYR96      -0.2867
     62  CB       -33.5020   12.5330   16.5610 C.3    96  TYR96       0.0534
     63  CG       -33.3130   11.0490   16.3760 C.ar   96  TYR96      -0.0201
     64  CD1      -32.8240   10.2520   17.4060 C.ar   96  TYR96      -0.0009
     65  CD2      -33.6170   10.4400   15.1720 C.ar   96  TYR96      -0.0009
     66  CE1      -32.6420    8.8820   17.2270 C.ar   96  TYR96       0.0417
     67  CE2      -33.4490    9.0800   14.9910 C.ar   96  TYR96       0.0417
     68  CZ       -32.9580    8.3080   16.0140 C.ar   96  TYR96       0.1957
     69  OH       -32.7930    6.9560   15.8140 O.3    96  TYR96      -0.2866
     70  N        -28.2590   10.2070   11.6260 N.3   135  VAL135     -0.1231
     71  CA       -27.9220    8.8610   12.0520 C.3   135  VAL135      0.1692
     72  C        -28.5220    7.8840   11.0460 C.2   135  VAL135      0.2593
     73  O        -29.7270    7.8950   10.8110 O.2   135  VAL135     -0.2718
     74  CB       -28.3850    8.5770   13.4990 C.3   135  VAL135      0.0266
     75  CG1      -29.8130    9.0540   13.7160 C.3   135  VAL135      0.0020
     76  CG2      -28.2330    7.0860   13.8510 C.3   135  VAL135      0.0020
     77  N        -27.6690    7.0760   10.4200 N.am  136  THR136     -0.1939
     78  CA       -28.1150    6.1230    9.4050 C.3   136  THR136      0.2028
     79  C        -29.0140    5.0930   10.0450 C.2   136  THR136      0.2643
     80  O        -28.6520    4.5110   11.0560 O.2   136  THR136     -0.2714
     81  CB       -26.9320    5.3520    8.7930 C.3   136  THR136      0.1808
     82  OG1      -25.9660    6.2700    8.2720 O.3   136  THR136     -0.2208
     83  CG2      -27.4030    4.4150    7.6740 C.3   136  THR136      0.0379
     84  N        -30.1910    4.8760    9.4730 N.am  137  THR137     -0.1936
     85  CA       -31.0890    3.8280    9.9510 C.3   137  THR137      0.2028
     86  C        -31.6700    3.0710    8.7570 C.2   137  THR137      0.2642
     87  O        -31.8810    3.6520    7.6880 O.2   137  THR137     -0.2714
     88  CB       -32.2410    4.4000   10.8050 C.3   137  THR137      0.1808
     89  OG1      -33.0940    5.2030    9.9840 O.3   137  THR137     -0.2208
     90  CG2      -31.7040    5.2630   11.9310 C.3   137  THR137      0.0379
     91  N        -31.9240    1.7790    8.9330 N.am  138  THR138     -0.1950
     92  CA       -32.4710    0.9580    7.8540 C.3   138  THR138      0.1897
     93  C        -33.6730    0.1220    8.2980 C.2   138  THR138      0.2313
     94  O        -33.5920   -1.1050    8.3640 O.2   138  THR138     -0.2863
     95  CB       -31.4000    0.0150    7.2620 C.3   138  THR138      0.1794
     96  OG1      -30.9260   -0.8750    8.2770 O.3   138  THR138     -0.2208
     97  CG2      -30.2220    0.8160    6.6850 C.3   138  THR138      0.0378
     98  N        -33.1620    3.1710    3.4850 N.3   160  MET160     -0.1245
     99  CA       -32.5440    3.9260    4.5490 C.3   160  MET160      0.1570
    100  C        -33.4090    5.1160    4.9540 C.2   160  MET160      0.2261
    101  O        -34.1390    5.6780    4.1420 O.2   160  MET160     -0.2867
    102  CB       -31.2020    4.4270    4.0480 C.3   160  MET160      0.0387
    103  CG       -30.2580    4.9120    5.0880 C.3   160  MET160      0.0595
    104  SD       -28.6660    5.0930    4.2770 S.3   160  MET160     -0.1393
    105  CE       -28.4230    3.4030    3.7270 C.3   160  MET160      0.0692
    106  N        -21.5220    8.2610   21.6200 N.3   174  PRO174     -0.2116
    107  CA       -20.8220    7.2900   22.4700 C.3   174  PRO174      0.1372
    108  C        -19.3350    7.3240   22.1370 C.2   174  PRO174      0.2244
    109  O        -18.9690    7.7470   21.0360 O.2   174  PRO174     -0.2868
    110  CB       -21.4430    5.9560   22.0550 C.3   174  PRO174      0.0268
    111  CG       -21.8820    6.1980   20.5850 C.3   174  PRO174      0.0207
    112  CD       -22.3730    7.6200   20.6020 C.3   174  PRO174      0.0892
    113  N        -16.2900    5.7180   20.9400 N.3   176  LEU176     -0.1245
    114  CA       -15.9370    4.5420   20.1650 C.3   176  LEU176      0.1561
    115  C        -14.7220    4.8990   19.3400 C.2   176  LEU176      0.2260
    116  O        -14.5750    6.0380   18.9050 O.2   176  LEU176     -0.2867
    117  CB       -17.0590    4.1830   19.1840 C.3   176  LEU176      0.0270
    118  CG       -18.5170    3.9880   19.6070 C.3   176  LEU176      0.0019
    119  CD1      -19.4020    3.8650   18.3630 C.3   176  LEU176      0.0001
    120  CD2      -18.6580    2.7580   20.4530 C.3   176  LEU176      0.0001
    121  N        -12.5600    3.8370   15.7470 N.3   178  ARG178     -0.1245
    122  CA       -12.5500    3.0490   14.5320 C.3   178  ARG178      0.1563
    123  C        -11.3220    2.1600   14.5250 C.2   178  ARG178      0.2260
    124  O        -10.3070    2.4830   15.1440 O.2   178  ARG178     -0.2867
    125  CB       -12.5650    3.9410   13.2890 C.3   178  ARG178      0.0307
    126  CG       -13.4650    5.1410   13.4380 C.3   178  ARG178      0.0489
    127  CD       -13.8970    5.6930   12.1060 C.3   178  ARG178      0.2205
    128  NE       -15.2790    6.1380   12.1930 N.pl3 178  ARG178     -0.0865
    129  CZ       -15.6460    7.4070   12.2280 C.cat 178  ARG178      0.5346
    130  NH1      -14.7350    8.3630   12.1490 N.pl3 178  ARG178      0.1354
    131  NH2      -16.9250    7.7160   12.3210 N.pl3 178  ARG178      0.1354
@<TRIPOS>BOND
     1    98    99    1
     2   105   104    1
     3   102    99    1
     4   102   103    1
     5   101   100    2
     6   104   103    1
     7    99   100    1
     8    97    95    1
     9    95    92    1
    10    95    96    1
    11    83    81    1
    12    87    86    2
    13    92    93    1
    14    92    91    1
    15    82    81    1
    16    93    94    2
    17     7     8    1
    18     7     6    1
    19    86    91   am
    20    86    85    1
    21    81    78    1
    22     8     9    2
    23    78    79    1
    24    78    77    1
    25     6     5    1
    26    84    85    1
    27    84    79   am
    28     5     2    1
    29    85    88    1
    30    89    88    1
    31     9    11    1
    32     9    10    1
    33    79    80    2
    34    77    72   am
    35    88    90    1
    36    73    72    2
    37     2     1    1
    38     2     3    1
    39    72    71    1
    40    70    71    1
    41    71    74    1
    42   127   128    1
    43   127   126    1
    44     3     4    2
    45     3    12   am
    46   130   129    1
    47   128   129    2
    48   129   131    1
    49    12    13    1
    50    28    27    1
    51    15    14    2
    52   125   126    1
    53   125   122    1
    54    74    75    1
    55    74    76    1
    56    14    13    1
    57    14    23   am
    58    13    16    1
    59    23    24    1
    60    24    27    1
    61    24    25    1
    62    48    46   ar
    63    61    60    2
    64   123   122    1
    65   123   124    2
    66   122   121    1
    67    67    65   ar
    68    67    68   ar
    69    25    26    2
    70    65    63   ar
    71    16    17    1
    72    60    59    1
    73    18    17    1
    74    18    19    1
    75    46    45    1
    76    46    47   ar
    77    45    44    1
    78    69    68    1
    79    68    66   ar
    80    19    20    2
    81    63    62    1
    82    63    64   ar
    83    40    41    1
    84    62    59    1
    85    39    37    1
    86    59    58    1
    87    44    41    1
    88    66    64   ar
    89    41    42    1
    90    53    54    1
    91    53    50    1
    92    54    55    1
    93    20    22    1
    94    20    21    1
    95    37    38    1
    96    37    36    2
    97    29    30    1
    98    52    51    2
    99    36    35    1
   100    34    35    1
   101    34    33    1
   102    30    31    1
   103    30    33    1
   104    55    56    1
   105    56    57    1
   106   119   118    1
   107    31    32    2
   108    51    50    1
   109    50    49    1
   110    42    43    2
   111   116   115    2
   112   117   118    1
   113   117   114    1
   114   115   114    1
   115   118   120    1
   116   114   113    1
   117   111   112    1
   118   111   110    1
   119   112   106    1
   120   109   108    2
   121   106   107    1
   122   110   107    1
   123   108   107    1
