@<TRIPOS>MOLECULE
tmp/4ttbB00.pdb
 78 77 0 0 0
SMALL
GASTEIGER

@<TRIPOS>ATOM
      1  N        -25.0080   11.2370   -8.2690 N.3    55  THR55      -0.1203
      2  CA       -23.8690   11.1180   -9.1630 C.3    55  THR55       0.1994
      3  C        -23.2310    9.7530   -9.0370 C.2    55  THR55       0.2618
      4  O        -22.2450    9.4520   -9.7180 O.2    55  THR55      -0.2717
      5  CB       -22.7800   12.1450   -8.8890 C.3    55  THR55       0.1784
      6  OG1      -21.9750   11.7000   -7.7910 O.3    55  THR55      -0.2211
      7  CG2      -23.3640   13.5240   -8.6440 C.3    55  THR55       0.0376
      8  N        -23.8130    8.9190   -8.1860 N.am   56  ALA56      -0.1966
      9  CA       -23.2950    7.5810   -7.9570 C.3    56  ALA56       0.1713
     10  C        -23.2950    6.7210   -9.2320 C.2    56  ALA56       0.2458
     11  O        -24.0900    6.9360  -10.1480 O.2    56  ALA56      -0.2730
     12  CB       -24.0880    6.8990   -6.8380 C.3    56  ALA56       0.0333
     13  N        -22.3760    5.7510   -9.2970 N.am   57  PRO57      -0.2716
     14  CA       -22.4310    4.7560  -10.3680 C.3    57  PRO57       0.1536
     15  C        -23.5930    3.8200  -10.0950 C.2    57  PRO57       0.2599
     16  O        -23.9360    3.6150   -8.9390 O.2    57  PRO57      -0.2715
     17  CB       -21.1100    4.0070  -10.2050 C.3    57  PRO57       0.0310
     18  CG       -20.7910    4.1360   -8.7470 C.3    57  PRO57       0.0237
     19  CD       -21.2530    5.5170   -8.3680 C.3    57  PRO57       0.0939
     20  N        -24.2210    3.2840  -11.1300 N.am   58  SER58      -0.1936
     21  CA       -25.2340    2.2630  -10.9210 C.3    58  SER58       0.2055
     22  C        -25.0490    1.1530  -11.9380 C.2    58  SER58       0.2644
     23  O        -24.5290    1.3880  -13.0300 O.2    58  SER58      -0.2714
     24  CB       -26.6570    2.8310  -10.9430 C.3    58  SER58       0.2130
     25  OG       -26.9640    3.4770  -12.1550 O.3    58  SER58      -0.2179
     26  N        -25.4370   -0.0630  -11.5740 N.am   59  GLY59      -0.1939
     27  CA       -25.3390   -1.1720  -12.5020 C.3    59  GLY59       0.2014
     28  C        -26.2400   -0.9410  -13.6990 C.2    59  GLY59       0.2639
     29  O        -27.4450   -0.7330  -13.5280 O.2    59  GLY59      -0.2714
     30  N        -25.6570   -0.9760  -14.9010 N.am   60  ALA60      -0.1963
     31  CA       -26.3910   -0.7090  -16.1390 C.3    60  ALA60       0.1728
     32  C        -26.9770    0.7040  -16.2260 C.2    60  ALA60       0.2616
     33  O        -27.9630    0.9150  -16.9220 O.2    60  ALA60      -0.2715
     34  CB       -27.4980   -1.7570  -16.3540 C.3    60  ALA60       0.0334
     35  N        -26.3660    1.6540  -15.5130 N.am   61  HIS61      -0.1973
     36  CA       -26.8060    3.0510  -15.5470 C.3    61  HIS61       0.1656
     37  C        -28.3100    3.2480  -15.2440 C.2    61  HIS61       0.2291
     38  O        -28.9370    4.1710  -15.7700 O.2    61  HIS61      -0.2864
     39  CB       -26.4300    3.6690  -16.9040 C.3    61  HIS61       0.0771
     40  CG       -26.6410    5.1470  -16.9790 C.ar   61  HIS61       0.0820
     41  ND1      -26.3260    5.9940  -15.9410 N.ar   61  HIS61      -0.2267
     42  CD2      -27.1580    5.9260  -17.9580 C.ar   61  HIS61       0.1154
     43  CE1      -26.6290    7.2350  -16.2800 C.ar   61  HIS61       0.1986
     44  NE2      -27.1330    7.2200  -17.4990 N.ar   61  HIS61      -0.2212
     45  N        -27.6540   -4.6140   -9.9590 N.3   111  TYR111     -0.1241
     46  CA       -27.4210   -4.8160   -8.5320 C.3   111  TYR111      0.1605
     47  C        -27.9310   -3.6100   -7.7720 C.2   111  TYR111      0.2264
     48  O        -27.1540   -2.8370   -7.2170 O.2   111  TYR111     -0.2867
     49  CB       -25.9340   -5.0130   -8.2550 C.3   111  TYR111      0.0534
     50  CG       -25.3240   -6.1410   -9.0510 C.ar  111  TYR111     -0.0201
     51  CD1      -24.9240   -5.9490  -10.3710 C.ar  111  TYR111     -0.0009
     52  CD2      -25.1510   -7.3980   -8.4870 C.ar  111  TYR111     -0.0009
     53  CE1      -24.3680   -6.9710  -11.1020 C.ar  111  TYR111      0.0417
     54  CE2      -24.5960   -8.4310   -9.2130 C.ar  111  TYR111      0.0417
     55  CZ       -24.2060   -8.2130  -10.5210 C.ar  111  TYR111      0.1957
     56  OH       -23.6520   -9.2440  -11.2510 O.3   111  TYR111     -0.2866
     57  N        -26.8660   -2.6690   -3.8510 N.3   114  ILE114     -0.1231
     58  CA       -25.5190   -2.1250   -3.7750 C.3   114  ILE114      0.1692
     59  C        -25.4500   -0.7210   -4.3960 C.2   114  ILE114      0.2592
     60  O        -24.8160    0.1830   -3.8380 O.2   114  ILE114     -0.2718
     61  CB       -24.5150   -3.0570   -4.4630 C.3   114  ILE114      0.0266
     62  CG1      -24.5690   -4.4400   -3.8280 C.3   114  ILE114      0.0019
     63  CG2      -23.1060   -2.4960   -4.3800 C.3   114  ILE114      0.0020
     64  CD1      -23.5550   -5.3870   -4.4000 C.3   114  ILE114      0.0001
     65  N        -26.1200   -0.5330   -5.5310 N.am  115  SER115     -0.1952
     66  CA       -26.1040    0.7660   -6.2090 C.3   115  SER115      0.1924
     67  C        -26.7020    1.8500   -5.3150 C.2   115  SER115      0.2314
     68  O        -26.1290    2.9250   -5.1480 O.2   115  SER115     -0.2863
     69  CB       -26.8380    0.7220   -7.5610 C.3   115  SER115      0.2116
     70  OG       -26.3280   -0.3060   -8.4060 O.3   115  SER115     -0.2180
     71  N        -24.4400    2.4470   -2.2990 N.3   118  ILE118     -0.1245
     72  CA       -23.2980    3.2570   -2.7350 C.3   118  ILE118      0.1561
     73  C        -23.6800    4.7300   -2.7350 C.2   118  ILE118      0.2260
     74  O        -22.9620    5.5530   -2.1760 O.2   118  ILE118     -0.2867
     75  CB       -22.7550    2.8470   -4.1100 C.3   118  ILE118      0.0252
     76  CG1      -21.9260    1.5650   -4.0090 C.3   118  ILE118      0.0019
     77  CG2      -21.8950    3.9530   -4.7100 C.3   118  ILE118      0.0019
     78  CD1      -21.6830    0.9040   -5.3770 C.3   118  ILE118      0.0001
@<TRIPOS>BOND
     1    42    44   ar
     2    42    40   ar
     3    44    43   ar
     4    40    39    1
     5    40    41   ar
     6    33    32    2
     7    39    36    1
     8    34    31    1
     9    43    41   ar
    10    32    31    1
    11    32    35   am
    12    31    30    1
    13    38    37    2
    14    36    35    1
    15    36    37    1
    16    30    28   am
    17    28    29    2
    18    28    27    1
    19    23    22    2
    20    27    26    1
    21    25    24    1
    22    22    26   am
    23    22    21    1
    24    56    55    1
    25    20    21    1
    26    20    15   am
    27    53    55   ar
    28    53    51   ar
    29    24    21    1
    30    55    54   ar
    31    51    50   ar
    32    14    17    1
    33    14    15    1
    34    14    13    1
    35    17    18    1
    36    11    10    2
    37    15    16    2
    38    45    46    1
    39     4     3    2
    40    13    10   am
    41    13    19    1
    42    10     9    1
    43    54    52   ar
    44     2     3    1
    45     2     5    1
    46     2     1    1
    47    50    52   ar
    48    50    49    1
    49     3     8   am
    50     5     7    1
    51     5     6    1
    52    18    19    1
    53    46    49    1
    54    46    47    1
    55    70    69    1
    56     8     9    1
    57     9    12    1
    58    47    48    2
    59    69    66    1
    60    66    65    1
    61    66    67    1
    62    65    59   am
    63    78    76    1
    64    67    68    2
    65    77    75    1
    66    61    63    1
    67    61    62    1
    68    61    58    1
    69    64    62    1
    70    59    60    2
    71    59    58    1
    72    75    76    1
    73    75    72    1
    74    57    58    1
    75    73    72    1
    76    73    74    2
    77    72    71    1
