@<TRIPOS>MOLECULE
tmp/4tteA00.pdb
 112 109 0 0 0
SMALL
GASTEIGER

@<TRIPOS>ATOM
      1  N        -14.6210   24.8440    0.3790 N.3    29  ARG29      -0.1231
      2  CA       -14.4430   23.4070    0.5600 C.3    29  ARG29       0.1694
      3  C        -14.6410   22.9580    1.9950 C.2    29  ARG29       0.2592
      4  O        -15.2190   21.9110    2.2440 O.2    29  ARG29      -0.2718
      5  CB       -13.0600   22.9650    0.0540 C.3    29  ARG29       0.0321
      6  CG       -12.8780   21.4590    0.1070 C.3    29  ARG29       0.0489
      7  CD       -11.4120   21.0230    0.0160 C.3    29  ARG29       0.2205
      8  NE       -10.5500   21.6920    1.0030 N.pl3  29  ARG29      -0.0865
      9  CZ       -10.5280   21.4640    2.3220 C.cat  29  ARG29       0.5346
     10  NH1      -11.3240   20.5630    2.9000 N.pl3  29  ARG29       0.1354
     11  NH2       -9.6980   22.1650    3.0750 N.pl3  29  ARG29       0.1354
     12  N        -14.2170   23.7710    2.9420 N.am   30  VAL30      -0.1966
     13  CA       -14.3000   23.4010    4.3360 C.3    30  VAL30       0.1727
     14  C        -15.7390   23.3120    4.8300 C.2    30  VAL30       0.2616
     15  O        -15.9780   22.6880    5.8450 O.2    30  VAL30      -0.2715
     16  CB       -13.4920   24.3290    5.2720 C.3    30  VAL30       0.0290
     17  CG1      -12.0080   24.1580    4.9860 C.3    30  VAL30       0.0023
     18  CG2      -13.9110   25.7860    5.1670 C.3    30  VAL30       0.0023
     19  N        -16.6560   23.9210    4.0790 N.am   31  PHE31      -0.1974
     20  CA       -18.0820   23.9540    4.4310 C.3    31  PHE31       0.1639
     21  C        -18.9080   22.9420    3.6640 C.2    31  PHE31       0.2290
     22  O        -20.1450   22.9270    3.7840 O.2    31  PHE31      -0.2864
     23  CB       -18.6330   25.3630    4.1700 C.3    31  PHE31       0.0560
     24  CG       -17.8400   26.4580    4.8440 C.ar   31  PHE31      -0.0200
     25  CD1      -17.6450   26.4600    6.2320 C.ar   31  PHE31      -0.0042
     26  CD2      -17.3000   27.4870    4.1000 C.ar   31  PHE31      -0.0042
     27  CE1      -16.9020   27.4540    6.8350 C.ar   31  PHE31      -0.0003
     28  CE2      -16.5670   28.4880    4.7060 C.ar   31  PHE31      -0.0003
     29  CZ       -16.3590   28.4680    6.0760 C.ar   31  PHE31      -0.0000
     30  N        -18.8340   19.5600    3.8210 N.3    33  LYS33      -0.1231
     31  CA       -19.1310   18.3340    4.5550 C.3    33  LYS33       0.1678
     32  C        -19.1510   18.6670    6.0380 C.2    33  LYS33       0.2434
     33  O        -18.5490   19.6550    6.4620 O.2    33  LYS33      -0.2733
     34  CB       -18.0520   17.2760    4.2750 C.3    33  LYS33       0.0284
     35  CG       -18.0390   16.7370    2.8470 C.3    33  LYS33       0.0035
     36  CD       -19.3370   16.0070    2.4580 C.3    33  LYS33       0.0206
     37  CE       -19.5310   15.9610    0.9420 C.3    33  LYS33       0.1093
     38  NZ       -20.7910   15.2780    0.5180 N.3    33  LYS33      -0.1314
     39  N        -19.8190   17.8310    6.8480 N.am   34  PRO34      -0.2718
     40  CA       -19.7800   18.0920    8.2850 C.3    34  PRO34       0.1535
     41  C        -18.3500   18.0060    8.8150 C.2    34  PRO34       0.2598
     42  O        -17.5200   17.2940    8.2400 O.2    34  PRO34      -0.2715
     43  CB       -20.6370   16.9730    8.8810 C.3    34  PRO34       0.0310
     44  CG       -21.3850   16.3680    7.7480 C.3    34  PRO34       0.0237
     45  CD       -20.5410   16.5900    6.5290 C.3    34  PRO34       0.0939
     46  N        -18.0650   18.7520    9.8750 N.am   35  VAL35      -0.1964
     47  CA       -16.7620   18.6890   10.5350 C.3    35  VAL35       0.1727
     48  C        -16.5510   17.2530   11.0280 C.2    35  VAL35       0.2616
     49  O        -17.4710   16.6490   11.5810 O.2    35  VAL35      -0.2715
     50  CB       -16.6570   19.6900   11.7100 C.3    35  VAL35       0.0290
     51  CG1      -15.3820   19.4450   12.5100 C.3    35  VAL35       0.0023
     52  CG2      -16.6950   21.1260   11.2000 C.3    35  VAL35       0.0023
     53  N        -15.3550   16.7070   10.7980 N.am   36  ASP36      -0.1971
     54  CA       -15.0510   15.3130   11.1460 C.3    36  ASP36       0.1709
     55  C        -14.7640   15.1970   12.6470 C.2    36  ASP36       0.2293
     56  O        -13.8270   15.8340   13.1380 O.2    36  ASP36      -0.2864
     57  CB       -13.8380   14.8240   10.3350 C.3    36  ASP36       0.1436
     58  CG       -13.7290   13.3000   10.2760 C.2    36  ASP36       0.3671
     59  OD1      -14.1640   12.6010   11.2200 O.co2  36  ASP36      -0.2456
     60  OD2      -13.1910   12.8000    9.2650 O.co2  36  ASP36      -0.2456
     61  N        -11.8860   16.7670   14.7500 N.3    40  VAL40      -0.1245
     62  CA       -12.2740   17.7980   15.7240 C.3    40  VAL40       0.1561
     63  C        -13.3090   17.2200   16.6940 C.2    40  VAL40       0.2260
     64  O        -14.5170   17.3420   16.4650 O.2    40  VAL40      -0.2867
     65  CB       -12.8440   19.0640   15.0410 C.3    40  VAL40       0.0252
     66  CG1      -12.7440   20.2580   15.9760 C.3    40  VAL40       0.0019
     67  CG2      -12.1100   19.3660   13.7400 C.3    40  VAL40       0.0019
     68  N        -15.9510   19.5260   18.5270 N.3    43  TYR43      -0.1241
     69  CA       -16.8270   20.3580   17.6950 C.3    43  TYR43       0.1605
     70  C        -18.2860   20.1900   18.0940 C.2    43  TYR43       0.2264
     71  O        -18.9640   21.1830   18.4000 O.2    43  TYR43      -0.2867
     72  CB       -16.6700   20.0650   16.2060 C.3    43  TYR43       0.0534
     73  CG       -17.3600   21.1150   15.3600 C.ar   43  TYR43      -0.0201
     74  CD1      -16.7590   22.3520   15.1390 C.ar   43  TYR43      -0.0009
     75  CD2      -18.6350   20.8920   14.8300 C.ar   43  TYR43      -0.0009
     76  CE1      -17.3750   23.3240   14.3720 C.ar   43  TYR43       0.0417
     77  CE2      -19.2740   21.8660   14.0620 C.ar   43  TYR43       0.0417
     78  CZ       -18.6380   23.0720   13.8370 C.ar   43  TYR43       0.1957
     79  OH       -19.2480   24.0490   13.1150 O.3    43  TYR43      -0.2866
     80  N        -18.8720   28.9600   12.1390 N.3    82  ALA82      -0.1245
     81  CA       -17.4160   29.0740   11.8520 C.3    82  ALA82       0.1562
     82  C        -16.8090   30.2560   12.5980 C.2    82  ALA82       0.2260
     83  O        -15.6730   30.1630   13.0960 O.2    82  ALA82      -0.2867
     84  CB       -17.1990   29.1690   10.3430 C.3    82  ALA82       0.0290
     85  N        -16.7100   29.1410   16.4260 N.3    85  TYR85      -0.1227
     86  CA       -15.7650   28.0950   16.6970 C.3    85  TYR85       0.1736
     87  C        -14.3160   28.5310   16.4290 C.2    85  TYR85       0.2595
     88  O        -13.4020   27.9970   17.0400 O.2    85  TYR85      -0.2718
     89  CB       -16.0640   26.8420   15.9130 C.3    85  TYR85       0.0548
     90  CG       -15.2980   25.6600   16.4480 C.ar   85  TYR85      -0.0200
     91  CD1      -15.6780   25.0480   17.6540 C.ar   85  TYR85      -0.0009
     92  CD2      -14.1530   25.1870   15.8080 C.ar   85  TYR85      -0.0009
     93  CE1      -14.9700   23.9800   18.1660 C.ar   85  TYR85       0.0417
     94  CE2      -13.4440   24.1150   16.3220 C.ar   85  TYR85       0.0417
     95  CZ       -13.8510   23.5230   17.4960 C.ar   85  TYR85       0.1957
     96  OH       -13.1590   22.4620   18.0100 O.3    85  TYR85      -0.2866
     97  N        -14.1190   29.4920   15.5310 N.am   86  ASN86      -0.1974
     98  CA       -12.7430   29.9120   15.1580 C.3    86  ASN86       0.1688
     99  C        -12.5280   31.3930   15.3690 C.2    86  ASN86       0.2292
    100  O        -12.3770   32.1540   14.4130 O.2    86  ASN86      -0.2864
    101  CB       -12.4670   29.5270   13.6860 C.3    86  ASN86       0.1181
    102  CG       -12.7530   28.0860   13.3880 C.2    86  ASN86       0.2629
    103  OD1      -11.9300   27.1840   13.6370 O.2    86  ASN86      -0.2716
    104  ND2      -13.9260   27.8280   12.8310 N.am   86  ASN86      -0.0877
    105  N        -10.4530   30.8850    7.8540 N.3    96  ILE96      -0.1245
    106  CA       -11.7910   30.2870    7.9130 C.3    96  ILE96       0.1561
    107  C        -12.8820   31.3360    8.1220 C.2    96  ILE96       0.2260
    108  O        -13.9520   31.2390    7.4710 O.2    96  ILE96      -0.2867
    109  CB       -11.8940   29.0980    8.9070 C.3    96  ILE96       0.0252
    110  CG1      -13.2390   28.3750    8.7250 C.3    96  ILE96       0.0019
    111  CG2      -11.7870   29.5490   10.3180 C.3    96  ILE96       0.0019
    112  CD1      -13.1740   26.8870    9.0440 C.3    96  ILE96       0.0001
@<TRIPOS>BOND
     1     7     6    1
     2     7     8    1
     3     5     6    1
     4     5     2    1
     5     1     2    1
     6    38    37    1
     7     2     3    1
     8    37    36    1
     9     8     9    2
    10     3     4    2
    11     3    12   am
    12     9    10    1
    13     9    11    1
    14    36    35    1
    15    35    34    1
    16    12    13    1
    17    21    22    2
    18    21    20    1
    19    30    31    1
    20    19    20    1
    21    19    14   am
    22    26    28   ar
    23    26    24   ar
    24    23    20    1
    25    23    24    1
    26    34    31    1
    27    13    14    1
    28    13    16    1
    29    31    32    1
    30    28    29   ar
    31    14    15    2
    32    24    25   ar
    33    17    16    1
    34    18    16    1
    35    32    33    2
    36    32    39   am
    37    29    27   ar
    38    25    27   ar
    39    45    39    1
    40    45    44    1
    41    39    40    1
    42   108   107    2
    43    44    43    1
    44   105   106    1
    45   106   107    1
    46   106   109    1
    47    42    41    2
    48    40    41    1
    49    40    43    1
    50   110   109    1
    51   110   112    1
    52    41    46   am
    53   109   111    1
    54    60    58   ar
    55    46    47    1
    56    58    57    1
    57    58    59   ar
    58    57    54    1
    59    84    81    1
    60    47    48    1
    61    47    50    1
    62    53    48   am
    63    53    54    1
    64    48    49    2
    65    54    55    1
    66    52    50    1
    67    50    51    1
    68    81    80    1
    69    81    82    1
    70    82    83    2
    71    55    56    2
    72   104   102   am
    73    79    78    1
    74   102   103    2
    75   102   101    1
    76   101    98    1
    77    67    65    1
    78    78    77   ar
    79    78    76   ar
    80    77    75   ar
    81    76    74   ar
    82   100    99    2
    83    61    62    1
    84    75    73   ar
    85    65    62    1
    86    65    66    1
    87    74    73   ar
    88    98    99    1
    89    98    97    1
    90    73    72    1
    91    97    87   am
    92    62    63    1
    93    92    94   ar
    94    92    90   ar
    95    89    90    1
    96    89    86    1
    97    72    69    1
    98    94    95   ar
    99    85    86    1
   100    87    86    1
   101    87    88    2
   102    90    91   ar
   103    64    63    2
   104    95    96    1
   105    95    93   ar
   106    91    93   ar
   107    69    70    1
   108    69    68    1
   109    70    71    2
