@<TRIPOS>MOLECULE
tmp/4tthB00.pdb
 181 172 0 0 0
SMALL
GASTEIGER

@<TRIPOS>ATOM
      1  N        -41.3860   23.1210  -17.0320 N.3     4  GLU4       -0.1231
      2  CA       -40.0390   23.0180  -17.5790 C.3     4  GLU4        0.1699
      3  C        -39.1450   24.1450  -17.0820 C.2     4  GLU4        0.2592
      4  O        -39.5820   25.2860  -16.9430 O.2     4  GLU4       -0.2718
      5  CB       -40.0850   23.0210  -19.1090 C.3     4  GLU4        0.0402
      6  CG       -38.9230   22.4340  -19.8120 C.3     4  GLU4        0.1161
      7  CD       -39.0680   22.5030  -21.3470 C.2     4  GLU4        0.3649
      8  OE1      -40.1270   23.0110  -21.8090 O.co2   4  GLU4       -0.2457
      9  OE2      -38.1190   22.0720  -22.0720 O.co2   4  GLU4       -0.2457
     10  N        -37.8900   23.8170  -16.8080 N.am    5  ILE5       -0.1966
     11  CA       -36.9200   24.8180  -16.3870 C.3     5  ILE5        0.1730
     12  C        -35.6700   24.8190  -17.2780 C.2     5  ILE5        0.2656
     13  O        -34.6760   25.4690  -16.9550 O.2     5  ILE5       -0.2711
     14  CB       -36.5360   24.6550  -14.8880 C.3     5  ILE5        0.0290
     15  CG1      -36.1490   23.2060  -14.5710 C.3     5  ILE5        0.0022
     16  CG2      -37.6910   25.0790  -13.9950 C.3     5  ILE5        0.0023
     17  CD1      -35.9150   22.9290  -13.0930 C.3     5  ILE5        0.0001
     18  N        -35.7360   24.1030  -18.4030 N.am    6  GLY6       -0.1716
     19  CA       -34.6140   24.0000  -19.3280 C.2     6  GLY6        0.1480
     20  C        -34.9400   23.4130  -20.6950 C.2     6  GLY6        0.2820
     21  O        -35.7140   22.4600  -20.8090 O.2     6  GLY6       -0.2669
     22  N        -34.3360   23.9780  -21.7380 N.am    7  GLU7       -0.1943
     23  CA       -34.5850   23.5350  -23.1090 C.3     7  GLU7        0.1605
     24  C        -33.5400   22.5230  -23.5620 C.2     7  GLU7        0.2287
     25  O        -32.3770   22.6090  -23.1740 O.2     7  GLU7       -0.2864
     26  CB       -34.6170   24.7300  -24.0670 C.3     7  GLU7        0.0415
     27  CG       -35.6000   25.7800  -23.5640 C.3     7  GLU7        0.1163
     28  CD       -37.0500   25.4510  -23.8000 C.2     7  GLU7        0.3649
     29  OE1      -37.3110   24.3940  -24.3780 O.co2   7  GLU7       -0.2457
     30  OE2      -37.9420   26.2620  -23.4020 O.co2   7  GLU7       -0.2457
     31  N        -35.7090   19.7710  -19.6890 N.3     9  VAL9       -0.1245
     32  CA       -35.4490   19.5910  -18.2550 C.3     9  VAL9        0.1561
     33  C        -36.6560   19.9690  -17.3700 C.2     9  VAL9        0.2260
     34  O        -36.9580   21.1510  -17.1840 O.2     9  VAL9       -0.2867
     35  CB       -34.2200   20.4200  -17.8150 C.3     9  VAL9        0.0252
     36  CG1      -33.9840   20.2800  -16.3190 C.3     9  VAL9        0.0019
     37  CG2      -32.9820   20.0030  -18.6030 C.3     9  VAL9        0.0019
     38  N        -35.3270   17.7990   -9.9990 N.3    22  ALA22      -0.1245
     39  CA       -35.2550   18.0960  -11.4170 C.3    22  ALA22       0.1562
     40  C        -35.3040   16.7790  -12.1880 C.2    22  ALA22       0.2260
     41  O        -34.6170   15.8130  -11.8310 O.2    22  ALA22      -0.2867
     42  CB       -33.9870   18.8770  -11.7450 C.3    22  ALA22       0.0290
     43  N        -34.7350   15.2190  -16.0470 N.3    24  LYS24      -0.1245
     44  CA       -34.2100   15.4080  -17.3960 C.3    24  LYS24       0.1561
     45  C        -34.6030   14.1740  -18.1970 C.2    24  LYS24       0.2260
     46  O        -33.9150   13.1590  -18.1530 O.2    24  LYS24      -0.2867
     47  CB       -32.6840   15.5750  -17.3590 C.3    24  LYS24       0.0271
     48  CG       -32.0250   15.9360  -18.6860 C.3    24  LYS24       0.0035
     49  CD       -30.5220   16.2050  -18.5100 C.3    24  LYS24       0.0206
     50  CE       -29.8460   16.4850  -19.8540 C.3    24  LYS24       0.1093
     51  NZ       -28.3580   16.6440  -19.7550 N.3    24  LYS24      -0.1314
     52  N        -21.9050   12.4950  -19.1190 N.3    38  GLU38      -0.1245
     53  CA       -22.4130   13.2620  -17.9890 C.3    38  GLU38       0.1567
     54  C        -22.5250   12.4090  -16.7160 C.2    38  GLU38       0.2260
     55  O        -21.8360   12.6650  -15.7190 O.2    38  GLU38      -0.2867
     56  CB       -23.7690   13.8770  -18.3520 C.3    38  GLU38       0.0388
     57  CG       -24.2390   14.9910  -17.4240 C.3    38  GLU38       0.1160
     58  CD       -25.5010   15.7060  -17.9240 C.2    38  GLU38       0.3649
     59  OE1      -25.9260   15.4550  -19.0820 O.co2  38  GLU38      -0.2457
     60  OE2      -26.0620   16.5260  -17.1590 O.co2  38  GLU38      -0.2457
     61  N        -24.1700   19.4650   -8.4820 N.3    54  VAL54      -0.1245
     62  CA       -25.4780   18.8360   -8.3230 C.3    54  VAL54       0.1561
     63  C        -25.3510   17.3310   -8.1080 C.2    54  VAL54       0.2260
     64  O        -24.4090   16.7120   -8.5860 O.2    54  VAL54      -0.2867
     65  CB       -26.3930   19.1480   -9.5320 C.3    54  VAL54       0.0252
     66  CG1      -25.6570   18.9130  -10.8430 C.3    54  VAL54       0.0019
     67  CG2      -27.6920   18.3510   -9.4810 C.3    54  VAL54       0.0019
     68  N        -32.3140   14.3400  -10.9540 N.3    68  PHE68      -0.1227
     69  CA       -31.3550   15.1120  -10.1630 C.3    68  PHE68       0.1736
     70  C        -31.9310   15.7470   -8.8860 C.2    68  PHE68       0.2595
     71  O        -33.1030   15.5620   -8.5570 O.2    68  PHE68      -0.2718
     72  CB       -30.7920   16.2350  -11.0170 C.3    68  PHE68       0.0547
     73  CG       -29.8820   15.7760  -12.1010 C.ar   68  PHE68      -0.0202
     74  CD1      -30.3320   15.6820  -13.4090 C.ar   68  PHE68      -0.0042
     75  CD2      -28.5640   15.4550  -11.8240 C.ar   68  PHE68      -0.0042
     76  CE1      -29.4850   15.2760  -14.4130 C.ar   68  PHE68      -0.0003
     77  CE2      -27.7100   15.0450  -12.8310 C.ar   68  PHE68      -0.0003
     78  CZ       -28.1740   14.9560  -14.1240 C.ar   68  PHE68      -0.0000
     79  N        -31.1000   16.5100   -8.1750 N.am   69  GLU69      -0.1965
     80  CA       -31.5990   17.3830   -7.1160 C.3    69  GLU69       0.1733
     81  C        -32.1050   18.6980   -7.7150 C.2    69  GLU69       0.2616
     82  O        -31.5790   19.1780   -8.7280 O.2    69  GLU69      -0.2715
     83  CB       -30.5430   17.6290   -6.0220 C.3    69  GLU69       0.0429
     84  CG       -29.4560   18.6650   -6.3270 C.3    69  GLU69       0.1163
     85  CD       -28.4250   18.7980   -5.1950 C.2    69  GLU69       0.3649
     86  OE1      -28.7490   18.4150   -4.0490 O.co2  69  GLU69      -0.2457
     87  OE2      -27.2900   19.2750   -5.4460 O.co2  69  GLU69      -0.2457
     88  N        -33.1420   19.2650   -7.1010 N.am   70  HIS70      -0.1959
     89  CA       -33.7000   20.5380   -7.5550 C.3    70  HIS70       0.1787
     90  C        -33.0190   21.7330   -6.9150 C.2    70  HIS70       0.2620
     91  O        -32.6060   21.6920   -5.7570 O.2    70  HIS70      -0.2715
     92  CB       -35.2020   20.6290   -7.2970 C.3    70  HIS70       0.0785
     93  CG       -35.7990   21.9330   -7.7260 C.ar   70  HIS70       0.0821
     94  ND1      -36.2660   22.1550   -9.0030 N.ar   70  HIS70      -0.2267
     95  CD2      -35.9810   23.0940   -7.0520 C.ar   70  HIS70       0.1154
     96  CE1      -36.7190   23.3910   -9.0970 C.ar   70  HIS70       0.1986
     97  NE2      -36.5540   23.9840   -7.9270 N.ar   70  HIS70      -0.2212
     98  N        -32.9070   22.8000   -7.6900 N.am   71  VAL71      -0.1963
     99  CA       -32.3720   24.0470   -7.1960 C.3    71  VAL71       0.1727
    100  C        -33.4110   25.1300   -7.4460 C.2    71  VAL71       0.2616
    101  O        -34.1740   25.0520   -8.4070 O.2    71  VAL71      -0.2715
    102  CB       -31.0060   24.3720   -7.8410 C.3    71  VAL71       0.0290
    103  CG1      -30.7130   25.8510   -7.7860 C.3    71  VAL71       0.0023
    104  CG2      -29.8940   23.5970   -7.1490 C.3    71  VAL71       0.0023
    105  N        -33.4740   26.0840   -6.5200 N.am   72  ASP72      -0.1957
    106  CA       -34.3160   27.2720   -6.6020 C.3    72  ASP72       0.1840
    107  C        -34.3420   27.8400   -8.0250 C.2    72  ASP72       0.2622
    108  O        -35.3820   27.8470   -8.6980 O.2    72  ASP72      -0.2715
    109  CB       -33.7660   28.3020   -5.5970 C.3    72  ASP72       0.1450
    110  CG       -34.5910   29.5830   -5.5200 C.2    72  ASP72       0.3671
    111  OD1      -35.6440   29.6910   -6.1900 O.co2  72  ASP72      -0.2456
    112  OD2      -34.1740   30.4840   -4.7580 O.co2  72  ASP72      -0.2456
    113  N        -33.1830   28.2860   -8.4900 N.am   73  GLN73      -0.1963
    114  CA       -33.1040   28.9390   -9.7800 C.3    73  GLN73       0.1733
    115  C        -31.7090   28.8480  -10.3880 C.2    73  GLN73       0.2616
    116  O        -30.7230   28.5860   -9.6940 O.2    73  GLN73      -0.2715
    117  CB       -33.4770   30.4070   -9.6150 C.3    73  GLN73       0.0408
    118  CG       -32.5820   31.1440   -8.6400 C.3    73  GLN73       0.0908
    119  CD       -32.7280   32.6470   -8.7520 C.2    73  GLN73       0.2608
    120  OE1      -33.3220   33.1540   -9.7090 O.2    73  GLN73      -0.2717
    121  NE2      -32.1880   33.3720   -7.7740 N.am   73  GLN73      -0.0878
    122  N        -31.6340   29.0750  -11.6930 N.am   74  ASP74      -0.1971
    123  CA       -30.3560   29.2430  -12.3630 C.3    74  ASP74       0.1709
    124  C        -29.9090   30.6740  -12.1690 C.2    74  ASP74       0.2293
    125  O        -30.7360   31.5770  -12.0770 O.2    74  ASP74      -0.2864
    126  CB       -30.5230   28.9850  -13.8510 C.3    74  ASP74       0.1436
    127  CG       -31.6920   29.7530  -14.4320 C.2    74  ASP74       0.3671
    128  OD1      -32.5770   30.1400  -13.6300 O.co2  74  ASP74      -0.2456
    129  OD2      -31.7340   29.9650  -15.6690 O.co2  74  ASP74      -0.2456
    130  N        -29.0700   32.6020  -14.2380 N.3    76  THR76      -0.1203
    131  CA       -29.6920   33.4150  -15.2860 C.3    76  THR76       0.1994
    132  C        -30.9340   34.1340  -14.7600 C.2    76  THR76       0.2618
    133  O        -31.0680   35.3420  -14.9430 O.2    76  THR76      -0.2717
    134  CB       -30.0190   32.5960  -16.5810 C.3    76  THR76       0.1784
    135  OG1      -28.9320   32.7060  -17.5120 O.3    76  THR76      -0.2211
    136  CG2      -31.2830   33.1110  -17.2590 C.3    76  THR76       0.0376
    137  N        -31.8270   33.4000  -14.1000 N.am   77  THR77      -0.1952
    138  CA       -33.0240   34.0010  -13.5110 C.3    77  THR77       0.1897
    139  C        -32.6500   34.9270  -12.3600 C.2    77  THR77       0.2313
    140  O        -33.2760   35.9640  -12.1450 O.2    77  THR77      -0.2863
    141  CB       -33.9970   32.9410  -12.9680 C.3    77  THR77       0.1794
    142  OG1      -34.3370   32.0200  -14.0060 O.3    77  THR77      -0.2208
    143  CG2      -35.2680   33.5990  -12.4490 C.3    77  THR77       0.0378
    144  N        -26.6360   29.9720  -17.5460 N.3   119  GLN119     -0.1231
    145  CA       -27.7640   29.0840  -17.7830 C.3   119  GLN119      0.1698
    146  C        -27.5430   27.7860  -17.0010 C.2   119  GLN119      0.2592
    147  O        -28.4940   27.1520  -16.5350 O.2   119  GLN119     -0.2718
    148  CB       -27.8890   28.7680  -19.2880 C.3   119  GLN119      0.0381
    149  CG       -28.6160   29.8060  -20.1650 C.3   119  GLN119      0.0905
    150  CD       -27.8650   31.1310  -20.3240 C.2   119  GLN119      0.2608
    151  OE1      -26.7240   31.2780  -19.8840 O.2   119  GLN119     -0.2717
    152  NE2      -28.5180   32.1040  -20.9560 N.am  119  GLN119     -0.0878
    153  N        -26.2720   27.4070  -16.8650 N.am  120  ASN120     -0.1974
    154  CA       -25.8680   26.0990  -16.3410 C.3   120  ASN120      0.1688
    155  C        -25.5840   26.1320  -14.8420 C.2   120  ASN120      0.2292
    156  O        -25.8300   25.1550  -14.1380 O.2   120  ASN120     -0.2864
    157  CB       -24.5990   25.5950  -17.0630 C.3   120  ASN120      0.1181
    158  CG       -24.8960   24.7470  -18.3070 C.2   120  ASN120      0.2629
    159  OD1      -26.0180   24.2940  -18.5280 O.2   120  ASN120     -0.2716
    160  ND2      -23.8630   24.5120  -19.1060 N.am  120  ASN120     -0.0877
    161  N        -25.9950   26.8800  -10.9890 N.3   122  LEU122     -0.1245
    162  CA       -27.1970   26.9180  -10.1570 C.3   122  LEU122      0.1561
    163  C        -27.0170   27.5250   -8.7610 C.2   122  LEU122      0.2260
    164  O        -25.9190   27.5310   -8.1950 O.2   122  LEU122     -0.2867
    165  CB       -27.8220   25.5300  -10.0560 C.3   122  LEU122      0.0270
    166  CG       -28.1610   24.8920  -11.3940 C.3   122  LEU122      0.0019
    167  CD1      -28.9740   23.6720  -11.1130 C.3   122  LEU122      0.0001
    168  CD2      -28.9140   25.8640  -12.2810 C.3   122  LEU122      0.0001
    169  N        -23.9260   22.5810  -13.1070 N.3   132  ALA132     -0.1231
    170  CA       -24.7320   21.5550  -13.7760 C.3   132  ALA132      0.1694
    171  C        -24.5030   21.4100  -15.2950 C.2   132  ALA132      0.2592
    172  O        -23.7230   22.1500  -15.8990 O.2   132  ALA132     -0.2718
    173  CB       -26.2070   21.7440  -13.4600 C.3   132  ALA132      0.0304
    174  N        -25.2000   20.4420  -15.8880 N.am  133  ASP133     -0.1974
    175  CA       -24.9940   20.0240  -17.2810 C.3   133  ASP133      0.1709
    176  C        -23.5470   19.6920  -17.5960 C.2   133  ASP133      0.2293
    177  O        -22.7440   20.5730  -17.9170 O.2   133  ASP133     -0.2864
    178  CB       -25.5210   21.0450  -18.2850 C.3   133  ASP133      0.1436
    179  CG       -25.5540   20.4900  -19.6990 C.2   133  ASP133      0.3671
    180  OD1      -24.5090   20.5270  -20.3920 O.co2 133  ASP133     -0.2456
    181  OD2      -26.6230   19.9900  -20.1090 O.co2 133  ASP133     -0.2456
@<TRIPOS>BOND
     1    29    28   ar
     2    26    27    1
     3    26    23    1
     4    28    27    1
     5    28    30   ar
     6    24    25    2
     7    24    23    1
     8    23    22    1
     9     9     7   ar
    10     8     7   ar
    11    22    20   am
    12     7     6    1
    13   152   150   am
    14    21    20    2
    15    20    19    1
    16   180   179   ar
    17   150   149    1
    18   150   151    2
    19   149   148    1
    20   181   179   ar
    21    50    51    1
    22    50    49    1
    23     6     5    1
    24   179   178    1
    25    31    32    1
    26    19    18    2
    27   148   145    1
    28    52    53    1
    29     5     2    1
    30   160   158   am
    31    59    58   ar
    32    48    49    1
    33    48    47    1
    34    37    35    1
    35   159   158    2
    36    18    12    1
    37    56    53    1
    38    56    57    1
    39   158   157    1
    40   178   175    1
    41    32    35    1
    42    32    33    1
    43    45    46    2
    44    45    44    1
    45    53    54    1
    46    58    57    1
    47    58    60   ar
    48   177   176    2
    49    35    36    1
    50   145   144    1
    51   145   146    1
    52   176   175    1
    53     2     3    1
    54     2     1    1
    55   135   134    1
    56    44    47    1
    57    44    43    1
    58    33    34    2
    59   175   174    1
    60    12    13    2
    61    12    11    1
    62   136   134    1
    63     3     4    2
    64     3    10   am
    65   157   154    1
    66   146   153   am
    67   146   147    2
    68   153   154    1
    69    10    11    1
    70    54    55    2
    71   134   131    1
    72    11    14    1
    73   154   155    1
    74   172   171    2
    75   174   171   am
    76   129   127   ar
    77   171   170    1
    78   131   132    1
    79   131   130    1
    80   133   132    2
    81    14    15    1
    82    14    16    1
    83   155   156    2
    84   132   137   am
    85    15    17    1
    86   127   126    1
    87   127   128   ar
    88    76    78   ar
    89    76    74   ar
    90    78    77   ar
    91   137   138    1
    92   142   141    1
    93   126   123    1
    94   170   173    1
    95   170   169    1
    96   138   141    1
    97   138   139    1
    98    74    73   ar
    99   141   143    1
   100    77    75   ar
   101   123   124    1
   102   123   122    1
   103   139   140    2
   104   168   166    1
   105    40    41    2
   106    40    39    1
   107   124   125    2
   108    73    75   ar
   109    73    72    1
   110    42    39    1
   111   122   115   am
   112    39    38    1
   113   166   167    1
   114   166   165    1
   115    72    69    1
   116   161   162    1
   117    68    69    1
   118    66    65    1
   119   115   114    1
   120   115   116    2
   121    69    70    1
   122   162   165    1
   123   162   163    1
   124   114   117    1
   125   114   113    1
   126   120   119    2
   127   117   118    1
   128    65    67    1
   129    65    62    1
   130    96    94   ar
   131    96    97   ar
   132    94    93   ar
   133    70    71    2
   134    70    79   am
   135   163   164    2
   136   119   118    1
   137   119   121   am
   138    82    81    2
   139   108   107    2
   140    64    63    2
   141   113   107   am
   142    61    62    1
   143   101   100    2
   144    62    63    1
   145    79    80    1
   146   107   106    1
   147    97    95   ar
   148   102   103    1
   149   102    99    1
   150   102   104    1
   151    93    92    1
   152    93    95   ar
   153    81    80    1
   154    81    88   am
   155    98    99    1
   156    98    90   am
   157    89    92    1
   158    89    88    1
   159    89    90    1
   160   100    99    1
   161   100   105   am
   162    80    83    1
   163    90    91    2
   164   106   105    1
   165   106   109    1
   166    84    83    1
   167    84    85    1
   168   111   110   ar
   169   109   110    1
   170   110   112   ar
   171    87    85   ar
   172    85    86   ar
