@<TRIPOS>MOLECULE
tmp/4ttqA00.pdb
 118 112 0 0 0
SMALL
GASTEIGER

@<TRIPOS>ATOM
      1  N         15.0660   -5.0510   22.3120 N.3    10  ASN10      -0.1225
      2  CA        15.0890   -5.8060   21.0700 C.3    10  ASN10       0.1785
      3  C         13.7360   -5.5230   20.4330 C.2    10  ASN10       0.2597
      4  O         12.9190   -4.7730   20.9890 O.2    10  ASN10      -0.2718
      5  CB        15.4400   -7.3290   21.2670 C.3    10  ASN10       0.1169
      6  CG        14.4840   -8.1020   22.1890 C.2    10  ASN10       0.2627
      7  OD1       13.5450   -7.5750   22.7790 O.2    10  ASN10      -0.2716
      8  ND2       14.7340   -9.3950   22.2930 N.am   10  ASN10      -0.0877
      9  N         13.5200   -6.0400   19.2360 N.am   11  ILE11      -0.1966
     10  CA        12.3860   -5.5970   18.4480 C.3    11  ILE11       0.1727
     11  C         11.1090   -6.0160   19.1450 C.2    11  ILE11       0.2616
     12  O         11.0560   -7.0870   19.7320 O.2    11  ILE11      -0.2715
     13  CB        12.4470   -6.1650   16.9900 C.3    11  ILE11       0.0290
     14  CG1       11.2880   -5.6020   16.1600 C.3    11  ILE11       0.0022
     15  CG2       12.4840   -7.7150   16.9880 C.3    11  ILE11       0.0023
     16  CD1       11.4220   -5.8610   14.6760 C.3    11  ILE11       0.0001
     17  N         10.0950   -5.1530   19.1190 N.am   12  ALA12      -0.1963
     18  CA         8.8100   -5.5050   19.6950 C.3    12  ALA12       0.1728
     19  C          8.9340   -6.0160   21.1350 C.2    12  ALA12       0.2617
     20  O          8.1750   -6.8750   21.5520 O.2    12  ALA12      -0.2715
     21  CB         8.1520   -6.5550   18.8450 C.3    12  ALA12       0.0334
     22  N          9.9050   -5.5050   21.8810 N.am   13  SER13      -0.1936
     23  CA        10.1020   -5.8870   23.2860 C.3    13  SER13       0.2055
     24  C          9.1970   -5.1440   24.2440 C.2    13  SER13       0.2644
     25  O          8.9600   -5.5920   25.3640 O.2    13  SER13      -0.2714
     26  CB        11.5290   -5.6020   23.6880 C.3    13  SER13       0.2130
     27  OG        11.7760   -4.2020   23.6300 O.3    13  SER13      -0.2179
     28  N          8.7570   -3.9660   23.8180 N.am   14  GLY14      -0.1939
     29  CA         7.8610   -3.1550   24.6020 C.3    14  GLY14       0.2014
     30  C          8.5140   -1.8790   25.1070 C.2    14  GLY14       0.2639
     31  O          8.0160   -1.2760   26.0690 O.2    14  GLY14      -0.2714
     32  N          9.6040   -1.4450   24.4730 N.am   15  LYS15      -0.1963
     33  CA        10.4370   -0.4850   25.1540 C.3    15  LYS15       0.1728
     34  C          9.7810    0.8730   25.1270 C.2    15  LYS15       0.2617
     35  O          9.9220    1.6450   26.0630 O.2    15  LYS15      -0.2715
     36  CB        11.8520   -0.4560   24.5880 C.3    15  LYS15       0.0311
     37  CG        12.0070    0.0620   23.2670 C.3    15  LYS15       0.0038
     38  CD        13.4660    0.4440   23.0190 C.3    15  LYS15       0.0206
     39  CE        13.7020    0.7510   21.5040 C.3    15  LYS15       0.1093
     40  NZ        13.5430   -0.5080   20.6610 N.3    15  LYS15      -0.1314
     41  N          9.0200    1.1460   24.0860 N.am   16  SER16      -0.1936
     42  CA         8.2640    2.3670   24.0630 C.3    16  SER16       0.2055
     43  C          7.3310    2.4790   25.2490 C.2    16  SER16       0.2643
     44  O          7.1520    3.5530   25.7970 O.2    16  SER16      -0.2714
     45  CB         7.4660    2.4700   22.7720 C.3    16  SER16       0.2130
     46  OG         8.2730    3.0940   21.8010 O.3    16  SER16      -0.2179
     47  N          6.7080    1.3730   25.6170 N.am   17  THR17      -0.1950
     48  CA         5.7700    1.3800   26.7210 C.3    17  THR17       0.1897
     49  C          6.5380    1.6110   28.0090 C.2    17  THR17       0.2313
     50  O          6.0630    2.2750   28.9290 O.2    17  THR17      -0.2863
     51  CB         4.9990    0.0700   26.7650 C.3    17  THR17       0.1794
     52  OG1        4.4120   -0.1470   25.4770 O.3    17  THR17      -0.2208
     53  CG2        3.9180    0.1040   27.8170 C.3    17  THR17       0.0378
     54  N          3.4430   -9.6720   18.4050 N.3   140  ARG140     -0.1245
     55  CA         3.5290   -8.2400   18.2500 C.3   140  ARG140      0.1563
     56  C          3.8580   -7.8920   16.7970 C.2   140  ARG140      0.2260
     57  O          3.2400   -7.0150   16.2080 O.2   140  ARG140     -0.2867
     58  CB         4.5750   -7.6760   19.2170 C.3   140  ARG140      0.0307
     59  CG         4.2180   -6.3290   19.8350 C.3   140  ARG140      0.0489
     60  CD         3.9200   -6.4550   21.3360 C.3   140  ARG140      0.2205
     61  NE         5.1210   -6.7700   22.1110 N.pl3 140  ARG140     -0.0865
     62  CZ         5.1180   -7.3450   23.3010 C.cat 140  ARG140      0.5346
     63  NH1        3.9720   -7.6600   23.8930 N.pl3 140  ARG140      0.1354
     64  NH2        6.2630   -7.5740   23.9130 N.pl3 140  ARG140      0.1354
     65  N          0.8160   -8.3600   14.4690 N.3   143  LYS143     -0.1231
     66  CA        -0.2180   -7.3100   14.5570 C.3   143  LYS143      0.1693
     67  C          0.2270   -6.0160   13.8740 C.2   143  LYS143      0.2591
     68  O         -0.5930   -5.2360   13.3920 O.2   143  LYS143     -0.2718
     69  CB        -0.5740   -7.0100   16.0120 C.3   143  LYS143      0.0285
     70  CG         0.5810   -6.4010   16.8040 C.3   143  LYS143      0.0035
     71  CD         0.2010   -5.7640   18.1400 C.3   143  LYS143      0.0206
     72  CE         1.2280   -4.7170   18.5360 C.3   143  LYS143      0.1093
     73  NZ         1.1460   -3.5220   17.6960 N.3   143  LYS143     -0.1314
     74  N          1.5390   -5.8080   13.8390 N.am  144  ARG144     -0.1980
     75  CA         2.1340   -4.5490   13.3930 C.3   144  ARG144      0.1597
     76  C          2.6030   -4.5820   11.9450 C.2   144  ARG144      0.2287
     77  O          2.6770   -3.5520   11.2930 O.2   144  ARG144     -0.2864
     78  CB         3.3290   -4.2080   14.2860 C.3   144  ARG144      0.0334
     79  CG         3.8220   -2.7850   14.1900 C.3   144  ARG144      0.0492
     80  CD         5.0390   -2.5840   15.0850 C.3   144  ARG144      0.2205
     81  NE         4.8810   -1.4480   16.0040 N.pl3 144  ARG144     -0.0865
     82  CZ         4.8080   -1.5240   17.3370 C.cat 144  ARG144      0.5346
     83  NH1        4.8780   -2.6940   17.9780 N.pl3 144  ARG144      0.1354
     84  NH2        4.6690   -0.4060   18.0420 N.pl3 144  ARG144      0.1354
     85  N         10.0930   -8.5770   29.6530 N.3   175  ASN175     -0.1240
     86  CA         8.7110   -8.1900   29.4760 C.3   175  ASN175      0.1653
     87  C          7.9100   -9.3720   29.0650 C.2   175  ASN175      0.2266
     88  O          7.6980   -9.6020   27.8690 O.2   175  ASN175     -0.2867
     89  CB         8.5790   -7.0810   28.4420 C.3   175  ASN175      0.1155
     90  CG         7.1430   -6.6180   28.2640 C.2   175  ASN175      0.2627
     91  OD1        6.3100   -6.8430   29.1260 O.2   175  ASN175     -0.2716
     92  ND2        6.8510   -5.9580   27.1360 N.am  175  ASN175     -0.0877
     93  N          5.0230  -10.8050   31.1200 N.3   177  SER177     -0.1202
     94  CA         3.6350  -10.9740   31.5770 C.3   177  SER177      0.2020
     95  C          2.8370   -9.8530   30.9110 C.2   177  SER177      0.2619
     96  O          2.9920   -9.6440   29.7300 O.2   177  SER177     -0.2717
     97  CB         3.5170  -10.9440   33.1130 C.3   177  SER177      0.2103
     98  OG         4.7160  -11.3730   33.7400 O.3   177  SER177     -0.2182
     99  N          1.9990   -9.1420   31.6580 N.am  178  GLY178     -0.1942
    100  CA         1.1690   -8.0980   31.0930 C.3   178  GLY178      0.2014
    101  C          1.7060   -6.7010   31.3590 C.2   178  GLY178      0.2638
    102  O          2.7710   -6.5150   31.9340 O.2   178  GLY178     -0.2714
    103  N          0.9480   -5.7150   30.9250 N.am  179  LEU179     -0.1977
    104  CA         1.3060   -4.3290   31.1430 C.3   179  LEU179      0.1596
    105  C          1.4590   -4.0460   32.6060 C.2   179  LEU179      0.2287
    106  O          2.3090   -3.2730   33.0220 O.2   179  LEU179     -0.2864
    107  CB         0.2440   -3.4190   30.5460 C.3   179  LEU179      0.0297
    108  CG         0.3140   -3.4040   29.0360 C.3   179  LEU179      0.0022
    109  CD1       -0.8660   -2.6240   28.5050 C.3   179  LEU179      0.0001
    110  CD2        1.6120   -2.7710   28.5460 C.3   179  LEU179      0.0001
    111  N          4.6230   -5.0990   33.8560 N.3   182  LEU182     -0.1245
    112  CA         5.6220   -4.2610   33.2410 C.3   182  LEU182      0.1561
    113  C          5.7710   -2.9510   34.0440 C.2   182  LEU182      0.2260
    114  O          6.8760   -2.5310   34.4020 O.2   182  LEU182     -0.2867
    115  CB         5.2480   -4.0030   31.8050 C.3   182  LEU182      0.0270
    116  CG         6.2710   -3.1830   31.0570 C.3   182  LEU182      0.0019
    117  CD1        7.5720   -3.9570   30.9850 C.3   182  LEU182      0.0001
    118  CD2        5.7660   -2.8420   29.6740 C.3   182  LEU182      0.0001
@<TRIPOS>BOND
     1    77    76    2
     2    76    75    1
     3    68    67    2
     4    75    74    1
     5    75    78    1
     6    74    67   am
     7    67    66    1
     8    79    78    1
     9    79    80    1
    10    65    66    1
    11    66    69    1
    12    16    14    1
    13    80    81    1
    14    81    82    2
    15    69    70    1
    16    14    13    1
    17    57    56    2
    18    56    55    1
    19    70    71    1
    20    15    13    1
    21    13    10    1
    22    82    83    1
    23    82    84    1
    24    73    72    1
    25    71    72    1
    26    55    54    1
    27    55    58    1
    28    10    11    1
    29    10     9    1
    30    21    18    1
    31    17    11   am
    32    17    18    1
    33    11    12    2
    34    58    59    1
    35     9     3   am
    36    18    19    1
    37    59    60    1
    38     3     4    2
    39     3     2    1
    40    40    39    1
    41     2     5    1
    42     2     1    1
    43    19    20    2
    44    19    22   am
    45     5     6    1
    46    60    61    1
    47    39    38    1
    48    46    45    1
    49    22    23    1
    50    61    62    2
    51     6     8   am
    52     6     7    2
    53    45    42    1
    54    38    37    1
    55    37    36    1
    56    23    26    1
    57    23    24    1
    58    62    63    1
    59    62    64    1
    60    27    26    1
    61    28    24   am
    62    28    29    1
    63    42    41    1
    64    42    43    1
    65    41    34   am
    66    24    25    2
    67    32    30   am
    68    32    33    1
    69    36    33    1
    70    29    30    1
    71    30    31    2
    72    34    33    1
    73    34    35    2
    74    43    47   am
    75    43    44    2
    76    52    51    1
    77    47    48    1
    78    48    51    1
    79    48    49    1
    80    51    53    1
    81    92    90   am
    82    88    87    2
    83    49    50    2
    84    90    89    1
    85    90    91    2
    86    89    86    1
    87   109   108    1
    88   110   108    1
    89   108   107    1
    90    87    86    1
    91    86    85    1
    92   118   116    1
    93    96    95    2
    94   107   104    1
    95    95    94    1
    96    95    99   am
    97   103   104    1
    98   103   101   am
    99   117   116    1
   100   116   115    1
   101   100   101    1
   102   100    99    1
   103    93    94    1
   104   104   105    1
   105   101   102    2
   106    94    97    1
   107   115   112    1
   108   105   106    2
   109    97    98    1
   110   112   111    1
   111   112   113    1
   112   113   114    2
