@<TRIPOS>MOLECULE
tmp/4ttsA00.pdb
 197 189 0 0 0
SMALL
GASTEIGER

@<TRIPOS>ATOM
      1  N         22.6120  -23.8140  -17.1620 N.3    58  ARG58      -0.1245
      2  CA        21.7000  -23.1170  -18.0700 C.3    58  ARG58       0.1563
      3  C         20.5260  -24.0690  -18.3560 C.2    58  ARG58       0.2260
      4  O         20.6510  -25.2790  -18.1460 O.2    58  ARG58      -0.2867
      5  CB        22.4170  -22.6750  -19.3630 C.3    58  ARG58       0.0307
      6  CG        23.5850  -21.6870  -19.1470 C.3    58  ARG58       0.0489
      7  CD        24.1110  -21.0670  -20.4410 C.3    58  ARG58       0.2205
      8  NE        23.0750  -20.2990  -21.1220 N.pl3  58  ARG58      -0.0865
      9  CZ        22.6070  -20.5950  -22.3300 C.cat  58  ARG58       0.5346
     10  NH1       23.1030  -21.6320  -22.9950 N.pl3  58  ARG58       0.1354
     11  NH2       21.6510  -19.8510  -22.8760 N.pl3  58  ARG58       0.1354
     12  N         18.5660  -23.8360  -21.3970 N.3    60  ARG60      -0.1245
     13  CA        18.4460  -23.9540  -22.8540 C.3    60  ARG60       0.1563
     14  C         19.7450  -24.3690  -23.5580 C.2    60  ARG60       0.2260
     15  O         20.8470  -24.0840  -23.0690 O.2    60  ARG60      -0.2867
     16  CB        17.9620  -22.6290  -23.4580 C.3    60  ARG60       0.0307
     17  CG        16.6360  -22.1180  -22.8990 C.3    60  ARG60       0.0489
     18  CD        16.1520  -20.8810  -23.6510 C.3    60  ARG60       0.2205
     19  NE        15.9580  -21.1730  -25.0690 N.pl3  60  ARG60      -0.0865
     20  CZ        16.7900  -20.8030  -26.0400 C.cat  60  ARG60       0.5346
     21  NH1       17.8810  -20.0960  -25.7550 N.pl3  60  ARG60       0.1354
     22  NH2       16.5220  -21.1340  -27.2990 N.pl3  60  ARG60       0.1354
     23  N         10.7970  -13.2550  -11.1720 N.3    83  LEU83      -0.1245
     24  CA        12.1380  -13.1630  -11.7550 C.3    83  LEU83       0.1561
     25  C         12.7240  -11.7800  -11.5400 C.2    83  LEU83       0.2260
     26  O         12.6360  -10.9290  -12.4340 O.2    83  LEU83      -0.2867
     27  CB        12.1090  -13.4600  -13.2580 C.3    83  LEU83       0.0270
     28  CG        12.0660  -14.9030  -13.7660 C.3    83  LEU83       0.0019
     29  CD1       10.7630  -15.5920  -13.3920 C.3    83  LEU83       0.0001
     30  CD2       12.2760  -14.9270  -15.2880 C.3    83  LEU83       0.0001
     31  N         16.0360  -10.4160  -10.8620 N.3    85  PHE85      -0.1227
     32  CA        17.0840  -10.1040  -11.8160 C.3    85  PHE85       0.1736
     33  C         17.6450  -11.3980  -12.3790 C.2    85  PHE85       0.2596
     34  O         18.5130  -12.0310  -11.7780 O.2    85  PHE85      -0.2718
     35  CB        18.1550   -9.2290  -11.1660 C.3    85  PHE85       0.0547
     36  CG        19.4170   -9.1390  -11.9590 C.ar   85  PHE85      -0.0202
     37  CD1       19.3990   -8.6740  -13.2650 C.ar   85  PHE85      -0.0042
     38  CD2       20.6270   -9.5200  -11.3980 C.ar   85  PHE85      -0.0042
     39  CE1       20.5670   -8.5950  -14.0030 C.ar   85  PHE85      -0.0003
     40  CE2       21.8040   -9.4420  -12.1270 C.ar   85  PHE85      -0.0003
     41  CZ        21.7730   -8.9810  -13.4330 C.ar   85  PHE85      -0.0000
     42  N         17.1210  -11.8000  -13.5310 N.am   86  CYS86      -0.1956
     43  CA        17.4500  -13.0980  -14.0920 C.3    86  CYS86       0.1843
     44  C         18.4470  -13.0100  -15.2520 C.2    86  CYS86       0.2626
     45  O         18.0860  -12.6350  -16.3690 O.2    86  CYS86      -0.2714
     46  CB        16.1720  -13.8150  -14.5270 C.3    86  CYS86       0.0997
     47  SG        16.4490  -15.5040  -15.0370 S.3    86  CYS86      -0.0797
     48  N         19.6930  -13.3910  -14.9810 N.am   87  SER87      -0.1936
     49  CA        20.7810  -13.2770  -15.9530 C.3    87  SER87       0.2055
     50  C         20.5640  -14.0600  -17.2480 C.2    87  SER87       0.2643
     51  O         21.3730  -13.9640  -18.1680 O.2    87  SER87      -0.2714
     52  CB        22.1030  -13.7300  -15.3330 C.3    87  SER87       0.2130
     53  OG        22.4590  -15.0200  -15.8070 O.3    87  SER87      -0.2179
     54  N         19.4960  -14.8470  -17.3260 N.am   88  GLN88      -0.1963
     55  CA        19.2370  -15.5890  -18.5580 C.3    88  GLN88       0.1733
     56  C         17.7700  -15.7850  -18.9540 C.2    88  GLN88       0.2616
     57  O         16.8460  -15.5300  -18.1690 O.2    88  GLN88      -0.2715
     58  CB        19.9820  -16.9270  -18.5550 C.3    88  GLN88       0.0408
     59  CG        20.0340  -17.6350  -17.2220 C.3    88  GLN88       0.0908
     60  CD        21.0530  -18.7590  -17.2330 C.2    88  GLN88       0.2608
     61  OE1       22.0740  -18.6830  -17.9260 O.2    88  GLN88      -0.2717
     62  NE2       20.7780  -19.8160  -16.4780 N.am   88  GLN88      -0.0878
     63  N         17.5810  -16.2340  -20.1930 N.am   89  PHE89      -0.1960
     64  CA        16.2560  -16.5010  -20.7350 C.3    89  PHE89       0.1771
     65  C         15.7600  -17.8670  -20.2460 C.2    89  PHE89       0.2619
     66  O         16.4960  -18.8610  -20.2850 O.2    89  PHE89      -0.2715
     67  CB        16.2830  -16.4410  -22.2710 C.3    89  PHE89       0.0574
     68  CG        14.9290  -16.2230  -22.9000 C.ar   89  PHE89      -0.0200
     69  CD1       14.5600  -14.9710  -23.3780 C.ar   89  PHE89      -0.0042
     70  CD2       14.0220  -17.2730  -23.0090 C.ar   89  PHE89      -0.0042
     71  CE1       13.3100  -14.7730  -23.9620 C.ar   89  PHE89      -0.0003
     72  CE2       12.7730  -17.0860  -23.5830 C.ar   89  PHE89      -0.0003
     73  CZ        12.4160  -15.8360  -24.0620 C.ar   89  PHE89      -0.0000
     74  N         14.5110  -17.8930  -19.7820 N.am   90  ILE90      -0.1977
     75  CA        13.9010  -19.0820  -19.1860 C.3    90  ILE90       0.1596
     76  C         12.8900  -19.6980  -20.1590 C.2    90  ILE90       0.2287
     77  O         12.1110  -18.9730  -20.7740 O.2    90  ILE90      -0.2864
     78  CB        13.2030  -18.7090  -17.8450 C.3    90  ILE90       0.0276
     79  CG1       14.2320  -18.1950  -16.8370 C.3    90  ILE90       0.0022
     80  CG2       12.4260  -19.8780  -17.2670 C.3    90  ILE90       0.0022
     81  CD1       15.3200  -19.1930  -16.4990 C.3    90  ILE90       0.0001
     82  N          9.7040  -21.5140  -21.9260 N.3    92  MET92      -0.1245
     83  CA         8.2720  -21.2770  -21.7230 C.3    92  MET92       0.1570
     84  C          7.6070  -22.3910  -20.9180 C.2    92  MET92       0.2261
     85  O          6.5370  -22.1940  -20.3290 O.2    92  MET92      -0.2867
     86  CB         7.5470  -21.0940  -23.0620 C.3    92  MET92       0.0387
     87  CG         7.9020  -19.7950  -23.7670 C.3    92  MET92       0.0595
     88  SD         7.7420  -18.3960  -22.6460 S.3    92  MET92      -0.1393
     89  CE         5.9600  -18.3840  -22.4010 C.3    92  MET92       0.0692
     90  N          8.1180  -21.0670  -17.5490 N.3    95  ILE95      -0.1245
     91  CA         7.4190  -19.7890  -17.4230 C.3    95  ILE95       0.1561
     92  C          5.8920  -19.9660  -17.3370 C.2    95  ILE95       0.2260
     93  O          5.2130  -19.2850  -16.5550 O.2    95  ILE95      -0.2867
     94  CB         7.7860  -18.8570  -18.6140 C.3    95  ILE95       0.0252
     95  CG1        9.2240  -18.3390  -18.4890 C.3    95  ILE95       0.0019
     96  CG2        6.8020  -17.7110  -18.7400 C.3    95  ILE95       0.0019
     97  CD1        9.3920  -17.2140  -17.4690 C.3    95  ILE95       0.0001
     98  N          8.3190  -10.5150  -14.2620 N.3   104  ILE104     -0.1231
     99  CA         9.7300  -10.1620  -14.4260 C.3   104  ILE104      0.1692
    100  C          9.9480   -8.6940  -14.1120 C.2   104  ILE104      0.2592
    101  O          9.1460   -7.8580  -14.5150 O.2   104  ILE104     -0.2718
    102  CB        10.1730  -10.4070  -15.8760 C.3   104  ILE104      0.0266
    103  CG1       10.0270  -11.9000  -16.2200 C.3   104  ILE104      0.0019
    104  CG2       11.6020   -9.9040  -16.1120 C.3   104  ILE104      0.0020
    105  CD1       10.5280  -12.2830  -17.6150 C.3   104  ILE104      0.0001
    106  N         11.0230   -8.3880  -13.3880 N.am  105  TYR105     -0.1962
    107  CA        11.4450   -7.0100  -13.1470 C.3   105  TYR105      0.1771
    108  C         12.3330   -6.5430  -14.2970 C.2   105  TYR105      0.2619
    109  O         13.2590   -7.2400  -14.7050 O.2   105  TYR105     -0.2715
    110  CB        12.2540   -6.9130  -11.8520 C.3   105  TYR105      0.0574
    111  CG        12.9310   -5.5680  -11.6380 C.ar  105  TYR105     -0.0198
    112  CD1       12.2320   -4.5000  -11.0810 C.ar  105  TYR105     -0.0009
    113  CD2       14.2630   -5.3720  -11.9730 C.ar  105  TYR105     -0.0009
    114  CE1       12.8340   -3.2790  -10.8710 C.ar  105  TYR105      0.0417
    115  CE2       14.8840   -4.1470  -11.7630 C.ar  105  TYR105      0.0417
    116  CZ        14.1550   -3.1010  -11.2230 C.ar  105  TYR105      0.1957
    117  OH        14.7520   -1.8770  -11.0130 O.3   105  TYR105     -0.2866
    118  N         12.0720   -5.3480  -14.7960 N.am  106  HIS106     -0.1973
    119  CA        12.8980   -4.8000  -15.8540 C.3   106  HIS106      0.1656
    120  C         13.1180   -3.3180  -15.6350 C.2   106  HIS106      0.2291
    121  O         12.1640   -2.5400  -15.5810 O.2   106  HIS106     -0.2864
    122  CB        12.2630   -5.0650  -17.2140 C.3   106  HIS106      0.0771
    123  CG        13.0520   -4.4860  -18.3590 C.ar  106  HIS106      0.0820
    124  ND1       14.1330   -5.1210  -18.8990 N.ar  106  HIS106     -0.2267
    125  CD2       12.9070   -3.3140  -19.0170 C.ar  106  HIS106      0.1154
    126  CE1       14.6350   -4.3670  -19.8810 C.ar  106  HIS106      0.1986
    127  NE2       13.9090   -3.2750  -19.9680 N.ar  106  HIS106     -0.2212
    128  N         15.8430   -5.3760  -23.4830 N.3   115  GLY115     -0.1210
    129  CA        17.2200   -5.8460  -23.5130 C.3   115  GLY115      0.1956
    130  C         17.8490   -5.8610  -22.1350 C.2   115  GLY115      0.2611
    131  O         17.3070   -5.3090  -21.1910 O.2   115  GLY115     -0.2717
    132  N         19.0050   -6.4940  -22.0140 N.am  116  ALA116     -0.1979
    133  CA        19.5580   -6.7850  -20.6970 C.3   116  ALA116      0.1597
    134  C         20.3570   -5.6270  -20.0960 C.2   116  ALA116      0.2287
    135  O         20.6990   -5.6700  -18.9220 O.2   116  ALA116     -0.2864
    136  CB        20.4070   -8.0480  -20.7570 C.3   116  ALA116      0.0319
    137  N          6.4100   -6.9420  -15.4900 N.3   135  PHE135     -0.1241
    138  CA         5.5890   -7.4220  -16.5980 C.3   135  PHE135      0.1605
    139  C          5.4440   -8.9260  -16.5590 C.2   135  PHE135      0.2264
    140  O          6.2520   -9.6140  -15.9440 O.2   135  PHE135     -0.2867
    141  CB         6.1490   -6.9740  -17.9620 C.3   135  PHE135      0.0534
    142  CG         7.4360   -7.6660  -18.3700 C.ar  135  PHE135     -0.0203
    143  CD1        8.6710   -7.1020  -18.0730 C.ar  135  PHE135     -0.0042
    144  CD2        7.4120   -8.8580  -19.0810 C.ar  135  PHE135     -0.0042
    145  CE1        9.8610   -7.7230  -18.4560 C.ar  135  PHE135     -0.0003
    146  CE2        8.6100   -9.4790  -19.4700 C.ar  135  PHE135     -0.0003
    147  CZ         9.8220   -8.9060  -19.1580 C.ar  135  PHE135     -0.0000
    148  N          5.7570  -12.4630  -18.0910 N.3   137  ALA137     -0.1231
    149  CA         6.6390  -13.0540  -19.0870 C.3   137  ALA137      0.1694
    150  C          5.8690  -13.6810  -20.2460 C.2   137  ALA137      0.2592
    151  O          4.9040  -14.4340  -20.0440 O.2   137  ALA137     -0.2718
    152  CB         7.5570  -14.0740  -18.4510 C.3   137  ALA137      0.0304
    153  N          6.2850  -13.3570  -21.4650 N.am  138  ASP138     -0.1974
    154  CA         5.8770  -14.1690  -22.6140 C.3   138  ASP138      0.1709
    155  C          7.1060  -14.7260  -23.3490 C.2   138  ASP138      0.2293
    156  O          8.2130  -14.7160  -22.8000 O.2   138  ASP138     -0.2864
    157  CB         4.8430  -13.4620  -23.5240 C.3   138  ASP138      0.1436
    158  CG         5.3870  -12.2200  -24.2320 C.2   138  ASP138      0.3671
    159  OD1        4.5550  -11.4180  -24.7250 O.co2 138  ASP138     -0.2456
    160  OD2        6.6190  -12.0450  -24.3280 O.co2 138  ASP138     -0.2456
    161  N          8.6340  -13.6360  -25.9930 N.3   140  GLY140     -0.1210
    162  CA         9.4740  -12.6170  -26.6060 C.3   140  GLY140      0.1956
    163  C         10.4300  -12.0560  -25.5720 C.2   140  GLY140      0.2612
    164  O         10.3820  -12.4310  -24.4040 O.2   140  GLY140     -0.2717
    165  N         11.3020  -11.1540  -25.9960 N.am  141  LEU141     -0.1965
    166  CA        12.2550  -10.5640  -25.0760 C.3   141  LEU141      0.1728
    167  C         11.6870   -9.2550  -24.5330 C.2   141  LEU141      0.2616
    168  O         11.6010   -8.2600  -25.2590 O.2   141  LEU141     -0.2715
    169  CB        13.5820  -10.3150  -25.7860 C.3   141  LEU141      0.0311
    170  CG        14.6160   -9.4780  -25.0350 C.3   141  LEU141      0.0022
    171  CD1       14.9680  -10.1060  -23.7040 C.3   141  LEU141      0.0001
    172  CD2       15.8560   -9.3230  -25.8910 C.3   141  LEU141      0.0001
    173  N         11.2830   -9.2650  -23.2630 N.am  142  ASP142     -0.1971
    174  CA        10.7520   -8.0690  -22.6170 C.3   142  ASP142      0.1709
    175  C          9.5510   -7.4750  -23.3430 C.2   142  ASP142      0.2293
    176  O          9.3660   -6.2620  -23.3480 O.2   142  ASP142     -0.2864
    177  CB        11.8450   -7.0010  -22.4960 C.3   142  ASP142      0.1436
    178  CG        13.0110   -7.4410  -21.6190 C.2   142  ASP142      0.3671
    179  OD1       12.8370   -8.3220  -20.7580 O.co2 142  ASP142     -0.2456
    180  OD2       14.1130   -6.8890  -21.7950 O.co2 142  ASP142     -0.2456
    181  N         23.3720   -5.8890  -25.3290 N.3   203  ILE203     -0.1245
    182  CA        23.9070   -5.9490  -23.9840 C.3   203  ILE203      0.1561
    183  C         25.2920   -5.2610  -23.9610 C.2   203  ILE203      0.2260
    184  O         26.0920   -5.4010  -24.8910 O.2   203  ILE203     -0.2867
    185  CB        23.9180   -7.4220  -23.4930 C.3   203  ILE203      0.0252
    186  CG1       24.1440   -7.5130  -21.9820 C.3   203  ILE203      0.0019
    187  CG2       24.8950   -8.2450  -24.3080 C.3   203  ILE203      0.0019
    188  CD1       25.5300   -7.9710  -21.5900 C.3   203  ILE203      0.0001
    189  N         29.0050   -4.8840  -22.8770 N.3   205  LYS205     -0.1245
    190  CA        30.1300   -5.5900  -22.2910 C.3   205  LYS205      0.1561
    191  C         31.3590   -4.7350  -22.5030 C.2   205  LYS205      0.2260
    192  O         31.2710   -3.7270  -23.1840 O.2   205  LYS205     -0.2867
    193  CB        30.2660   -6.9760  -22.9240 C.3   205  LYS205      0.0271
    194  CG        29.2880   -7.9860  -22.3270 C.3   205  LYS205      0.0035
    195  CD        28.8890   -9.0600  -23.3220 C.3   205  LYS205      0.0206
    196  CE        28.1010  -10.1680  -22.6250 C.3   205  LYS205      0.1093
    197  NZ        27.2380  -10.9380  -23.5750 N.3   205  LYS205     -0.1314
@<TRIPOS>BOND
     1    22    20    1
     2   162   161    1
     3   162   163    1
     4    20    21    1
     5    20    19    2
     6   165   163   am
     7   165   166    1
     8   172   170    1
     9   169   166    1
    10   169   170    1
    11   163   164    2
    12   181   182    1
    13   168   167    2
    14   166   167    1
    15    19    18    1
    16   170   171    1
    17   184   183    2
    18   159   158   ar
    19   167   173   am
    20   160   158   ar
    21   187   185    1
    22   158   157    1
    23    73    71   ar
    24    73    72   ar
    25   182   183    1
    26   182   185    1
    27    71    69   ar
    28    87    86    1
    29    87    88    1
    30    18    17    1
    31    72    70   ar
    32   197   196    1
    33    14    15    2
    34    14    13    1
    35   157   154    1
    36   129   128    1
    37   129   130    1
    38   185   186    1
    39    16    17    1
    40    16    13    1
    41    69    68   ar
    42   155   156    2
    43   155   154    1
    44   176   175    2
    45   175   174    1
    46   195   196    1
    47   195   194    1
    48   173   174    1
    49   192   191    2
    50    86    83    1
    51    70    68   ar
    52    10     9    1
    53   193   194    1
    54   193   190    1
    55    68    67    1
    56   189   190    1
    57    11     9    1
    58    13    12    1
    59    88    89    1
    60   174   177    1
    61   154   153    1
    62   191   190    1
    63   177   178    1
    64     9     8    2
    65    67    64    1
    66   130   132   am
    67   130   131    2
    68   132   133    1
    69   186   188    1
    70    82    83    1
    71   180   178   ar
    72    83    84    1
    73   178   179   ar
    74   153   150   am
    75     8     7    1
    76    84    85    2
    77    77    76    2
    78   136   133    1
    79    64    65    1
    80    64    63    1
    81   133   134    1
    82     7     6    1
    83    66    65    2
    84   150   151    2
    85   150   149    1
    86    65    74   am
    87    63    56   am
    88    76    75    1
    89   134   135    2
    90   127   126   ar
    91   127   125   ar
    92   126   124   ar
    93    74    75    1
    94   146   147   ar
    95   146   144   ar
    96     5     6    1
    97     5     2    1
    98    75    78    1
    99   147   145   ar
   100   149   152    1
   101   149   148    1
   102   144   142   ar
   103   125   123   ar
   104    56    55    1
   105    56    57    2
   106   124   123   ar
   107    96    94    1
   108    94    95    1
   109    94    91    1
   110    55    58    1
   111    55    54    1
   112    58    59    1
   113    95    97    1
   114   145   143   ar
   115   142   143   ar
   116   142   141    1
   117   123   122    1
   118     3     4    2
   119     3     2    1
   120    51    50    2
   121     2     1    1
   122   141   138    1
   123    61    60    2
   124    78    80    1
   125    78    79    1
   126   105   103    1
   127    90    91    1
   128    91    92    1
   129    92    93    2
   130    54    50   am
   131    50    49    1
   132    60    59    1
   133    60    62   am
   134   122   119    1
   135    79    81    1
   136   138   139    1
   137   138   137    1
   138   139   140    2
   139    45    44    2
   140   103   102    1
   141   104   102    1
   142    49    52    1
   143    49    48    1
   144   102    99    1
   145   119   120    1
   146   119   118    1
   147    53    52    1
   148   120   121    2
   149    30    28    1
   150    44    48   am
   151    44    43    1
   152    47    46    1
   153   118   108   am
   154   109   108    2
   155    46    43    1
   156   101   100    2
   157    99    98    1
   158    99   100    1
   159   108   107    1
   160   100   106   am
   161    43    42    1
   162    39    41   ar
   163    39    37   ar
   164    28    29    1
   165    28    27    1
   166    42    33   am
   167    41    40   ar
   168   106   107    1
   169    37    36   ar
   170    27    24    1
   171   107   110    1
   172    26    25    2
   173    33    32    1
   174    33    34    2
   175    40    38   ar
   176   113   115   ar
   177   113   111   ar
   178    36    38   ar
   179    36    35    1
   180   110   111    1
   181    32    35    1
   182    32    31    1
   183   115   116   ar
   184    24    25    1
   185    24    23    1
   186   111   112   ar
   187   116   117    1
   188   116   114   ar
   189   112   114   ar
