@<TRIPOS>MOLECULE
tmp/4ttvA00.pdb
 206 198 0 0 0
SMALL
GASTEIGER

@<TRIPOS>ATOM
      1  N         23.6720  -20.6870   29.0700 N.3    66  SER66      -0.1202
      2  CA        24.8070  -19.7660   29.1610 C.3    66  SER66       0.2020
      3  C         26.1560  -20.4380   28.9190 C.2    66  SER66       0.2619
      4  O         27.0970  -19.7940   28.4560 O.2    66  SER66      -0.2717
      5  CB        24.8230  -19.0800   30.5270 C.3    66  SER66       0.2103
      6  OG        25.1600  -19.9940   31.5530 O.3    66  SER66      -0.2182
      7  N         26.2510  -21.7260   29.2320 N.am   67  GLY67      -0.1942
      8  CA        27.5020  -22.4450   29.0740 C.3    67  GLY67       0.2014
      9  C         28.2320  -22.6840   30.3840 C.2    67  GLY67       0.2638
     10  O         29.3890  -23.1090   30.3920 O.2    67  GLY67      -0.2714
     11  N         27.5580  -22.4130   31.4970 N.am   68  HIS68      -0.1973
     12  CA        28.1910  -22.4960   32.8120 C.3    68  HIS68       0.1656
     13  C         28.3050  -23.9170   33.3850 C.2    68  HIS68       0.2291
     14  O         29.2590  -24.2100   34.1040 O.2    68  HIS68      -0.2864
     15  CB        27.4500  -21.5910   33.8010 C.3    68  HIS68       0.0771
     16  CG        27.8530  -20.1490   33.7160 C.ar   68  HIS68       0.0820
     17  ND1       27.1850  -19.2290   32.9360 N.ar   68  HIS68      -0.2267
     18  CD2       28.8630  -19.4720   34.3130 C.ar   68  HIS68       0.1154
     19  CE1       27.7640  -18.0470   33.0580 C.ar   68  HIS68       0.1986
     20  NE2       28.7850  -18.1680   33.8870 N.ar   68  HIS68      -0.2212
     21  N         31.0410  -25.4900   31.3650 N.3    71  HIS71      -0.1226
     22  CA        32.3250  -24.9000   31.6300 C.3    71  HIS71       0.1752
     23  C         32.6550  -24.5190   33.0470 C.2    71  HIS71       0.2596
     24  O         33.7890  -24.5670   33.4400 O.2    71  HIS71      -0.2718
     25  CB        32.4660  -23.6830   30.7530 C.3    71  HIS71       0.0759
     26  CG        32.5760  -24.0050   29.3030 C.ar   71  HIS71       0.0818
     27  ND1       31.6180  -23.6510   28.3880 N.ar   71  HIS71      -0.2268
     28  CD2       33.5380  -24.6430   28.6110 C.ar   71  HIS71       0.1154
     29  CE1       31.9790  -24.0620   27.1930 C.ar   71  HIS71       0.1986
     30  NE2       33.1430  -24.6640   27.3020 N.ar   71  HIS71      -0.2212
     31  N         31.6680  -24.0890   33.8000 N.am   72  TYR72      -0.1976
     32  CA        31.9370  -23.4470   35.0620 C.3    72  TYR72       0.1639
     33  C         31.4700  -24.1880   36.2770 C.2    72  TYR72       0.2290
     34  O         31.5460  -23.6840   37.3590 O.2    72  TYR72      -0.2864
     35  CB        31.3400  -22.0520   35.0570 C.3    72  TYR72       0.0560
     36  CG        32.2050  -21.0590   35.7400 C.ar   72  TYR72      -0.0198
     37  CD1       33.4990  -20.9060   35.3740 C.ar   72  TYR72      -0.0009
     38  CD2       31.7340  -20.2920   36.7630 C.ar   72  TYR72      -0.0009
     39  CE1       34.3050  -20.0070   36.0020 C.ar   72  TYR72       0.0417
     40  CE2       32.5340  -19.3850   37.3970 C.ar   72  TYR72       0.0417
     41  CZ        33.8190  -19.2540   37.0040 C.ar   72  TYR72       0.1957
     42  OH        34.6320  -18.3650   37.6140 O.3    72  TYR72      -0.2866
     43  N         27.9490  -15.1990   37.9140 N.3    91  MET91      -0.1245
     44  CA        28.0110  -13.9980   37.0920 C.3    91  MET91       0.1570
     45  C         26.6470  -13.4200   36.8120 C.2    91  MET91       0.2261
     46  O         25.6780  -14.0930   36.9300 O.2    91  MET91      -0.2867
     47  CB        28.6690  -14.2960   35.7690 C.3    91  MET91       0.0387
     48  CG        29.9710  -15.0240   35.8700 C.3    91  MET91       0.0595
     49  SD        30.6830  -15.1500   34.2550 S.3    91  MET91      -0.1393
     50  CE        32.3040  -15.7540   34.6080 C.3    91  MET91       0.0692
     51  N         25.6330  -12.0590   33.8250 N.3    93  CYS93      -0.1221
     52  CA        25.3800  -11.9600   32.3810 C.3    93  CYS93       0.1794
     53  C         24.0710  -12.5970   31.8680 C.2    93  CYS93       0.2443
     54  O         23.3000  -11.9250   31.1740 O.2    93  CYS93      -0.2733
     55  CB        26.5680  -12.5550   31.6110 C.3    93  CYS93       0.0970
     56  SG        28.1950  -12.1980   32.3280 S.3    93  CYS93      -0.0800
     57  N         23.8140  -13.8850   32.1920 N.am   94  PRO94      -0.2729
     58  CA        22.6300  -14.5230   31.5960 C.3    94  PRO94       0.1401
     59  C         21.3140  -13.8630   32.0040 C.2    94  PRO94       0.2269
     60  O         20.3890  -13.7820   31.1880 O.2    94  PRO94      -0.2865
     61  CB        22.7000  -15.9630   32.1250 C.3    94  PRO94       0.0296
     62  CG        24.1290  -16.1590   32.5220 C.3    94  PRO94       0.0237
     63  CD        24.5540  -14.8290   33.0500 C.3    94  PRO94       0.0939
     64  N         31.1880  -17.7400   44.0990 N.3   122  ARG122     -0.1245
     65  CA        31.9790  -18.7050   43.3510 C.3   122  ARG122      0.1563
     66  C         32.6490  -19.6730   44.3120 C.2   122  ARG122      0.2260
     67  O         33.1740  -19.2650   45.3510 O.2   122  ARG122     -0.2867
     68  CB        33.0210  -17.9940   42.4820 C.3   122  ARG122      0.0307
     69  CG        32.4150  -17.1750   41.3580 C.3   122  ARG122      0.0489
     70  CD        33.4680  -16.4420   40.5500 C.3   122  ARG122      0.2205
     71  NE        32.8600  -15.5940   39.5280 N.pl3 122  ARG122     -0.0865
     72  CZ        33.5360  -14.7600   38.7450 C.cat 122  ARG122      0.5346
     73  NH1       34.8520  -14.6560   38.8640 N.pl3 122  ARG122      0.1354
     74  NH2       32.8950  -14.0290   37.8450 N.pl3 122  ARG122      0.1354
     75  N         30.3090   -7.0210   42.4390 N.3   140  GLN140     -0.1245
     76  CA        31.1300   -6.5820   41.3360 C.3   140  GLN140      0.1566
     77  C         30.5180   -5.3660   40.7660 C.2   140  GLN140      0.2260
     78  O         29.3380   -5.2400   40.8010 O.2   140  GLN140     -0.2867
     79  CB        31.0850   -7.6360   40.2670 C.3   140  GLN140      0.0367
     80  CG        32.1710   -7.5820   39.2400 C.3   140  GLN140      0.0905
     81  CD        32.1830   -8.8320   38.4210 C.2   140  GLN140      0.2608
     82  OE1       31.2020   -9.1800   37.8180 O.2   140  GLN140     -0.2717
     83  NE2       33.2870   -9.5260   38.4220 N.am  140  GLN140     -0.0878
     84  N         29.3990   -4.2910   37.7130 N.3   142  ASP142     -0.1239
     85  CA        29.2780   -5.1010   36.5170 C.3   142  ASP142      0.1674
     86  C         28.3870   -4.3890   35.5310 C.2   142  ASP142      0.2266
     87  O         27.3980   -3.7850   35.9230 O.2   142  ASP142     -0.2867
     88  CB        28.7270   -6.4870   36.8640 C.3   142  ASP142      0.1410
     89  CG        28.6960   -7.4220   35.6690 C.2   142  ASP142      0.3668
     90  OD1       29.4280   -7.1700   34.6870 O.co2 142  ASP142     -0.2456
     91  OD2       27.9500   -8.4220   35.7190 O.co2 142  ASP142     -0.2456
     92  N         39.7540  -14.7840   24.2860 N.3   218  ALA218     -0.1231
     93  CA        38.9400  -15.9440   24.6380 C.3   218  ALA218      0.1694
     94  C         38.3230  -16.5630   23.3870 C.2   218  ALA218      0.2592
     95  O         38.4800  -16.0370   22.2840 O.2   218  ALA218     -0.2718
     96  CB        37.8570  -15.5570   25.6300 C.3   218  ALA218      0.0304
     97  N         37.6070  -17.6700   23.5580 N.am  219  PHE219     -0.1962
     98  CA        37.0360  -18.3720   22.4140 C.3   219  PHE219      0.1771
     99  C         35.7310  -17.7290   21.9560 C.2   219  PHE219      0.2619
    100  O         35.3110  -17.9090   20.8120 O.2   219  PHE219     -0.2715
    101  CB        36.8160  -19.8560   22.7410 C.3   219  PHE219      0.0574
    102  CG        35.7490  -20.1120   23.7750 C.ar  219  PHE219     -0.0200
    103  CD1       36.0720  -20.1700   25.1240 C.ar  219  PHE219     -0.0042
    104  CD2       34.4290  -20.3280   23.3970 C.ar  219  PHE219     -0.0042
    105  CE1       35.0980  -20.4160   26.0770 C.ar  219  PHE219     -0.0003
    106  CE2       33.4490  -20.5730   24.3460 C.ar  219  PHE219     -0.0003
    107  CZ        33.7860  -20.6180   25.6870 C.ar  219  PHE219     -0.0000
    108  N         35.0920  -16.9860   22.8560 N.am  220  TYR220     -0.1974
    109  CA        33.8280  -16.3250   22.5460 C.3   220  TYR220      0.1639
    110  C         33.9840  -14.8530   22.1510 C.2   220  TYR220      0.2290
    111  O         33.0040  -14.2050   21.7770 O.2   220  TYR220     -0.2864
    112  CB        32.8740  -16.4350   23.7390 C.3   220  TYR220      0.0560
    113  CG        33.4880  -16.0360   25.0630 C.ar  220  TYR220     -0.0198
    114  CD1       33.5080  -14.7100   25.4700 C.ar  220  TYR220     -0.0009
    115  CD2       34.0330  -16.9890   25.9120 C.ar  220  TYR220     -0.0009
    116  CE1       34.0640  -14.3410   26.6790 C.ar  220  TYR220      0.0417
    117  CE2       34.5900  -16.6300   27.1230 C.ar  220  TYR220      0.0417
    118  CZ        34.6030  -15.3050   27.5020 C.ar  220  TYR220      0.1957
    119  OH        35.1580  -14.9450   28.7080 O.3   220  TYR220     -0.2866
    120  N         39.3750   -9.3040   23.6480 N.3   223  LYS223     -0.1245
    121  CA        39.2550   -8.5120   24.8680 C.3   223  LYS223      0.1561
    122  C         40.3600   -7.4780   25.0440 C.2   223  LYS223      0.2260
    123  O         41.4630   -7.6250   24.5240 O.2   223  LYS223     -0.2867
    124  CB        39.2220   -9.4270   26.0970 C.3   223  LYS223      0.0271
    125  CG        40.4960  -10.2270   26.3260 C.3   223  LYS223      0.0035
    126  CD        40.4210  -10.9990   27.6400 C.3   223  LYS223      0.0206
    127  CE        41.6330  -11.8990   27.8380 C.3   223  LYS223      0.1093
    128  NZ        41.5800  -12.6160   29.1440 N.3   223  LYS223     -0.1314
    129  N         38.0870   -4.9250   33.1170 N.3   240  THR240     -0.1218
    130  CA        38.0910   -5.7010   31.8840 C.3   240  THR240      0.1862
    131  C         37.0430   -5.2100   30.8930 C.2   240  THR240      0.2287
    132  O         35.9420   -4.7720   31.2850 O.2   240  THR240     -0.2866
    133  CB        37.8600   -7.2070   32.1530 C.3   240  THR240      0.1770
    134  OG1       37.9640   -7.9390   30.9250 O.3   240  THR240     -0.2211
    135  CG2       36.4890   -7.4400   32.7670 C.3   240  THR240      0.0375
    136  N         35.3850   -7.1110   27.6820 N.3   242  GLN242     -0.1245
    137  CA        35.3360   -8.4010   26.9950 C.3   242  GLN242      0.1566
    138  C         34.1560   -8.4990   26.0340 C.2   242  GLN242      0.2260
    139  O         33.0030   -8.4250   26.4530 O.2   242  GLN242     -0.2867
    140  CB        35.2690   -9.5460   28.0140 C.3   242  GLN242      0.0367
    141  CG        35.0300  -10.9180   27.3920 C.3   242  GLN242      0.0905
    142  CD        36.2950  -11.5290   26.8250 C.2   242  GLN242      0.2608
    143  OE1       37.3040  -11.6390   27.5180 O.2   242  GLN242     -0.2717
    144  NE2       36.2500  -11.9240   25.5560 N.am  242  GLN242     -0.0878
    145  N         31.5370  -10.3750   23.5390 N.3   244  ASP244     -0.1239
    146  CA        30.8580  -11.6580   23.4640 C.3   244  ASP244      0.1674
    147  C         29.9320  -11.6800   22.2510 C.2   244  ASP244      0.2266
    148  O         28.9720  -10.8790   22.1590 O.2   244  ASP244     -0.2867
    149  CB        30.0730  -11.9280   24.7510 C.3   244  ASP244      0.1410
    150  CG        29.9190  -13.4110   25.0460 C.2   244  ASP244      0.3668
    151  OD1       29.8270  -14.2100   24.0890 O.co2 244  ASP244     -0.2456
    152  OD2       29.8880  -13.7780   26.2390 O.co2 244  ASP244     -0.2456
    153  N         28.9730  -14.9160   21.4620 N.3   246  GLN246     -0.1231
    154  CA        28.4020  -16.2370   21.7230 C.3   246  GLN246      0.1698
    155  C         27.0710  -16.1320   22.4530 C.2   246  GLN246      0.2592
    156  O         26.0450  -16.6330   21.9850 O.2   246  GLN246     -0.2718
    157  CB        29.3850  -17.1000   22.5200 C.3   246  GLN246      0.0381
    158  CG        29.2000  -18.6000   22.3180 C.3   246  GLN246      0.0905
    159  CD        29.3550  -19.0240   20.8660 C.2   246  GLN246      0.2608
    160  OE1       30.0920  -18.4030   20.0990 O.2   246  GLN246     -0.2717
    161  NE2       28.6570  -20.0870   20.4820 N.am  246  GLN246     -0.0878
    162  N         27.1240  -15.5180   23.6300 N.am  247  LEU247     -0.1980
    163  CA        25.9520  -15.2780   24.4660 C.3   247  LEU247      0.1596
    164  C         24.7090  -14.7700   23.7070 C.2   247  LEU247      0.2287
    165  O         23.6050  -15.2550   23.9630 O.2   247  LEU247     -0.2864
    166  CB        26.3250  -14.2950   25.5820 C.3   247  LEU247      0.0297
    167  CG        25.6910  -14.5120   26.9540 C.3   247  LEU247      0.0022
    168  CD1       25.8340  -15.9600   27.3870 C.3   247  LEU247      0.0001
    169  CD2       26.3160  -13.5810   27.9820 C.3   247  LEU247      0.0001
    170  N         23.4450  -17.9800   21.8910 N.3   250  ARG250     -0.1245
    171  CA        22.8900  -18.9940   22.7870 C.3   250  ARG250      0.1563
    172  C         21.5270  -18.5930   23.3520 C.2   250  ARG250      0.2260
    173  O         20.6530  -19.4400   23.5360 O.2   250  ARG250     -0.2867
    174  CB        23.8630  -19.2870   23.9350 C.3   250  ARG250      0.0307
    175  CG        25.1660  -19.9510   23.5030 C.3   250  ARG250      0.0489
    176  CD        26.1340  -20.0980   24.6710 C.3   250  ARG250      0.2205
    177  NE        27.3170  -20.8820   24.3200 N.pl3 250  ARG250     -0.0865
    178  CZ        27.4920  -22.1600   24.6410 C.cat 250  ARG250      0.5346
    179  NH1       26.5570  -22.8100   25.3210 N.pl3 250  ARG250      0.1354
    180  NH2       28.6010  -22.7910   24.2800 N.pl3 250  ARG250      0.1354
    181  N         30.9700   -7.2050   28.0980 N.3   270  HIS270     -0.1226
    182  CA        31.1470   -7.3580   29.5340 C.3   270  HIS270      0.1752
    183  C         32.1720   -6.3340   29.9830 C.2   270  HIS270      0.2596
    184  O         33.2950   -6.3200   29.4860 O.2   270  HIS270     -0.2718
    185  CB        31.6170   -8.7710   29.9050 C.3   270  HIS270      0.0759
    186  CG        30.8140   -9.8700   29.2790 C.ar  270  HIS270      0.0818
    187  ND1       29.8260  -10.5500   29.9580 N.ar  270  HIS270     -0.2268
    188  CD2       30.8670  -10.4210   28.0430 C.ar  270  HIS270      0.1154
    189  CE1       29.2970  -11.4630   29.1640 C.ar  270  HIS270      0.1986
    190  NE2       29.9110  -11.4060   27.9970 N.ar  270  HIS270     -0.2212
    191  N         31.7970   -5.4720   30.9180 N.am  271  ARG271     -0.1966
    192  CA        32.7390   -4.4730   31.4000 C.3   271  ARG271      0.1729
    193  C         32.7190   -4.3560   32.9150 C.2   271  ARG271      0.2616
    194  O         31.6490   -4.3590   33.5500 O.2   271  ARG271     -0.2715
    195  CB        32.4550   -3.1070   30.7680 C.3   271  ARG271      0.0348
    196  CG        31.0280   -2.6360   30.9440 C.3   271  ARG271      0.0492
    197  CD        30.9430   -1.1210   30.8990 C.3   271  ARG271      0.2205
    198  NE        31.7670   -0.4910   31.9290 N.pl3 271  ARG271     -0.0865
    199  CZ        31.5980   -0.6660   33.2360 C.cat 271  ARG271      0.5346
    200  NH1       30.6480   -1.4670   33.6890 N.pl3 271  ARG271      0.1354
    201  NH2       32.3900   -0.0480   34.0970 N.pl3 271  ARG271      0.1354
    202  N         33.9220   -4.2680   33.4820 N.am  272  ALA272     -0.1977
    203  CA        34.0880   -3.9580   34.9000 C.3   272  ALA272      0.1597
    204  C         35.2830   -3.0290   35.0750 C.2   272  ALA272      0.2287
    205  O         36.1940   -3.0310   34.2480 O.2   272  ALA272     -0.2864
    206  CB        34.2670   -5.2310   35.7220 C.3   272  ALA272      0.0319
@<TRIPOS>BOND
     1   160   159    2
     2   161   159   am
     3   100    99    2
     4   159   158    1
     5   153   154    1
     6   154   155    1
     7   154   157    1
     8   111   110    2
     9   170   171    1
    10    99    98    1
    11    99   108   am
    12   156   155    2
    13   110   109    1
    14   148   147    2
    15   147   146    1
    16    95    94    2
    17   158   157    1
    18    98   101    1
    19    98    97    1
    20   155   162   am
    21   109   108    1
    22   109   112    1
    23   101   102    1
    24   171   172    1
    25   171   174    1
    26   172   173    2
    27    94    97   am
    28    94    93    1
    29   104   102   ar
    30   104   106   ar
    31   146   145    1
    32   146   149    1
    33   175   174    1
    34   175   176    1
    35   162   163    1
    36   120   121    1
    37   164   165    2
    38   164   163    1
    39   112   113    1
    40   102   103   ar
    41   151   150   ar
    42   180   178    1
    43    92    93    1
    44   177   178    2
    45   177   176    1
    46   106   107   ar
    47   163   166    1
    48   123   122    2
    49    93    96    1
    50   178   179    1
    51   149   150    1
    52   121   122    1
    53   121   124    1
    54   150   152   ar
    55   113   114   ar
    56   113   115   ar
    57   103   105   ar
    58   114   116   ar
    59   144   142   am
    60   166   167    1
    61   107   105   ar
    62   115   117   ar
    63   138   139    2
    64   138   137    1
    65   124   125    1
    66   125   126    1
    67   116   118   ar
    68   142   141    1
    69   142   143    2
    70   167   168    1
    71   167   169    1
    72   137   136    1
    73   137   140    1
    74   117   118   ar
    75    29    30   ar
    76    29    27   ar
    77    30    28   ar
    78   141   140    1
    79   118   119    1
    80   126   127    1
    81   127   128    1
    82   190   188   ar
    83   190   189   ar
    84   188   186   ar
    85   181   182    1
    86    27    26   ar
    87     4     3    2
    88    28    26   ar
    89     3     2    1
    90     3     7   am
    91     1     2    1
    92     8     7    1
    93     8     9    1
    94     2     5    1
    95   189   187   ar
    96   186   185    1
    97   186   187   ar
    98    26    25    1
    99   184   183    2
   100   182   185    1
   101   182   183    1
   102   183   191   am
   103     9    10    2
   104     9    11   am
   105     5     6    1
   106    25    22    1
   107   195   196    1
   108   195   192    1
   109   131   132    2
   110   131   130    1
   111   197   196    1
   112   197   198    1
   113   191   192    1
   114   134   133    1
   115    54    53    2
   116    60    59    2
   117    21    22    1
   118   192   193    1
   119    11    12    1
   120    58    59    1
   121    58    61    1
   122    58    57    1
   123    55    56    1
   124    55    52    1
   125    22    23    1
   126    53    57   am
   127    53    52    1
   128   130   133    1
   129   130   129    1
   130   198   199    2
   131    61    62    1
   132   133   135    1
   133    57    63    1
   134    52    51    1
   135    62    63    1
   136    12    13    1
   137    12    15    1
   138   193   202   am
   139   193   194    2
   140    17    19   ar
   141    17    16   ar
   142    23    24    2
   143    23    31   am
   144    19    20   ar
   145   199   200    1
   146   199   201    1
   147    13    14    2
   148   202   203    1
   149    16    15    1
   150    16    18   ar
   151    31    32    1
   152    20    18   ar
   153   205   204    2
   154    49    50    1
   155    49    48    1
   156    90    89   ar
   157   203   204    1
   158   203   206    1
   159    35    32    1
   160    35    36    1
   161    32    33    1
   162    37    36   ar
   163    37    39   ar
   164    86    87    2
   165    86    85    1
   166    89    91   ar
   167    89    88    1
   168    36    38   ar
   169    47    48    1
   170    47    44    1
   171    39    41   ar
   172    33    34    2
   173    85    88    1
   174    85    84    1
   175    38    40   ar
   176    45    46    2
   177    45    44    1
   178    41    40   ar
   179    41    42    1
   180    44    43    1
   181    82    81    2
   182    74    72    1
   183    81    83   am
   184    81    80    1
   185    72    73    1
   186    72    71    2
   187    80    79    1
   188    71    70    1
   189    79    76    1
   190    70    69    1
   191    77    78    2
   192    77    76    1
   193    76    75    1
   194    69    68    1
   195    68    65    1
   196    65    64    1
   197    65    66    1
   198    66    67    2
