@<TRIPOS>MOLECULE
tmp/4tu0B00.pdb
 108 103 0 0 0
SMALL
GASTEIGER

@<TRIPOS>ATOM
      1  N         19.8210  -10.7930  -14.7560 N.3    11  MET11      -0.1245
      2  CA        19.6130  -12.1950  -15.1270 C.3    11  MET11       0.1570
      3  C         18.1670  -12.4240  -15.5250 C.2    11  MET11       0.2261
      4  O         17.2960  -11.5440  -15.4570 O.2    11  MET11      -0.2867
      5  CB        19.9340  -13.1800  -13.9670 C.3    11  MET11       0.0387
      6  CG        19.0910  -12.9580  -12.7010 C.3    11  MET11       0.0595
      7  SD        19.4150  -13.9960  -11.2330 S.3    11  MET11      -0.1393
      8  CE        18.5170  -15.4890  -11.6920 C.3    11  MET11       0.0692
      9  N         14.5540  -13.3530  -15.4550 N.3    13  ILE13      -0.1245
     10  CA        13.5530  -13.2750  -14.4020 C.3    13  ILE13       0.1561
     11  C         12.8650  -14.6250  -14.1410 C.2    13  ILE13       0.2260
     12  O         12.4020  -14.9060  -13.0020 O.2    13  ILE13      -0.2867
     13  CB        12.5000  -12.1360  -14.6440 C.3    13  ILE13       0.0252
     14  CG1       11.7740  -11.8210  -13.3510 C.3    13  ILE13       0.0019
     15  CG2       11.4910  -12.4860  -15.7940 C.3    13  ILE13       0.0019
     16  CD1       10.8880  -10.5400  -13.4770 C.3    13  ILE13       0.0001
     17  N          5.7150   -8.9880  -17.5040 N.3    24  ALA24      -0.1245
     18  CA         5.4980   -7.8290  -18.3770 C.3    24  ALA24       0.1562
     19  C          4.5730   -8.3510  -19.4650 C.2    24  ALA24       0.2260
     20  O          5.0420   -8.8040  -20.5120 O.2    24  ALA24      -0.2867
     21  CB         6.8690   -7.2830  -18.9660 C.3    24  ALA24       0.0290
     22  N          6.9650  -12.0670  -26.3420 N.3    33  ASP33      -0.1225
     23  CA         8.4380  -12.0630  -26.5650 C.3    33  ASP33       0.1805
     24  C          9.2200  -11.7240  -25.3040 C.2    33  ASP33       0.2598
     25  O          8.6300  -11.3280  -24.3150 O.2    33  ASP33      -0.2718
     26  CB         8.8090  -10.9500  -27.5310 C.3    33  ASP33       0.1424
     27  CG         8.5410  -11.3090  -28.9440 C.2    33  ASP33       0.3668
     28  OD1        9.1670  -12.2930  -29.4330 O.co2  33  ASP33      -0.2456
     29  OD2        7.6920  -10.5950  -29.5550 O.co2  33  ASP33      -0.2456
     30  N         10.5460  -11.7860  -25.3590 N.am   34  GLY34      -0.1942
     31  CA        11.3570  -11.2940  -24.2460 C.3    34  GLY34       0.2014
     32  C         10.7990  -11.7820  -22.9140 C.2    34  GLY34       0.2638
     33  O         10.4910  -12.9660  -22.7840 O.2    34  GLY34      -0.2714
     34  N         10.6300  -10.8980  -21.9310 N.am   35  VAL35      -0.1977
     35  CA        10.1890  -11.3440  -20.5750 C.3    35  VAL35       0.1596
     36  C          8.9810  -12.3070  -20.6050 C.2    35  VAL35       0.2287
     37  O          8.9980  -13.3990  -20.0030 O.2    35  VAL35      -0.2864
     38  CB         9.8870  -10.1370  -19.6450 C.3    35  VAL35       0.0276
     39  CG1        9.0710  -10.5740  -18.3810 C.3    35  VAL35       0.0022
     40  CG2       11.1600   -9.4630  -19.2650 C.3    35  VAL35       0.0022
     41  N         10.2440   -6.8780  -13.6160 N.3   109  PRO109     -0.2102
     42  CA        10.9530   -6.2650  -14.7470 C.3   109  PRO109      0.1504
     43  C         10.4840   -4.8410  -14.9090 C.2   109  PRO109      0.2575
     44  O          9.4660   -4.4710  -14.3290 O.2   109  PRO109     -0.2718
     45  CB        10.4510   -7.0710  -15.9310 C.3   109  PRO109      0.0282
     46  CG         9.0310   -7.4080  -15.5360 C.3   109  PRO109      0.0208
     47  CD         8.9500   -7.4410  -14.0350 C.3   109  PRO109      0.0893
     48  N         11.2360   -4.0290  -15.6520 N.am  110  LEU110     -0.1980
     49  CA        10.8640   -2.6200  -15.9220 C.3   110  LEU110      0.1596
     50  C          9.8740   -2.6080  -17.0810 C.2   110  LEU110      0.2287
     51  O         10.2410   -2.8310  -18.2450 O.2   110  LEU110     -0.2864
     52  CB        12.0940   -1.8000  -16.2280 C.3   110  LEU110      0.0297
     53  CG        13.0100   -1.5900  -14.9930 C.3   110  LEU110      0.0022
     54  CD1       14.2140   -0.8670  -15.4600 C.3   110  LEU110      0.0001
     55  CD2       12.3880   -0.7940  -13.8130 C.3   110  LEU110      0.0001
     56  N          7.3240   -1.5700  -19.9290 N.3   112  SER112     -0.1202
     57  CA         7.2550   -0.6990  -21.0750 C.3   112  SER112      0.2020
     58  C          8.6340   -0.2480  -21.5950 C.2   112  SER112      0.2619
     59  O          8.7340    0.7950  -22.1860 O.2   112  SER112     -0.2717
     60  CB         6.3110    0.4840  -20.7840 C.3   112  SER112      0.2103
     61  OG         4.9740    0.0030  -20.6950 O.3   112  SER112     -0.2182
     62  N          9.6770   -1.0520  -21.3950 N.am  113  THR113     -0.1938
     63  CA        11.0230   -0.6360  -21.7660 C.3   113  THR113      0.2028
     64  C         11.5780   -1.4870  -22.8870 C.2   113  THR113      0.2643
     65  O         12.6920   -1.2560  -23.3340 O.2   113  THR113     -0.2714
     66  CB        12.0250   -0.7060  -20.5940 C.3   113  THR113      0.1808
     67  OG1       12.0490   -2.0410  -20.0930 O.3   113  THR113     -0.2208
     68  CG2       11.5940    0.1880  -19.5080 C.3   113  THR113      0.0379
     69  N         10.8440   -2.4760  -23.3570 N.am  114  GLY114     -0.1939
     70  CA        11.4880   -3.3220  -24.3680 C.3   114  GLY114      0.2014
     71  C         10.8950   -2.9900  -25.7090 C.2   114  GLY114      0.2638
     72  O         11.0330   -1.8720  -26.2180 O.2   114  GLY114     -0.2714
     73  N         10.1570   -3.9590  -26.2310 N.am  115  VAL115     -0.1977
     74  CA         9.3680   -3.8000  -27.4650 C.3   115  VAL115      0.1596
     75  C          8.2290   -2.7930  -27.3070 C.2   115  VAL115      0.2287
     76  O          7.6330   -2.3620  -28.3020 O.2   115  VAL115     -0.2864
     77  CB         8.7880   -5.1780  -27.9150 C.3   115  VAL115      0.0276
     78  CG1        9.9240   -6.0930  -28.4440 C.3   115  VAL115      0.0022
     79  CG2        8.0260   -5.8680  -26.7470 C.3   115  VAL115      0.0022
     80  N         14.7340   -7.0540  -12.0950 N.3   144  TYR144     -0.1227
     81  CA        15.5430   -7.7790  -13.0580 C.3   144  TYR144      0.1736
     82  C         15.7350   -7.0360  -14.3640 C.2   144  TYR144      0.2596
     83  O         14.8040   -6.3790  -14.8650 O.2   144  TYR144     -0.2718
     84  CB        14.9300   -9.1450  -13.3650 C.3   144  TYR144      0.0548
     85  CG        15.0880  -10.1020  -12.2200 C.ar  144  TYR144     -0.0200
     86  CD1       16.0070  -11.1680  -12.2810 C.ar  144  TYR144     -0.0009
     87  CD2       14.3660   -9.9050  -11.0510 C.ar  144  TYR144     -0.0009
     88  CE1       16.1670  -12.0280  -11.1720 C.ar  144  TYR144      0.0417
     89  CE2       14.4970  -10.7670   -9.9540 C.ar  144  TYR144      0.0417
     90  CZ        15.3980  -11.8080  -10.0120 C.ar  144  TYR144      0.1957
     91  OH        15.5140  -12.5900   -8.9000 O.3   144  TYR144     -0.2866
     92  N         16.9250   -7.1650  -14.9320 N.am  145  CYS145     -0.1956
     93  CA        17.2400   -6.5520  -16.2010 C.3   145  CYS145      0.1843
     94  C         18.2170   -7.4280  -17.0040 C.2   145  CYS145      0.2625
     95  O         18.7020   -8.4520  -16.5340 O.2   145  CYS145     -0.2714
     96  CB        17.7910   -5.1410  -15.9670 C.3   145  CYS145      0.0997
     97  SG        19.4340   -5.0480  -15.2420 S.3   145  CYS145     -0.0797
     98  N         18.4880   -7.0440  -18.2310 N.am  146  ARG146     -0.1977
     99  CA        19.4080   -7.8280  -19.0650 C.3   146  ARG146      0.1597
    100  C         20.7000   -7.1080  -19.4500 C.2   146  ARG146      0.2287
    101  O         21.7320   -7.7380  -19.5630 O.2   146  ARG146     -0.2864
    102  CB        18.6990   -8.3710  -20.3040 C.3   146  ARG146      0.0334
    103  CG        17.9680   -9.6980  -20.0310 C.3   146  ARG146      0.0492
    104  CD        18.6040  -10.4270  -18.8350 C.3   146  ARG146      0.2205
    105  NE        19.4810  -11.5710  -19.1340 N.pl3 146  ARG146     -0.0865
    106  CZ        19.0550  -12.7500  -19.5960 C.cat 146  ARG146      0.5346
    107  NH1       17.7660  -12.9370  -19.8850 N.pl3 146  ARG146      0.1354
    108  NH2       19.9290  -13.7320  -19.8030 N.pl3 146  ARG146      0.1354
@<TRIPOS>BOND
     1    29    27   ar
     2    28    27   ar
     3    27    26    1
     4    78    77    1
     5    76    75    2
     6    77    74    1
     7    77    79    1
     8    26    23    1
     9    74    75    1
    10    74    73    1
    11    23    22    1
    12    23    24    1
    13    73    71   am
    14    72    71    2
    15    71    70    1
    16    30    24   am
    17    30    31    1
    18    24    25    2
    19    70    69    1
    20    31    32    1
    21    69    64   am
    22    65    64    2
    23    32    33    2
    24    32    34   am
    25    64    63    1
    26    59    58    2
    27    34    35    1
    28    63    62    1
    29    63    66    1
    30    58    62   am
    31    58    57    1
    32    57    60    1
    33    57    56    1
    34    60    61    1
    35    36    35    1
    36    36    37    2
    37    66    67    1
    38    66    68    1
    39    35    38    1
    40    20    19    2
    41   102   103    1
    42   102    99    1
    43   103   104    1
    44   107   106    1
    45   108   106    1
    46    38    40    1
    47    38    39    1
    48   106   105    2
    49   101   100    2
    50    19    18    1
    51   100    99    1
    52   105   104    1
    53    99    98    1
    54    21    18    1
    55    18    17    1
    56    51    50    2
    57    98    94   am
    58    50    49    1
    59    94    95    2
    60    94    93    1
    61    52    49    1
    62    52    53    1
    63    93    96    1
    64    93    92    1
    65    96    97    1
    66    45    46    1
    67    45    42    1
    68    49    48    1
    69    15    13    1
    70    48    43   am
    71    46    47    1
    72     3     4    2
    73     3     2    1
    74    54    53    1
    75     9    10    1
    76     2     1    1
    77     2     5    1
    78    53    55    1
    79    92    82   am
    80    43    42    1
    81    43    44    2
    82    83    82    2
    83    42    41    1
    84    13    10    1
    85    13    14    1
    86    10    11    1
    87    82    81    1
    88    11    12    2
    89    47    41    1
    90     5     6    1
    91    16    14    1
    92    84    81    1
    93    84    85    1
    94    81    80    1
    95     6     7    1
    96    86    85   ar
    97    86    88   ar
    98    85    87   ar
    99     8     7    1
   100    88    90   ar
   101    87    89   ar
   102    90    89   ar
   103    90    91    1
