@<TRIPOS>MOLECULE
tmp/4tu0A00.pdb
 173 167 0 0 0
SMALL
GASTEIGER

@<TRIPOS>ATOM
      1  N         24.6630  -37.9670   -7.7440 N.3    11  MET11      -0.1230
      2  CA        23.4750  -37.2600   -8.1470 C.3    11  MET11       0.1702
      3  C         23.9520  -35.9120   -8.6420 C.2    11  MET11       0.2592
      4  O         25.1510  -35.6170   -8.5950 O.2    11  MET11      -0.2718
      5  CB        22.5260  -37.0590   -6.9550 C.3    11  MET11       0.0401
      6  CG        23.1260  -36.2120   -5.8180 C.3    11  MET11       0.0596
      7  SD        21.9440  -35.9030   -4.4950 S.3    11  MET11      -0.1393
      8  CE        20.8710  -34.7210   -5.3070 C.3    11  MET11       0.0692
      9  N         22.9910  -35.1030   -9.0820 N.am   12  ASP12      -0.1960
     10  CA        23.2360  -33.7850   -9.6300 C.3    12  ASP12       0.1840
     11  C         23.6530  -32.7740   -8.5650 C.2    12  ASP12       0.2621
     12  O         22.8410  -32.4170   -7.6610 O.2    12  ASP12      -0.2715
     13  CB        21.9600  -33.2960  -10.2850 C.3    12  ASP12       0.1450
     14  CG        22.1560  -32.0430  -11.1010 C.2    12  ASP12       0.3671
     15  OD1       23.1330  -31.2540  -10.8920 O.co2  12  ASP12      -0.2456
     16  OD2       21.2830  -31.8750  -11.9740 O.co2  12  ASP12      -0.2456
     17  N         24.8820  -32.2730   -8.7200 N.am   13  ILE13      -0.1977
     18  CA        25.4790  -31.3750   -7.7520 C.3    13  ILE13       0.1596
     19  C         24.6560  -30.0860   -7.5380 C.2    13  ILE13       0.2287
     20  O         24.8030  -29.4160   -6.5100 O.2    13  ILE13      -0.2864
     21  CB        26.9530  -31.0420   -8.1090 C.3    13  ILE13       0.0276
     22  CG1       27.6900  -30.5710   -6.8440 C.3    13  ILE13       0.0022
     23  CG2       27.0370  -30.0670   -9.2960 C.3    13  ILE13       0.0022
     24  CD1       29.1250  -30.1100   -7.0100 C.3    13  ILE13       0.0001
     25  N         33.1100  -26.3280  -11.0810 N.3    24  ALA24      -0.1245
     26  CA        34.2050  -26.6150  -11.9700 C.3    24  ALA24       0.1562
     27  C         34.2210  -25.5670  -13.0870 C.2    24  ALA24       0.2260
     28  O         33.8620  -25.8560  -14.2050 O.2    24  ALA24      -0.2867
     29  CB        34.0900  -28.0500  -12.5140 C.3    24  ALA24       0.0290
     30  N         29.9740  -26.1920  -20.0800 N.3    33  ASP33      -0.1225
     31  CA        29.3640  -27.5260  -20.2370 C.3    33  ASP33       0.1805
     32  C         29.3030  -28.3460  -18.9430 C.2    33  ASP33       0.2598
     33  O         29.9550  -28.0080  -17.9780 O.2    33  ASP33      -0.2718
     34  CB        30.1820  -28.3330  -21.2550 C.3    33  ASP33       0.1424
     35  CG        30.1470  -27.7230  -22.6260 C.2    33  ASP33       0.3668
     36  OD1       29.0420  -27.7580  -23.2320 O.co2  33  ASP33      -0.2456
     37  OD2       31.2090  -27.1960  -23.0760 O.co2  33  ASP33      -0.2456
     38  N         28.5390  -29.4330  -18.9360 N.am   34  GLY34      -0.1942
     39  CA        28.5860  -30.4010  -17.8290 C.3    34  GLY34       0.2014
     40  C         28.3040  -29.7810  -16.4620 C.2    34  GLY34       0.2638
     41  O         27.2590  -29.1080  -16.2980 O.2    34  GLY34      -0.2714
     42  N         29.2130  -29.9770  -15.4910 N.am   35  VAL35      -0.1977
     43  CA        28.9530  -29.4450  -14.1580 C.3    35  VAL35       0.1596
     44  C         28.7340  -27.9320  -14.1780 C.2    35  VAL35       0.2287
     45  O         27.8730  -27.4280  -13.4850 O.2    35  VAL35      -0.2864
     46  CB        29.9630  -29.8720  -12.9840 C.3    35  VAL35       0.0276
     47  CG1       31.4130  -30.0170  -13.4320 C.3    35  VAL35       0.0022
     48  CG2       29.8720  -28.8730  -11.7660 C.3    35  VAL35       0.0022
     49  N         27.6400  -25.9410  -16.3370 N.3    37  LYS37      -0.1231
     50  CA        26.3840  -25.5320  -16.9640 C.3    37  LYS37       0.1693
     51  C         25.2050  -25.9030  -16.0450 C.2    37  LYS37       0.2591
     52  O         24.2590  -25.1450  -15.9480 O.2    37  LYS37      -0.2718
     53  CB        26.2590  -26.1750  -18.3490 C.3    37  LYS37       0.0285
     54  CG        24.8940  -26.0030  -19.0320 C.3    37  LYS37       0.0035
     55  CD        24.8270  -26.8590  -20.3360 C.3    37  LYS37       0.0206
     56  CE        23.4400  -27.5110  -20.5290 C.3    37  LYS37       0.1093
     57  NZ        23.4320  -28.6140  -21.5660 N.3    37  LYS37      -0.1314
     58  N         25.2890  -27.0510  -15.3760 N.am   38  ALA38      -0.1980
     59  CA        24.3710  -27.3800  -14.2980 C.3    38  ALA38       0.1597
     60  C         24.4520  -26.3630  -13.1900 C.2    38  ALA38       0.2287
     61  O         23.4080  -25.9670  -12.6660 O.2    38  ALA38      -0.2864
     62  CB        24.5850  -28.8480  -13.7600 C.3    38  ALA38       0.0319
     63  N         32.7270  -31.2650   -7.1220 N.3   109  PRO109     -0.2102
     64  CA        32.9530  -32.2790   -8.1740 C.3   109  PRO109      0.1504
     65  C         34.4820  -32.4370   -8.4290 C.2   109  PRO109      0.2575
     66  O         35.2910  -31.6110   -7.9560 O.2   109  PRO109     -0.2718
     67  CB        32.3090  -31.6260   -9.3660 C.3   109  PRO109      0.0282
     68  CG        32.5210  -30.0890   -9.0840 C.3   109  PRO109      0.0208
     69  CD        32.8650  -29.8930   -7.6620 C.3   109  PRO109      0.0893
     70  N         34.8860  -33.4980   -9.1200 N.am  110  LEU110     -0.1980
     71  CA        36.2950  -33.7100   -9.4260 C.3   110  LEU110      0.1596
     72  C         36.7060  -32.8450  -10.5880 C.2   110  LEU110      0.2287
     73  O         36.3110  -33.0980  -11.7250 O.2   110  LEU110     -0.2864
     74  CB        36.5620  -35.1770   -9.7520 C.3   110  LEU110      0.0297
     75  CG        36.3000  -36.2230   -8.6370 C.3   110  LEU110      0.0022
     76  CD1       36.7990  -37.5780   -9.1460 C.3   110  LEU110      0.0001
     77  CD2       36.9960  -35.8770   -7.3100 C.3   110  LEU110      0.0001
     78  N         38.1600  -33.5270  -14.8040 N.3   113  THR113     -0.1203
     79  CA        37.9610  -34.9330  -15.1710 C.3   113  THR113      0.1994
     80  C         36.9770  -35.1290  -16.3300 C.2   113  THR113      0.2618
     81  O         36.5650  -36.2830  -16.6060 O.2   113  THR113     -0.2717
     82  CB        37.3570  -35.7590  -14.0380 C.3   113  THR113      0.1784
     83  OG1       36.2170  -35.0840  -13.5090 O.3   113  THR113     -0.2211
     84  CG2       38.3850  -36.1090  -12.9340 C.3   113  THR113      0.0376
     85  N         36.5440  -34.0470  -16.9790 N.am  114  GLY114     -0.1942
     86  CA        35.4820  -34.2080  -18.0090 C.3   114  GLY114      0.2014
     87  C         35.8370  -33.5720  -19.3350 C.2   114  GLY114      0.2638
     88  O         36.6860  -34.0860  -20.0580 O.2   114  GLY114     -0.2714
     89  N         35.1960  -32.4600  -19.6580 N.am  115  VAL115     -0.1977
     90  CA        35.5840  -31.6760  -20.8280 C.3   115  VAL115      0.1596
     91  C         37.0790  -31.2330  -20.7390 C.2   115  VAL115      0.2287
     92  O         37.7170  -30.9590  -21.7670 O.2   115  VAL115     -0.2864
     93  CB        34.7150  -30.4130  -20.9190 C.3   115  VAL115      0.0276
     94  CG1       33.2990  -30.7580  -21.1730 C.3   115  VAL115      0.0022
     95  CG2       34.7350  -29.6580  -19.6000 C.3   115  VAL115      0.0022
     96  N         39.4440  -33.1430  -19.3310 N.3   117  SER117     -0.1217
     97  CA        40.2670  -34.3370  -19.0940 C.3   117  SER117      0.1889
     98  C         41.3530  -34.6330  -20.1670 C.2   117  SER117      0.2288
     99  O         42.2800  -35.4050  -19.9080 O.2   117  SER117     -0.2866
    100  CB        39.3690  -35.5560  -18.9040 C.3   117  SER117      0.2089
    101  OG        38.9030  -35.9380  -20.1720 O.3   117  SER117     -0.2183
    102  N         40.8250  -36.3860  -22.8080 N.3   119  GLY119     -0.1210
    103  CA        40.6560  -37.7940  -23.1810 C.3   119  GLY119      0.1956
    104  C         41.0820  -38.8420  -22.1650 C.2   119  GLY119      0.2612
    105  O         40.9570  -40.0420  -22.4160 O.2   119  GLY119     -0.2717
    106  N         41.5530  -38.4270  -20.9930 N.am  120  LYS120     -0.1965
    107  CA        42.1970  -39.3990  -20.0810 C.3   120  LYS120      0.1728
    108  C         41.3720  -39.5740  -18.7870 C.2   120  LYS120      0.2616
    109  O         40.6930  -38.6340  -18.3390 O.2   120  LYS120     -0.2715
    110  CB        43.6340  -38.9160  -19.8060 C.3   120  LYS120      0.0311
    111  CG        44.6760  -39.9740  -19.5170 C.3   120  LYS120      0.0038
    112  CD        45.9590  -39.3190  -18.9200 C.3   120  LYS120      0.0206
    113  CE        46.9590  -40.2820  -18.2550 C.3   120  LYS120      0.1093
    114  NZ        46.4580  -41.2380  -17.1780 N.3   120  LYS120     -0.1314
    115  N         41.3940  -40.7810  -18.2190 N.am  121  ASP121     -0.1971
    116  CA        40.7150  -41.0830  -16.9580 C.3   121  ASP121      0.1709
    117  C         41.5290  -40.3930  -15.8550 C.2   121  ASP121      0.2293
    118  O         42.6940  -40.7170  -15.6770 O.2   121  ASP121     -0.2864
    119  CB        40.6040  -42.6240  -16.7160 C.3   121  ASP121      0.1436
    120  CG        39.7950  -42.9880  -15.4300 C.2   121  ASP121      0.3671
    121  OD1       38.8940  -43.8510  -15.4630 O.co2 121  ASP121     -0.2456
    122  OD2       40.0290  -42.4080  -14.3690 O.co2 121  ASP121     -0.2456
    123  N         30.5420  -35.1340   -5.5260 N.3   144  TYR144     -0.1227
    124  CA        29.4830  -35.4800   -6.4690 C.3   144  TYR144      0.1736
    125  C         29.9930  -36.0790   -7.7660 C.2   144  TYR144      0.2596
    126  O         30.9710  -35.5860   -8.3220 O.2   144  TYR144     -0.2718
    127  CB        28.6640  -34.2240   -6.7670 C.3   144  TYR144      0.0548
    128  CG        27.7240  -33.9480   -5.6350 C.ar  144  TYR144     -0.0200
    129  CD1       26.3820  -34.4040   -5.6660 C.ar  144  TYR144     -0.0009
    130  CD2       28.1750  -33.3040   -4.4930 C.ar  144  TYR144     -0.0009
    131  CE1       25.5190  -34.1790   -4.5840 C.ar  144  TYR144      0.0417
    132  CE2       27.3410  -33.0730   -3.4320 C.ar  144  TYR144      0.0417
    133  CZ        26.0080  -33.4980   -3.4740 C.ar  144  TYR144      0.1957
    134  OH        25.2100  -33.2380   -2.3820 O.3   144  TYR144     -0.2866
    135  N         29.3450  -37.1290   -8.2510 N.am  145  CYS145     -0.1956
    136  CA        29.5810  -37.6390   -9.6020 C.3   145  CYS145      0.1843
    137  C         28.2340  -38.1990  -10.1310 C.2   145  CYS145      0.2625
    138  O         27.2310  -38.1490   -9.4010 O.2   145  CYS145     -0.2714
    139  CB        30.6680  -38.7060   -9.5900 C.3   145  CYS145      0.0997
    140  SG        30.1530  -40.2090   -8.6780 S.3   145  CYS145     -0.0797
    141  N         28.2110  -38.6990  -11.3750 N.am  146  ARG146     -0.1963
    142  CA        27.0070  -39.2850  -12.0010 C.3   146  ARG146      0.1729
    143  C         27.1740  -40.7400  -12.3630 C.2   146  ARG146      0.2616
    144  O         26.2380  -41.5300  -12.2090 O.2   146  ARG146     -0.2715
    145  CB        26.6100  -38.5220  -13.2580 C.3   146  ARG146      0.0348
    146  CG        26.2350  -37.0510  -12.9830 C.3   146  ARG146      0.0492
    147  CD        25.1610  -36.9370  -11.9280 C.3   146  ARG146      0.2205
    148  NE        24.3450  -35.7710  -12.2130 N.pl3 146  ARG146     -0.0865
    149  CZ        23.3570  -35.7400  -13.1120 C.cat 146  ARG146      0.5346
    150  NH1       22.6750  -34.6110  -13.3190 N.pl3 146  ARG146      0.1354
    151  NH2       23.0450  -36.8290  -13.8100 N.pl3 146  ARG146      0.1354
    152  N         28.3680  -41.0870  -12.8290 N.am  147  ASP147     -0.1971
    153  CA        28.7060  -42.4450  -13.1700 C.3   147  ASP147      0.1709
    154  C         28.7690  -43.3510  -11.9360 C.2   147  ASP147      0.2293
    155  O         29.3940  -43.0220  -10.9180 O.2   147  ASP147     -0.2864
    156  CB        30.0250  -42.5000  -13.9180 C.3   147  ASP147      0.1436
    157  CG        30.2810  -43.8570  -14.5330 C.2   147  ASP147      0.3671
    158  OD1       29.6880  -44.1250  -15.6150 O.co2 147  ASP147     -0.2456
    159  OD2       31.0790  -44.6460  -13.9610 O.co2 147  ASP147     -0.2456
    160  N         32.3340  -44.6900  -11.2090 N.3   150  TRP150     -0.1241
    161  CA        33.0330  -43.6140  -10.5550 C.3   150  TRP150      0.1605
    162  C         32.6710  -43.4350   -9.0530 C.2   150  TRP150      0.2264
    163  O         33.5830  -43.3310   -8.2140 O.2   150  TRP150     -0.2867
    164  CB        32.8410  -42.3260  -11.3690 C.3   150  TRP150      0.0550
    165  CG        33.8750  -42.1860  -12.4240 C.ar  150  TRP150      0.0003
    166  CD1       34.2310  -43.1260  -13.3290 C.ar  150  TRP150      0.0946
    167  CD2       34.7220  -41.0510  -12.6700 C.ar  150  TRP150      0.0152
    168  NE1       35.2440  -42.6530  -14.1380 N.ar  150  TRP150     -0.2442
    169  CE2       35.5640  -41.3820  -13.7490 C.ar  150  TRP150      0.0810
    170  CE3       34.8570  -39.8070  -12.0820 C.ar  150  TRP150      0.0012
    171  CZ2       36.5070  -40.4990  -14.2610 C.ar  150  TRP150      0.0191
    172  CZ3       35.8120  -38.9380  -12.5840 C.ar  150  TRP150      0.0001
    173  CH2       36.6090  -39.2810  -13.6610 C.ar  150  TRP150      0.0015
@<TRIPOS>BOND
     1    36    35   ar
     2   103   102    1
     3   103   104    1
     4    37    35   ar
     5    35    34    1
     6   105   104    2
     7   104   106   am
     8    92    91    2
     9    57    56    1
    10    34    31    1
    11    94    93    1
    12   106   107    1
    13    93    90    1
    14    93    95    1
    15    90    91    1
    16    90    89    1
    17    56    55    1
    18    55    54    1
    19    31    30    1
    20    31    32    1
    21   101   100    1
    22    98    99    2
    23    98    97    1
    24   107   110    1
    25   107   108    1
    26    88    87    2
    27   110   111    1
    28    89    87   am
    29   111   112    1
    30    87    86    1
    31    96    97    1
    32    97   100    1
    33    54    53    1
    34    32    38   am
    35    32    33    2
    36    38    39    1
    37   112   113    1
    38   108   109    2
    39   108   115   am
    40    53    50    1
    41   113   114    1
    42   115   116    1
    43    86    85    1
    44    39    40    1
    45    85    80   am
    46    50    49    1
    47    50    51    1
    48   116   119    1
    49   116   117    1
    50   119   120    1
    51    81    80    2
    52    40    41    2
    53    40    42   am
    54    80    79    1
    55    51    52    2
    56    51    58   am
    57   117   118    2
    58   158   157   ar
    59    42    43    1
    60   121   120   ar
    61   120   122   ar
    62    58    59    1
    63    79    78    1
    64    79    82    1
    65   157   159   ar
    66   157   156    1
    67    59    62    1
    68    59    60    1
    69   171   169   ar
    70   171   173   ar
    71    28    27    2
    72    44    43    1
    73    44    45    2
    74    43    46    1
    75   168   169   ar
    76   168   166   ar
    77    82    83    1
    78    82    84    1
    79   156   153    1
    80   151   149    1
    81   169   167   ar
    82   173   172   ar
    83    47    46    1
    84   166   165   ar
    85   150   149    1
    86   145   146    1
    87   145   142    1
    88    60    61    2
    89   153   152    1
    90   153   154    1
    91   149   148    2
    92    27    26    1
    93    46    48    1
    94   146   147    1
    95   152   143   am
    96   167   165   ar
    97   167   170   ar
    98   172   170   ar
    99    29    26    1
   100   165   164    1
   101   143   144    2
   102   143   142    1
   103   148   147    1
   104   142   141    1
   105    16    14   ar
   106    26    25    1
   107   154   155    2
   108    73    72    2
   109   141   137   am
   110   164   161    1
   111   160   161    1
   112    14    15   ar
   113    14    13    1
   114    72    71    1
   115   161   162    1
   116    13    10    1
   117   137   136    1
   118   137   138    2
   119    74    71    1
   120    74    75    1
   121    10     9    1
   122    10    11    1
   123   136   139    1
   124   136   135    1
   125   139   140    1
   126    71    70    1
   127    67    68    1
   128    67    64    1
   129    23    21    1
   130    76    75    1
   131    70    65   am
   132    68    69    1
   133     9     3   am
   134   162   163    2
   135    17    11   am
   136    17    18    1
   137     3     4    2
   138     3     2    1
   139    75    77    1
   140    11    12    2
   141    65    64    1
   142    65    66    2
   143   126   125    2
   144   135   125   am
   145    64    63    1
   146     2     1    1
   147     2     5    1
   148    21    18    1
   149    21    22    1
   150   125   124    1
   151    18    19    1
   152    69    63    1
   153    19    20    2
   154    24    22    1
   155     5     6    1
   156   127   124    1
   157   127   128    1
   158   124   123    1
   159     6     7    1
   160   129   128   ar
   161   129   131   ar
   162   128   130   ar
   163     8     7    1
   164   131   133   ar
   165   130   132   ar
   166   133   132   ar
   167   133   134    1
