@<TRIPOS>MOLECULE
tmp/4tu0C00.pdb
 112 110 0 0 0
SMALL
GASTEIGER

@<TRIPOS>ATOM
      1  N          9.2700  -39.2510    4.2300 N.3    22  ALA22      -0.1245
      2  CA         9.7630  -37.9980    3.7020 C.3    22  ALA22       0.1562
      3  C         11.2270  -38.2420    3.5150 C.2    22  ALA22       0.2260
      4  O         12.0210  -38.0660    4.4330 O.2    22  ALA22      -0.2867
      5  CB         9.4750  -36.8460    4.6590 C.3    22  ALA22       0.0290
      6  N         16.9480  -37.6950    8.8610 N.3    31  ASP31      -0.1225
      7  CA        16.4030  -37.1390   10.1180 C.3    31  ASP31       0.1805
      8  C         14.8740  -36.9740   10.1360 C.2    31  ASP31       0.2598
      9  O         14.2180  -37.1000    9.0970 O.2    31  ASP31      -0.2718
     10  CB        17.1010  -35.8100   10.4680 C.3    31  ASP31       0.1424
     11  CG        18.5900  -35.9970   10.8260 C.2    31  ASP31       0.3668
     12  OD1       19.4620  -35.7610    9.9400 O.co2  31  ASP31      -0.2456
     13  OD2       18.8870  -36.4010   11.9860 O.co2  31  ASP31      -0.2456
     14  N         14.3330  -36.7020   11.3340 N.am   32  GLY32      -0.1942
     15  CA        12.9150  -36.4080   11.5540 C.3    32  GLY32       0.2014
     16  C         12.0480  -37.6090   11.2520 C.2    32  GLY32       0.2639
     17  O         12.3350  -38.7270   11.6840 O.2    32  GLY32      -0.2714
     18  N         10.9910  -37.3720   10.4770 N.am   33  VAL33      -0.1963
     19  CA        10.0970  -38.4410   10.0300 C.3    33  VAL33       0.1727
     20  C         10.8930  -39.6190    9.3940 C.2    33  VAL33       0.2616
     21  O         10.7100  -40.7850    9.7620 O.2    33  VAL33      -0.2715
     22  CB         8.9900  -37.8780    9.0790 C.3    33  VAL33       0.0290
     23  CG1        8.2060  -39.0050    8.4370 C.3    33  VAL33       0.0023
     24  CG2        8.0620  -36.9330    9.8440 C.3    33  VAL33       0.0023
     25  N         11.7880  -39.2830    8.4630 N.am   34  CYS34      -0.1968
     26  CA        12.7110  -40.2300    7.8370 C.3    34  CYS34       0.1712
     27  C         13.5280  -41.1120    8.8180 C.2    34  CYS34       0.2296
     28  O         13.8570  -42.2730    8.4950 O.2    34  CYS34      -0.2864
     29  CB        13.6490  -39.4700    6.9040 C.3    34  CYS34       0.0983
     30  SG        14.5760  -40.5130    5.8350 S.3    34  CYS34      -0.0798
     31  N          3.1380  -37.9740    5.7990 N.3   107  PRO107     -0.2102
     32  CA         3.6020  -36.7670    6.5270 C.3   107  PRO107      0.1504
     33  C          3.4850  -35.5420    5.5750 C.2   107  PRO107      0.2575
     34  O          3.2250  -35.7470    4.3550 O.2   107  PRO107     -0.2718
     35  CB         5.0830  -37.0840    6.8200 C.3   107  PRO107      0.0282
     36  CG         5.5280  -37.8640    5.6030 C.3   107  PRO107      0.0208
     37  CD         4.2500  -38.5860    5.0460 C.3   107  PRO107      0.0893
     38  N          3.6670  -34.3130    6.0900 N.am  108  LEU108     -0.1980
     39  CA         3.6540  -33.0920    5.2250 C.3   108  LEU108      0.1596
     40  C          5.0420  -32.8090    4.6630 C.2   108  LEU108      0.2287
     41  O          5.9130  -32.3960    5.3990 O.2   108  LEU108     -0.2864
     42  CB         3.1520  -31.8780    5.9960 C.3   108  LEU108      0.0297
     43  CG         1.6560  -31.8840    6.3590 C.3   108  LEU108      0.0022
     44  CD1        1.3280  -30.6880    7.2560 C.3   108  LEU108      0.0001
     45  CD2        0.7210  -31.9280    5.1590 C.3   108  LEU108      0.0001
     46  N          8.3750  -31.4750    2.8150 N.3   110  SER110     -0.1202
     47  CA         9.0670  -30.2090    2.7420 C.3   110  SER110      0.2020
     48  C          8.6670  -29.1880    3.8150 C.2   110  SER110      0.2619
     49  O          8.8190  -27.9870    3.5840 O.2   110  SER110     -0.2717
     50  CB         8.8900  -29.5820    1.3560 C.3   110  SER110      0.2103
     51  OG         9.6270  -30.2820    0.3830 O.3   110  SER110     -0.2182
     52  N          8.1240  -29.6650    4.9380 N.am  111  THR111     -0.1938
     53  CA         7.8250  -28.7930    6.0950 C.3   111  THR111      0.2028
     54  C          8.7840  -29.0000    7.2520 C.2   111  THR111      0.2643
     55  O          8.6360  -28.3590    8.3090 O.2   111  THR111     -0.2714
     56  CB         6.4660  -29.0380    6.7340 C.3   111  THR111      0.1808
     57  OG1        6.3780  -30.4060    7.1600 O.3   111  THR111     -0.2208
     58  CG2        5.3560  -28.7010    5.7910 C.3   111  THR111      0.0379
     59  N          9.7560  -29.8820    7.0870 N.am  112  GLY112     -0.1939
     60  CA        10.5860  -30.1850    8.2340 C.3   112  GLY112      0.2014
     61  C         11.8710  -29.4370    8.1440 C.2   112  GLY112      0.2639
     62  O         11.8770  -28.2220    8.1570 O.2   112  GLY112     -0.2714
     63  N         12.9510  -30.1920    8.0480 N.am  113  VAL113     -0.1963
     64  CA        14.2640  -29.6320    7.7530 C.3   113  VAL113      0.1727
     65  C         14.3860  -29.3060    6.2600 C.2   113  VAL113      0.2616
     66  O         15.4420  -28.9010    5.7860 O.2   113  VAL113     -0.2715
     67  CB        15.4260  -30.5840    8.1990 C.3   113  VAL113      0.0290
     68  CG1       15.4720  -30.6890    9.7340 C.3   113  VAL113      0.0023
     69  CG2       15.3110  -31.9680    7.5450 C.3   113  VAL113      0.0023
     70  N         13.2970  -29.5050    5.5240 N.am  114  TYR114     -0.1974
     71  CA        13.2450  -29.1600    4.1120 C.3   114  TYR114      0.1639
     72  C         12.4820  -27.8260    3.9030 C.2   114  TYR114      0.2290
     73  O         12.4380  -27.2870    2.7790 O.2   114  TYR114     -0.2864
     74  CB        12.6630  -30.3460    3.3220 C.3   114  TYR114      0.0560
     75  CG        13.7240  -31.2960    2.7730 C.ar  114  TYR114     -0.0198
     76  CD1       15.0820  -31.1390    3.0950 C.ar  114  TYR114     -0.0009
     77  CD2       13.3720  -32.3570    1.9460 C.ar  114  TYR114     -0.0009
     78  CE1       16.0680  -31.9880    2.5760 C.ar  114  TYR114      0.0417
     79  CE2       14.3320  -33.2250    1.4310 C.ar  114  TYR114      0.0417
     80  CZ        15.6890  -33.0350    1.7430 C.ar  114  TYR114      0.1957
     81  OH        16.6380  -33.9000    1.2260 O.3   114  TYR114     -0.2866
     82  N          1.2250  -35.6370   12.0960 N.3   143  CYS143     -0.1221
     83  CA         1.9990  -34.4390   12.4620 C.3   143  CYS143      0.1808
     84  C          2.3910  -34.5000   13.9430 C.2   143  CYS143      0.2601
     85  O          1.8710  -35.3340   14.6970 O.2   143  CYS143     -0.2717
     86  CB         1.2320  -33.1460   12.1290 C.3   143  CYS143      0.0970
     87  SG        -0.3100  -32.9340   13.0780 S.3   143  CYS143     -0.0800
     88  N          3.3110  -33.6130   14.3230 N.am  144  ARG144     -0.1979
     89  CA         3.9260  -33.5730   15.6480 C.3   144  ARG144      0.1597
     90  C          3.3110  -32.4890   16.5470 C.2   144  ARG144      0.2287
     91  O          3.2430  -32.6490   17.7730 O.2   144  ARG144     -0.2864
     92  CB         5.4370  -33.3310   15.4910 C.3   144  ARG144      0.0334
     93  CG         6.2120  -33.1420   16.7990 C.3   144  ARG144      0.0492
     94  CD         7.6870  -33.5350   16.6290 C.3   144  ARG144      0.2205
     95  NE         8.3540  -33.7880   17.9070 N.pl3 144  ARG144     -0.0865
     96  CZ         8.0270  -34.7660   18.7530 C.cat 144  ARG144      0.5346
     97  NH1        7.0210  -35.5860   18.4760 N.pl3 144  ARG144      0.1354
     98  NH2        8.7030  -34.9160   19.8860 N.pl3 144  ARG144      0.1354
     99  N         -0.7760  -27.1500   14.1960 N.3   148  TRP148     -0.1241
    100  CA        -0.8380  -27.8070   12.8780 C.3   148  TRP148      0.1605
    101  C         -2.0350  -28.7140   12.7250 C.2   148  TRP148      0.2264
    102  O         -2.7830  -28.5570   11.7560 O.2   148  TRP148     -0.2867
    103  CB         0.4830  -28.4940   12.5370 C.3   148  TRP148      0.0550
    104  CG         1.3830  -27.4870   11.9560 C.ar  148  TRP148      0.0003
    105  CD1        1.3680  -26.1530   12.2260 C.ar  148  TRP148      0.0946
    106  CD2        2.4010  -27.6850   10.9830 C.ar  148  TRP148      0.0152
    107  NE1        2.3210  -25.5050   11.5050 N.ar  148  TRP148     -0.2442
    108  CE2        2.9780  -26.4190   10.7260 C.ar  148  TRP148      0.0810
    109  CE3        2.9000  -28.7960   10.3160 C.ar  148  TRP148      0.0012
    110  CZ2        4.0430  -26.2370    9.8140 C.ar  148  TRP148      0.0191
    111  CZ3        3.9610  -28.6140    9.4110 C.ar  148  TRP148      0.0001
    112  CH2        4.5090  -27.3430    9.1690 C.ar  148  TRP148      0.0015
@<TRIPOS>BOND
     1    51    50    1
     2    81    80    1
     3    50    47    1
     4    79    80   ar
     5    79    77   ar
     6    80    78   ar
     7    77    75   ar
     8    78    76   ar
     9    47    46    1
    10    47    48    1
    11    75    76   ar
    12    75    74    1
    13    73    72    2
    14    74    71    1
    15     3     2    1
    16     3     4    2
    17    49    48    2
    18     2     1    1
    19     2     5    1
    20    48    52   am
    21    72    71    1
    22    71    70    1
    23    34    33    2
    24    40    39    1
    25    40    41    2
    26    52    53    1
    27    37    36    1
    28    37    31    1
    29    45    43    1
    30    39    42    1
    31    39    38    1
    32    70    65   am
    33    33    38   am
    34    33    32    1
    35    36    35    1
    36    66    65    2
    37    58    56    1
    38    31    32    1
    39    30    29    1
    40    42    43    1
    41    53    56    1
    42    53    54    1
    43    65    64    1
    44    43    44    1
    45    32    35    1
    46    56    57    1
    47    29    26    1
    48    59    54   am
    49    59    60    1
    50    54    55    2
    51    69    67    1
    52    64    63    1
    53    64    67    1
    54    26    25    1
    55    26    27    1
    56    63    61   am
    57    61    62    2
    58    61    60    1
    59    67    68    1
    60    23    22    1
    61    25    20   am
    62    28    27    2
    63     6     7    1
    64    22    24    1
    65    22    19    1
    66     9     8    2
    67   112   111   ar
    68   112   110   ar
    69    20    21    2
    70    20    19    1
    71   111   109   ar
    72   110   108   ar
    73    12    11   ar
    74    19    18    1
    75     7     8    1
    76     7    10    1
    77     8    14   am
    78   109   106   ar
    79    10    11    1
    80    18    16   am
    81   108   106   ar
    82   108   107   ar
    83    11    13   ar
    84   106   104   ar
    85    16    15    1
    86    16    17    2
    87    14    15    1
    88   107   105   ar
    89   102   101    2
    90   104   105   ar
    91   104   103    1
    92    82    83    1
    93    86    83    1
    94    86    87    1
    95    83    84    1
    96   103   100    1
    97   101   100    1
    98   100    99    1
    99    84    88   am
   100    84    85    2
   101    88    89    1
   102    92    89    1
   103    92    93    1
   104    89    90    1
   105    90    91    2
   106    94    93    1
   107    94    95    1
   108    95    96    2
   109    97    96    1
   110    96    98    1
