@<TRIPOS>MOLECULE
tmp/4tu4A00.pdb
 139 136 0 0 0
SMALL
GASTEIGER

@<TRIPOS>ATOM
      1  N        -14.5480   24.7340    0.1680 N.3    29  ARG29      -0.1231
      2  CA       -14.3790   23.2830    0.3420 C.3    29  ARG29       0.1694
      3  C        -14.6080   22.7990    1.7830 C.2    29  ARG29       0.2592
      4  O        -15.2320   21.7640    1.9900 O.2    29  ARG29      -0.2718
      5  CB       -12.9940   22.8340   -0.1350 C.3    29  ARG29       0.0321
      6  CG       -12.8790   21.3260   -0.3250 C.3    29  ARG29       0.0489
      7  CD       -11.4200   20.9020   -0.5160 C.3    29  ARG29       0.2205
      8  NE       -10.5650   21.4300    0.5630 N.pl3  29  ARG29      -0.0865
      9  CZ       -10.3320   20.8370    1.7350 C.cat  29  ARG29       0.5346
     10  NH1      -10.8560   19.6530    2.0330 N.pl3  29  ARG29       0.1354
     11  NH2       -9.5530   21.4390    2.6210 N.pl3  29  ARG29       0.1354
     12  N        -14.1470   23.5580    2.7760 N.am   30  VAL30      -0.1966
     13  CA       -14.2490   23.1320    4.1500 C.3    30  VAL30       0.1727
     14  C        -15.6990   23.1020    4.6470 C.2    30  VAL30       0.2616
     15  O        -15.9750   22.5240    5.6830 O.2    30  VAL30      -0.2715
     16  CB       -13.3670   23.9440    5.1310 C.3    30  VAL30       0.0290
     17  CG1      -11.9060   23.7400    4.7600 C.3    30  VAL30       0.0023
     18  CG2      -13.7490   25.4080    5.2030 C.3    30  VAL30       0.0023
     19  N        -16.5920   23.7360    3.8890 N.am   31  PHE31      -0.1960
     20  CA       -18.0090   23.7970    4.2700 C.3    31  PHE31       0.1771
     21  C        -18.8520   22.7910    3.5050 C.2    31  PHE31       0.2620
     22  O        -20.0820   22.8070    3.6340 O.2    31  PHE31      -0.2715
     23  CB       -18.5530   25.2090    4.0600 C.3    31  PHE31       0.0574
     24  CG       -17.7470   26.2760    4.7570 C.ar   31  PHE31      -0.0200
     25  CD1      -17.5410   26.2330    6.1230 C.ar   31  PHE31      -0.0042
     26  CD2      -17.1610   27.2990    4.0280 C.ar   31  PHE31      -0.0042
     27  CE1      -16.7890   27.1990    6.7670 C.ar   31  PHE31      -0.0003
     28  CE2      -16.4130   28.2800    4.6650 C.ar   31  PHE31      -0.0003
     29  CZ       -16.2260   28.2220    6.0420 C.ar   31  PHE31      -0.0000
     30  N        -18.2380   21.9300    2.7030 N.am   32  THR32      -0.1937
     31  CA       -18.9980   21.0810    1.7710 C.3    32  THR32       0.2028
     32  C        -19.5210   19.7930    2.4200 C.2    32  THR32       0.2642
     33  O        -20.4060   19.1490    1.8650 O.2    32  THR32      -0.2714
     34  CB       -18.2140   20.6720    0.5230 C.3    32  THR32       0.1808
     35  OG1      -16.9560   20.1010    0.8950 O.3    32  THR32      -0.2208
     36  CG2      -17.9750   21.8440   -0.3920 C.3    32  THR32       0.0379
     37  N        -18.9650   19.4220    3.5700 N.am   33  LYS33      -0.1963
     38  CA       -19.3170   18.1700    4.2570 C.3    33  LYS33       0.1713
     39  C        -19.3660   18.4570    5.7460 C.2    33  LYS33       0.2458
     40  O        -18.7650   19.4250    6.2090 O.2    33  LYS33      -0.2730
     41  CB       -18.2550   17.0870    3.9890 C.3    33  LYS33       0.0311
     42  CG       -18.1400   16.6260    2.5390 C.3    33  LYS33       0.0038
     43  CD       -19.3350   15.7780    2.1180 C.3    33  LYS33       0.0206
     44  CE       -19.4170   15.6260    0.6050 C.3    33  LYS33       0.1093
     45  NZ       -20.6530   14.8960    0.2030 N.3    33  LYS33      -0.1314
     46  N        -20.0800   17.6230    6.5170 N.am   34  PRO34      -0.2716
     47  CA       -20.0480   17.8490    7.9520 C.3    34  PRO34       0.1536
     48  C        -18.6210   17.7010    8.5310 C.2    34  PRO34       0.2598
     49  O        -17.8070   16.9550    8.0010 O.2    34  PRO34      -0.2715
     50  CB       -20.9980   16.7770    8.5190 C.3    34  PRO34       0.0310
     51  CG       -21.7710   16.2520    7.3650 C.3    34  PRO34       0.0237
     52  CD       -20.9160   16.4690    6.1410 C.3    34  PRO34       0.0939
     53  N        -18.3340   18.4720    9.5680 N.am   35  VAL35      -0.1964
     54  CA       -17.0510   18.4120   10.2620 C.3    35  VAL35       0.1727
     55  C        -16.8580   16.9860   10.7920 C.2    35  VAL35       0.2616
     56  O        -17.7450   16.4490   11.4540 O.2    35  VAL35      -0.2715
     57  CB       -16.9810   19.4390   11.4180 C.3    35  VAL35       0.0290
     58  CG1      -15.7240   19.2280   12.2600 C.3    35  VAL35       0.0023
     59  CG2      -17.0170   20.8560   10.8650 C.3    35  VAL35       0.0023
     60  N        -15.7250   16.3750   10.4570 N.am   36  ASP36      -0.1971
     61  CA       -15.4250   14.9880   10.8420 C.3    36  ASP36       0.1709
     62  C        -14.9160   14.9470   12.3000 C.2    36  ASP36       0.2293
     63  O        -13.9630   15.6640   12.6230 O.2    36  ASP36      -0.2864
     64  CB       -14.3640   14.4170    9.8950 C.3    36  ASP36       0.1436
     65  CG       -14.2090   12.9150   10.0210 C.2    36  ASP36       0.3671
     66  OD1      -14.3660   12.3820   11.1390 O.co2  36  ASP36      -0.2456
     67  OD2      -13.9210   12.2700    8.9930 O.co2  36  ASP36      -0.2456
     68  N        -11.2930   14.2490   12.8170 N.3    39  GLU39      -0.1231
     69  CA       -10.4580   15.4200   12.5800 C.3    39  GLU39       0.1699
     70  C        -10.6250   16.5210   13.6320 C.2    39  GLU39       0.2592
     71  O         -9.6720   17.2440   13.9060 O.2    39  GLU39      -0.2718
     72  CB       -10.7350   15.9970   11.1880 C.3    39  GLU39       0.0402
     73  CG       -10.4450   15.0420   10.0430 C.3    39  GLU39       0.1161
     74  CD        -9.0210   14.5250   10.0700 C.2    39  GLU39       0.3649
     75  OE1       -8.1090   15.3020   10.4220 O.co2  39  GLU39      -0.2457
     76  OE2       -8.8170   13.3370    9.7460 O.co2  39  GLU39      -0.2457
     77  N        -11.8270   16.6650   14.1950 N.am   40  VAL40      -0.1980
     78  CA       -12.1410   17.7700   15.1180 C.3    40  VAL40       0.1595
     79  C        -13.0680   17.2050   16.2040 C.2    40  VAL40       0.2287
     80  O        -14.2810   17.4630   16.2100 O.2    40  VAL40      -0.2864
     81  CB       -12.7970   18.9860   14.3840 C.3    40  VAL40       0.0276
     82  CG1      -12.7900   20.2300   15.2660 C.3    40  VAL40       0.0022
     83  CG2      -12.1030   19.2920   13.0590 C.3    40  VAL40       0.0022
     84  N        -15.7930   19.1720   18.2400 N.3    43  TYR43      -0.1241
     85  CA       -16.6690   20.0850   17.4750 C.3    43  TYR43       0.1605
     86  C        -18.1000   20.0420   17.9980 C.2    43  TYR43       0.2264
     87  O        -18.6630   21.0770   18.3700 O.2    43  TYR43      -0.2867
     88  CB       -16.6600   19.7630   15.9710 C.3    43  TYR43       0.0534
     89  CG       -17.3140   20.8510   15.1440 C.ar   43  TYR43      -0.0201
     90  CD1      -16.6450   22.0540   14.8900 C.ar   43  TYR43      -0.0009
     91  CD2      -18.6130   20.7010   14.6490 C.ar   43  TYR43      -0.0009
     92  CE1      -17.2340   23.0660   14.1450 C.ar   43  TYR43       0.0417
     93  CE2      -19.2120   21.7050   13.8930 C.ar   43  TYR43       0.0417
     94  CZ       -18.5220   22.8790   13.6460 C.ar   43  TYR43       0.1957
     95  OH       -19.1210   23.8900   12.9250 O.3    43  TYR43      -0.2866
     96  N        -18.7170   28.7720   12.1010 N.3    82  ALA82      -0.1245
     97  CA       -17.2770   28.9190   11.7970 C.3    82  ALA82       0.1562
     98  C        -16.6710   30.0610   12.6240 C.2    82  ALA82       0.2260
     99  O        -15.5490   29.9230   13.1430 O.2    82  ALA82      -0.2867
    100  CB       -17.0780   29.1630   10.3150 C.3    82  ALA82       0.0290
    101  N        -16.5360   28.7560   16.3640 N.3    85  TYR85      -0.1227
    102  CA       -15.5550   27.7340   16.6260 C.3    85  TYR85       0.1736
    103  C        -14.1040   28.1990   16.3780 C.2    85  TYR85       0.2595
    104  O        -13.1730   27.5980   16.9130 O.2    85  TYR85      -0.2718
    105  CB       -15.8210   26.4740   15.8210 C.3    85  TYR85       0.0548
    106  CG       -15.0170   25.3110   16.3200 C.ar   85  TYR85      -0.0200
    107  CD1      -15.4080   24.6270   17.4750 C.ar   85  TYR85      -0.0009
    108  CD2      -13.8320   24.9210   15.6930 C.ar   85  TYR85      -0.0009
    109  CE1      -14.6680   23.5680   17.9580 C.ar   85  TYR85       0.0417
    110  CE2      -13.0970   23.8530   16.1710 C.ar   85  TYR85       0.0417
    111  CZ       -13.5250   23.1880   17.3060 C.ar   85  TYR85       0.1957
    112  OH       -12.8170   22.1320   17.8130 O.3    85  TYR85      -0.2866
    113  N        -13.9250   29.2600   15.5910 N.am   86  ASN86      -0.1974
    114  CA       -12.5830   29.6930   15.1610 C.3    86  ASN86       0.1688
    115  C        -12.4350   31.1750   15.4050 C.2    86  ASN86       0.2292
    116  O        -12.2910   31.9450   14.4840 O.2    86  ASN86      -0.2864
    117  CB       -12.3700   29.3620   13.6670 C.3    86  ASN86       0.1181
    118  CG       -12.6100   27.9060   13.3390 C.2    86  ASN86       0.2629
    119  OD1      -11.7410   27.0550   13.5210 O.2    86  ASN86      -0.2716
    120  ND2      -13.8050   27.5980   12.8290 N.am   86  ASN86      -0.0877
    121  N        -10.4000   30.7520    7.9000 N.3    96  ILE96      -0.1245
    122  CA       -11.7140   30.1060    7.8660 C.3    96  ILE96       0.1561
    123  C        -12.8320   31.1300    8.1120 C.2    96  ILE96       0.2260
    124  O        -13.9110   31.0560    7.4360 O.2    96  ILE96      -0.2867
    125  CB       -11.7790   28.8390    8.7490 C.3    96  ILE96       0.0252
    126  CG1      -13.0320   28.0300    8.4110 C.3    96  ILE96       0.0019
    127  CG2      -11.7170   29.1680   10.2310 C.3    96  ILE96       0.0019
    128  CD1      -13.0070   26.6310    8.9410 C.3    96  ILE96       0.0001
    129  N        -13.4410   32.9680    4.8480 N.3    99  ARG99      -0.1245
    130  CA       -14.0900   32.0750    3.8790 C.3    99  ARG99       0.1563
    131  C        -15.5660   31.9120    4.2510 C.2    99  ARG99       0.2260
    132  O        -16.4220   31.9100    3.3730 O.2    99  ARG99      -0.2867
    133  CB       -13.4350   30.7230    3.8540 C.3    99  ARG99       0.0307
    134  CG       -12.0790   30.7120    3.1630 C.3    99  ARG99       0.0489
    135  CD       -11.3370   29.4270    3.3990 C.3    99  ARG99       0.2205
    136  NE       -10.2160   29.3360    2.4800 N.pl3  99  ARG99      -0.0865
    137  CZ        -9.3400   28.3490    2.4360 C.cat  99  ARG99       0.5346
    138  NH1       -9.3960   27.3680    3.3120 N.pl3  99  ARG99       0.1354
    139  NH2       -8.3820   28.3760    1.5050 N.pl3  99  ARG99       0.1354
@<TRIPOS>BOND
     1     7     6    1
     2     7     8    1
     3    36    34    1
     4     6     5    1
     5     5     2    1
     6     1     2    1
     7    45    44    1
     8     2     3    1
     9    34    35    1
    10    34    31    1
    11     8     9    2
    12    44    43    1
    13   139   137    1
    14     9    10    1
    15     9    11    1
    16    31    32    1
    17    31    30    1
    18     3     4    2
    19     3    12   am
    20    33    32    2
    21    43    42    1
    22    32    37   am
    23   137   136    2
    24   137   138    1
    25   136   135    1
    26    42    41    1
    27    30    21   am
    28    12    13    1
    29   134   135    1
    30   134   133    1
    31   132   131    2
    32    21    22    2
    33    21    20    1
    34    37    38    1
    35   133   130    1
    36   130   131    1
    37   130   129    1
    38    19    20    1
    39    19    14   am
    40    41    38    1
    41    26    28   ar
    42    26    24   ar
    43    23    20    1
    44    23    24    1
    45    13    14    1
    46    13    16    1
    47    38    39    1
    48    14    15    2
    49    28    29   ar
    50    24    25   ar
    51    17    16    1
    52    16    18    1
    53    39    40    2
    54    39    46   am
    55    29    27   ar
    56    25    27   ar
    57    52    46    1
    58    52    51    1
    59    46    47    1
    60    51    50    1
    61   124   123    2
    62   122   121    1
    63   122   123    1
    64   122   125    1
    65    47    50    1
    66    47    48    1
    67    49    48    2
    68   126   125    1
    69   126   128    1
    70    48    53   am
    71   125   127    1
    72    67    65   ar
    73    53    54    1
    74    76    74   ar
    75    64    65    1
    76    64    61    1
    77    65    66   ar
    78    73    74    1
    79    73    72    1
    80    74    75   ar
    81    54    55    1
    82    54    57    1
    83   100    97    1
    84    60    55   am
    85    60    61    1
    86    55    56    2
    87    61    62    1
    88    59    57    1
    89    72    69    1
    90    57    58    1
    91    97    96    1
    92    97    98    1
    93    62    63    2
    94    69    68    1
    95    69    70    1
    96    98    99    2
    97   120   118   am
    98    95    94    1
    99    83    81    1
   100   118   119    2
   101   118   117    1
   102    70    71    2
   103    70    77   am
   104    94    93   ar
   105    94    92   ar
   106   117   114    1
   107    93    91   ar
   108    92    90   ar
   109    77    78    1
   110    81    78    1
   111    81    82    1
   112   116   115    2
   113    91    89   ar
   114    90    89   ar
   115    78    79    1
   116    89    88    1
   117   114   115    1
   118   114   113    1
   119   113   103   am
   120   108   110   ar
   121   108   106   ar
   122   105   106    1
   123   105   102    1
   124    88    85    1
   125   110   111   ar
   126    79    80    2
   127   106   107   ar
   128   101   102    1
   129   103   102    1
   130   103   104    2
   131   111   112    1
   132   111   109   ar
   133    85    86    1
   134    85    84    1
   135   107   109   ar
   136    86    87    2
