@<TRIPOS>MOLECULE
tmp/4tuhA00.pdb
 212 204 0 0 0
SMALL
GASTEIGER

@<TRIPOS>ATOM
      1  N         -3.9340    5.1570   45.6100 N.3    40  GLU40      -0.1231
      2  CA        -2.8130    5.3990   46.5140 C.3    40  GLU40       0.1699
      3  C         -2.5960    6.8920   46.7360 C.2    40  GLU40       0.2592
      4  O         -2.2670    7.3050   47.8560 O.2    40  GLU40      -0.2718
      5  CB        -1.5300    4.7450   45.9840 C.3    40  GLU40       0.0402
      6  CG        -1.5730    3.2210   45.9780 C.3    40  GLU40       0.1161
      7  CD        -0.4620    2.6010   45.1430 C.2    40  GLU40       0.3649
      8  OE1        0.2430    3.3380   44.4150 O.co2  40  GLU40      -0.2457
      9  OE2       -0.3070    1.3720   45.2050 O.co2  40  GLU40      -0.2457
     10  N         -2.7800    7.6930   45.6870 N.am   41  ALA41      -0.1980
     11  CA        -2.6150    9.1450   45.8140 C.3    41  ALA41       0.1597
     12  C         -3.6990    9.7290   46.7140 C.2    41  ALA41       0.2287
     13  O         -3.4290   10.6370   47.4940 O.2    41  ALA41      -0.2864
     14  CB        -2.6200    9.8340   44.4450 C.3    41  ALA41       0.0319
     15  N         -2.6660    8.9390   50.2300 N.3    44  GLU44      -0.1231
     16  CA        -1.5540    9.7890   50.6460 C.3    44  GLU44       0.1699
     17  C         -2.0440   11.2090   50.8880 C.2    44  GLU44       0.2592
     18  O         -1.6290   11.8590   51.8570 O.2    44  GLU44      -0.2718
     19  CB        -0.4430    9.7720   49.5880 C.3    44  GLU44       0.0402
     20  CG         0.7830   10.6460   49.8970 C.3    44  GLU44       0.1161
     21  CD         1.7120   10.0580   50.9550 C.2    44  GLU44       0.3649
     22  OE1        1.4510    8.9520   51.4930 O.co2  44  GLU44      -0.2457
     23  OE2        2.7460   10.7000   51.2210 O.co2  44  GLU44      -0.2457
     24  N         -2.9370   11.6860   50.0120 N.am   45  PHE45      -0.1976
     25  CA        -3.5080   13.0240   50.1790 C.3    45  PHE45       0.1639
     26  C         -4.2490   13.1290   51.5110 C.2    45  PHE45       0.2290
     27  O         -4.0580   14.0780   52.2610 O.2    45  PHE45      -0.2864
     28  CB        -4.4700   13.3820   49.0360 C.3    45  PHE45       0.0560
     29  CG        -5.1280   14.7250   49.2240 C.ar   45  PHE45      -0.0200
     30  CD1       -6.4360   14.8220   49.6770 C.ar   45  PHE45      -0.0042
     31  CD2       -4.4020   15.8860   49.0140 C.ar   45  PHE45      -0.0042
     32  CE1       -7.0450   16.0670   49.8820 C.ar   45  PHE45      -0.0003
     33  CE2       -4.9930   17.1480   49.2090 C.ar   45  PHE45      -0.0003
     34  CZ        -6.3140   17.2370   49.6480 C.ar   45  PHE45      -0.0000
     35  N         -2.0470   15.5010   53.6180 N.3    49  TYR49      -0.1227
     36  CA        -2.1840   16.8330   53.0550 C.3    49  TYR49       0.1736
     37  C         -3.5600   17.4650   53.2170 C.2    49  TYR49       0.2595
     38  O         -3.6450   18.6860   53.2290 O.2    49  TYR49      -0.2718
     39  CB        -1.7800   16.8360   51.5640 C.3    49  TYR49       0.0548
     40  CG        -0.3550   16.3690   51.3280 C.ar   49  TYR49      -0.0200
     41  CD1        0.7310   17.1640   51.6780 C.ar   49  TYR49      -0.0009
     42  CD2       -0.0960   15.1580   50.7110 C.ar   49  TYR49      -0.0009
     43  CE1        2.0310   16.7380   51.4620 C.ar   49  TYR49       0.0417
     44  CE2        1.2040   14.7250   50.4890 C.ar   49  TYR49       0.0417
     45  CZ         2.2600   15.5220   50.8670 C.ar   49  TYR49       0.1957
     46  OH         3.5500   15.1050   50.6400 O.3    49  TYR49      -0.2866
     47  N         -4.6330   16.6740   53.2890 N.am   50  ARG50      -0.1980
     48  CA        -5.9730   17.2490   53.4260 C.3    50  ARG50       0.1597
     49  C         -6.0300   18.2850   54.5620 C.2    50  ARG50       0.2287
     50  O         -6.6490   19.3390   54.4250 O.2    50  ARG50      -0.2864
     51  CB        -7.0150   16.1530   53.6750 C.3    50  ARG50       0.0334
     52  CG        -8.4340   16.5550   53.2880 C.3    50  ARG50       0.0492
     53  CD        -9.4850   15.8610   54.1550 C.3    50  ARG50       0.2205
     54  NE        -9.2950   14.4140   54.2270 N.pl3  50  ARG50      -0.0865
     55  CZ       -10.2450   13.5440   54.5650 C.cat  50  ARG50       0.5346
     56  NH1      -11.4710   13.9630   54.8560 N.pl3  50  ARG50       0.1354
     57  NH2       -9.9680   12.2500   54.6070 N.pl3  50  ARG50       0.1354
     58  N         -5.8300   22.2370   54.1430 N.3    53  PHE53      -0.1227
     59  CA        -6.7360   23.0120   53.3090 C.3    53  PHE53       0.1736
     60  C         -8.0950   23.2900   53.9080 C.2    53  PHE53       0.2596
     61  O         -8.5130   22.6310   54.8470 O.2    53  PHE53      -0.2718
     62  CB        -6.8870   22.2870   51.9630 C.3    53  PHE53       0.0547
     63  CG        -5.5830   22.1230   51.2600 C.ar   53  PHE53      -0.0202
     64  CD1       -4.9160   20.9110   51.2820 C.ar   53  PHE53      -0.0042
     65  CD2       -4.9900   23.2040   50.6370 C.ar   53  PHE53      -0.0042
     66  CE1       -3.7030   20.7750   50.6570 C.ar   53  PHE53      -0.0003
     67  CE2       -3.7710   23.0800   50.0200 C.ar   53  PHE53      -0.0003
     68  CZ        -3.1200   21.8630   50.0330 C.ar   53  PHE53      -0.0000
     69  N         -8.7710   24.3030   53.3700 N.am   54  SER54      -0.1938
     70  CA       -10.1470   24.5730   53.7460 C.3    54  SER54       0.2055
     71  C        -10.9940   23.3280   53.4840 C.2    54  SER54       0.2643
     72  O        -10.9020   22.7380   52.4130 O.2    54  SER54      -0.2714
     73  CB       -10.6940   25.7680   52.9620 C.3    54  SER54       0.2130
     74  OG       -11.9950   26.0920   53.3910 O.3    54  SER54      -0.2179
     75  N        -11.8250   22.9450   54.4460 N.am   55  ASP55      -0.1957
     76  CA       -12.6350   21.7380   54.3190 C.3    55  ASP55       0.1840
     77  C        -13.7760   21.9250   53.3110 C.2    55  ASP55       0.2622
     78  O        -14.7490   22.6170   53.5910 O.2    55  ASP55      -0.2715
     79  CB       -13.1850   21.3370   55.6890 C.3    55  ASP55       0.1450
     80  CG       -13.8300   19.9670   55.6850 C.2    55  ASP55       0.3671
     81  OD1      -14.2730   19.4850   54.6190 O.co2  55  ASP55      -0.2456
     82  OD2      -13.8890   19.3510   56.7630 O.co2  55  ASP55      -0.2456
     83  N        -13.6620   21.2940   52.1440 N.am   56  LEU56      -0.1963
     84  CA       -14.6750   21.4650   51.1010 C.3    56  LEU56       0.1728
     85  C        -16.0290   20.8730   51.4990 C.2    56  LEU56       0.2616
     86  O        -17.0690   21.2950   50.9780 O.2    56  LEU56      -0.2715
     87  CB       -14.2100   20.8180   49.7870 C.3    56  LEU56       0.0311
     88  CG       -13.0070   21.4580   49.0930 C.3    56  LEU56       0.0022
     89  CD1      -12.4940   20.5880   47.9570 C.3    56  LEU56       0.0001
     90  CD2      -13.3170   22.8760   48.6340 C.3    56  LEU56       0.0001
     91  N        -16.0310   19.8950   52.4060 N.am   57  THR57      -0.1951
     92  CA       -17.3010   19.3320   52.8420 C.3    57  THR57       0.1897
     93  C        -18.0440   20.3480   53.7040 C.2    57  THR57       0.2313
     94  O        -19.2680   20.3800   53.7110 O.2    57  THR57      -0.2863
     95  CB       -17.1280   18.0020   53.6230 C.3    57  THR57       0.1794
     96  OG1      -16.4290   18.2370   54.8480 O.3    57  THR57      -0.2208
     97  CG2      -16.3630   16.9860   52.7860 C.3    57  THR57       0.0378
     98  N        -17.8680   23.5430   53.0700 N.3    59  GLN59      -0.1245
     99  CA       -18.3440   24.5700   52.1480 C.3    59  GLN59       0.1566
    100  C        -19.6060   24.1000   51.3940 C.2    59  GLN59       0.2260
    101  O        -20.4430   24.9210   51.0030 O.2    59  GLN59      -0.2867
    102  CB       -17.2580   24.9500   51.1270 C.3    59  GLN59       0.0367
    103  CG       -15.9620   25.5810   51.7070 C.3    59  GLN59       0.0905
    104  CD       -15.0200   26.0520   50.5920 C.2    59  GLN59       0.2608
    105  OE1      -15.4380   26.2190   49.4440 O.2    59  GLN59      -0.2717
    106  NE2      -13.7410   26.1930   50.9080 N.am   59  GLN59      -0.0878
    107  N        -13.8950   26.2660   43.5590 N.3    77  GLU77      -0.1231
    108  CA       -13.0480   26.8830   44.5910 C.3    77  GLU77       0.1699
    109  C        -11.7330   26.1280   44.7520 C.2    77  GLU77       0.2592
    110  O        -10.6690   26.7370   44.8600 O.2    77  GLU77      -0.2718
    111  CB       -13.8100   26.9470   45.9190 C.3    77  GLU77       0.0402
    112  CG       -13.0700   27.5490   47.1150 C.3    77  GLU77       0.1161
    113  CD       -12.6390   28.9910   46.9340 C.2    77  GLU77       0.3649
    114  OE1      -11.6350   29.3770   47.5910 O.co2  77  GLU77      -0.2457
    115  OE2      -13.3160   29.7490   46.1840 O.co2  77  GLU77      -0.2457
    116  N        -11.8090   24.8030   44.7030 N.am   78  LEU78      -0.1980
    117  CA       -10.6190   23.9440   44.7280 C.3    78  LEU78       0.1596
    118  C         -9.6650   24.3140   43.5910 C.2    78  LEU78       0.2287
    119  O         -8.4470   24.3840   43.7740 O.2    78  LEU78      -0.2864
    120  CB       -11.0360   22.4790   44.5980 C.3    78  LEU78       0.0297
    121  CG       -10.0140   21.3720   44.3310 C.3    78  LEU78       0.0022
    122  CD1       -8.8810   21.3930   45.3270 C.3    78  LEU78       0.0001
    123  CD2      -10.6950   20.0020   44.2790 C.3    78  LEU78       0.0001
    124  N         -7.2240   28.5910   41.6130 N.3    81  ASP81      -0.1239
    125  CA        -5.9280   29.0830   41.1800 C.3    81  ASP81       0.1674
    126  C         -5.2890   28.1790   40.1280 C.2    81  ASP81       0.2266
    127  O         -4.0960   28.2520   39.8600 O.2    81  ASP81      -0.2867
    128  CB        -4.9940   29.2480   42.3690 C.3    81  ASP81       0.1410
    129  CG        -4.0370   30.3720   42.1590 C.2    81  ASP81       0.3668
    130  OD1       -4.4960   31.5290   42.2440 O.co2  81  ASP81      -0.2456
    131  OD2       -2.8510   30.1040   41.8720 O.co2  81  ASP81      -0.2456
    132  N         -3.9730   21.2480   38.9220 N.3    84  ASN84      -0.1240
    133  CA        -2.7610   20.4330   38.8840 C.3    84  ASN84       0.1653
    134  C         -3.1320   19.0430   39.3820 C.2    84  ASN84       0.2266
    135  O         -4.2480   18.8350   39.8350 O.2    84  ASN84      -0.2867
    136  CB        -1.6030   21.0540   39.7040 C.3    84  ASN84       0.1155
    137  CG        -1.9240   21.2360   41.1850 C.2    84  ASN84       0.2627
    138  OD1       -2.5860   20.4110   41.8050 O.2    84  ASN84      -0.2716
    139  ND2       -1.3890   22.3230   41.7750 N.am   84  ASN84      -0.0877
    140  N         -2.2830   17.2450   41.9570 N.3    86  GLY86      -0.1210
    141  CA        -2.5990   17.2050   43.3730 C.3    86  GLY86       0.1956
    142  C         -4.0330   17.6610   43.6400 C.2    86  GLY86       0.2611
    143  O         -4.7280   17.0890   44.4780 O.2    86  GLY86      -0.2717
    144  N         -4.4840   18.6960   42.9330 N.am   87  ARG87      -0.1979
    145  CA        -5.8450   19.1970   43.1520 C.3    87  ARG87       0.1597
    146  C         -6.8550   18.2350   42.5540 C.2    87  ARG87       0.2287
    147  O         -7.9590   18.1000   43.0580 O.2    87  ARG87      -0.2864
    148  CB        -6.0070   20.6240   42.5830 C.3    87  ARG87       0.0334
    149  CG        -5.2320   21.6200   43.4460 C.3    87  ARG87       0.0492
    150  CD        -4.9710   22.9450   42.7380 C.3    87  ARG87       0.2205
    151  NE        -3.9730   23.6810   43.4920 N.pl3  87  ARG87      -0.0865
    152  CZ        -3.4440   24.8400   43.1270 C.cat  87  ARG87       0.5346
    153  NH1       -3.8190   25.4180   41.9930 N.pl3  87  ARG87       0.1354
    154  NH2       -2.4970   25.3880   43.8830 N.pl3  87  ARG87       0.1354
    155  N         -6.3810   14.9910   42.6160 N.3    89  VAL89      -0.1231
    156  CA        -6.4460   13.9950   43.6810 C.3    89  VAL89       0.1692
    157  C         -7.3800   14.4920   44.7900 C.2    89  VAL89       0.2591
    158  O         -8.2430   13.7460   45.2470 O.2    89  VAL89      -0.2718
    159  CB        -5.0430   13.6690   44.2270 C.3    89  VAL89       0.0266
    160  CG1       -5.1320   12.7510   45.4440 C.3    89  VAL89       0.0020
    161  CG2       -4.1970   13.0140   43.1190 C.3    89  VAL89       0.0020
    162  N         -7.2480   15.7600   45.1900 N.am   90  ALA90      -0.1980
    163  CA        -8.1150   16.3270   46.2250 C.3    90  ALA90       0.1597
    164  C         -9.6070   16.2600   45.8400 C.2    90  ALA90       0.2287
    165  O        -10.4690   16.0230   46.6910 O.2    90  ALA90      -0.2864
    166  CB        -7.7110   17.7910   46.5230 C.3    90  ALA90       0.0319
    167  N        -10.7570   12.7320   46.3670 N.3    93  SER93      -0.1202
    168  CA       -10.8770   12.5460   47.8070 C.3    93  SER93       0.2020
    169  C        -12.1290   13.2270   48.3510 C.2    93  SER93       0.2618
    170  O        -12.8160   12.6870   49.2150 O.2    93  SER93      -0.2717
    171  CB        -9.6400   13.0840   48.5320 C.3    93  SER93       0.2103
    172  OG        -8.5340   12.2260   48.3500 O.3    93  SER93      -0.2182
    173  N        -12.4150   14.4170   47.8390 N.am   94  PHE94      -0.1975
    174  CA       -13.6000   15.1640   48.2550 C.3    94  PHE94       0.1639
    175  C        -14.8910   14.3970   47.9290 C.2    94  PHE94       0.2290
    176  O        -15.7750   14.2540   48.7930 O.2    94  PHE94      -0.2864
    177  CB       -13.5910   16.5350   47.5700 C.3    94  PHE94       0.0560
    178  CG       -14.8220   17.3710   47.8190 C.ar   94  PHE94      -0.0200
    179  CD1      -15.3450   17.5320   49.0950 C.ar   94  PHE94      -0.0042
    180  CD2      -15.4300   18.0330   46.7570 C.ar   94  PHE94      -0.0042
    181  CE1      -16.4820   18.3180   49.3100 C.ar   94  PHE94      -0.0003
    182  CE2      -16.5540   18.8310   46.9610 C.ar   94  PHE94      -0.0003
    183  CZ       -17.0840   18.9720   48.2200 C.ar   94  PHE94      -0.0000
    184  N        -15.1900   11.5780   50.2560 N.3    97  ALA97      -0.1245
    185  CA       -15.6310   12.0150   51.5670 C.3    97  ALA97       0.1562
    186  C        -17.1220   12.3240   51.5920 C.2    97  ALA97       0.2260
    187  O        -17.7980   12.0510   52.5890 O.2    97  ALA97      -0.2867
    188  CB       -14.8350   13.2310   52.0110 C.3    97  ALA97       0.0290
    189  N          4.0150   10.0520   37.4650 N.3   142  LEU142     -0.1231
    190  CA         4.3500   10.9900   38.5340 C.3   142  LEU142      0.1693
    191  C          3.9220   10.5380   39.9320 C.2   142  LEU142      0.2592
    192  O          4.5870   10.8600   40.9090 O.2   142  LEU142     -0.2718
    193  CB         3.7390   12.3560   38.2310 C.3   142  LEU142      0.0284
    194  CG         4.3100   13.0970   37.0160 C.3   142  LEU142      0.0019
    195  CD1        3.4660   14.3440   36.7030 C.3   142  LEU142      0.0001
    196  CD2        5.7940   13.4720   37.2370 C.3   142  LEU142      0.0001
    197  N          2.8030    9.8210   40.0280 N.am  143  TYR143     -0.1962
    198  CA         2.1950    9.4990   41.3240 C.3   143  TYR143      0.1771
    199  C          2.1650    8.0080   41.6430 C.2   143  TYR143      0.2620
    200  O          1.7510    7.6080   42.7340 O.2   143  TYR143     -0.2715
    201  CB         0.7730   10.0610   41.3930 C.3   143  TYR143      0.0574
    202  CG         0.7640   11.5560   41.5360 C.ar  143  TYR143     -0.0198
    203  CD1        0.9750   12.3790   40.4240 C.ar  143  TYR143     -0.0009
    204  CD2        0.5890   12.1570   42.7830 C.ar  143  TYR143     -0.0009
    205  CE1        0.9950   13.7610   40.5510 C.ar  143  TYR143      0.0417
    206  CE2        0.6080   13.5380   42.9180 C.ar  143  TYR143      0.0417
    207  CZ         0.8130   14.3280   41.8050 C.ar  143  TYR143      0.1957
    208  OH         0.8360   15.6940   41.9360 O.3   143  TYR143     -0.2866
    209  N          2.5570    7.1950   40.6710 N.am  144  GLY144     -0.1954
    210  CA         2.5850    5.7590   40.8350 C.3   144  GLY144      0.1869
    211  C          3.8310    5.3100   41.5720 C.2   144  GLY144      0.2309
    212  O          3.7080    4.5850   42.5510 O.2   144  GLY144     -0.2863
@<TRIPOS>BOND
     1   195   194    1
     2   194   196    1
     3   194   193    1
     4   189   190    1
     5   193   190    1
     6   190   191    1
     7   133   132    1
     8   133   134    1
     9   133   136    1
    10   134   135    2
    11   136   137    1
    12   127   126    2
    13   191   197   am
    14   191   192    2
    15   197   198    1
    16   126   125    1
    17   203   205   ar
    18   203   202   ar
    19   205   207   ar
    20   209   210    1
    21   209   199   am
    22   210   211    1
    23   125   124    1
    24   125   128    1
    25   137   139   am
    26   137   138    2
    27   198   201    1
    28   198   199    1
    29   201   202    1
    30   202   204   ar
    31   211   212    2
    32   199   200    2
    33   207   208    1
    34   207   206   ar
    35   131   129   ar
    36   140   141    1
    37   153   152    1
    38   129   130   ar
    39   129   128    1
    40   146   147    2
    41   146   145    1
    42   148   145    1
    43   148   149    1
    44   155   156    1
    45   150   149    1
    46   150   151    1
    47   204   206   ar
    48   144   145    1
    49   144   142   am
    50   161   159    1
    51   152   151    2
    52   152   154    1
    53   141   142    1
    54   107   108    1
    55   118   119    2
    56   118   117    1
    57   142   143    2
    58   156   159    1
    59   156   157    1
    60   159   160    1
    61   123   121    1
    62   121   120    1
    63   121   122    1
    64     8     7   ar
    65    14    11    1
    66   108   109    1
    67   108   111    1
    68   120   117    1
    69   116   117    1
    70   116   109   am
    71   109   110    2
    72   157   162   am
    73   157   158    2
    74     7     9   ar
    75     7     6    1
    76   162   163    1
    77     1     2    1
    78    10    11    1
    79    10     3   am
    80    11    12    1
    81   164   163    1
    82   164   165    2
    83   111   112    1
    84     6     5    1
    85     5     2    1
    86   115   113   ar
    87   163   166    1
    88   167   168    1
    89     2     3    1
    90    12    13    2
    91     3     4    2
    92   180   182   ar
    93   180   178   ar
    94   113   112    1
    95   113   114   ar
    96   182   183   ar
    97   177   178    1
    98   177   174    1
    99   168   169    1
   100   168   171    1
   101   178   179   ar
   102   173   174    1
   103   173   169   am
   104   175   174    1
   105   175   176    2
   106    89    88    1
   107   183   181   ar
   108   172   171    1
   109   169   170    2
   110    90    88    1
   111    31    33   ar
   112    31    29   ar
   113    28    29    1
   114    28    25    1
   115    88    87    1
   116   179   181   ar
   117    33    34   ar
   118    29    30   ar
   119   105   104    2
   120    19    20    1
   121    19    16    1
   122    34    32   ar
   123    30    32   ar
   124    87    84    1
   125    20    21    1
   126    24    25    1
   127    24    17   am
   128    67    68   ar
   129    67    65   ar
   130    68    66   ar
   131    25    26    1
   132    15    16    1
   133   184   185    1
   134    44    42   ar
   135    44    45   ar
   136   104   106   am
   137   104   103    1
   138    65    63   ar
   139    46    45    1
   140    16    17    1
   141    66    64   ar
   142    42    40   ar
   143    45    43   ar
   144    17    18    2
   145    21    23   ar
   146    21    22   ar
   147    86    85    2
   148   101   100    2
   149    84    85    1
   150    84    83    1
   151   102   103    1
   152   102    99    1
   153    63    64   ar
   154    63    62    1
   155    40    39    1
   156    40    41   ar
   157   100    99    1
   158    43    41   ar
   159    85    91   am
   160    26    27    2
   161    39    36    1
   162   185   186    1
   163   185   188    1
   164   186   187    2
   165    62    59    1
   166    83    77   am
   167    99    98    1
   168    91    92    1
   169    72    71    2
   170    97    95    1
   171    92    95    1
   172    92    93    1
   173    73    74    1
   174    73    70    1
   175    36    37    1
   176    36    35    1
   177    37    38    2
   178    37    47   am
   179    52    51    1
   180    52    53    1
   181    47    48    1
   182    59    60    1
   183    59    58    1
   184    77    78    2
   185    77    76    1
   186    69    70    1
   187    69    60   am
   188    48    51    1
   189    48    49    1
   190    71    70    1
   191    71    75   am
   192    95    96    1
   193    93    94    2
   194    60    61    2
   195    53    54    1
   196    54    55    2
   197    76    75    1
   198    76    79    1
   199    50    49    2
   200    55    57    1
   201    55    56    1
   202    81    80   ar
   203    80    79    1
   204    80    82   ar
