@<TRIPOS>MOLECULE
tmp/4tujB00.pdb
 114 110 0 0 0
SMALL
GASTEIGER

@<TRIPOS>ATOM
      1  N         20.9950    0.4680  -46.8510 N.3    31  HIS31      -0.1241
      2  CA        22.0360    0.8030  -45.9010 C.3    31  HIS31       0.1621
      3  C         22.3330    2.3100  -45.9450 C.2    31  HIS31       0.2264
      4  O         21.9320    3.0090  -46.8790 O.2    31  HIS31      -0.2867
      5  CB        23.3030    0.0130  -46.2240 C.3    31  HIS31       0.0745
      6  CG        24.3350    0.0420  -45.1430 C.ar   31  HIS31       0.0817
      7  ND1       25.3990    0.9180  -45.1500 N.ar   31  HIS31      -0.2268
      8  CD2       24.4740   -0.7060  -44.0200 C.ar   31  HIS31       0.1154
      9  CE1       26.1490    0.7080  -44.0850 C.ar   31  HIS31       0.1986
     10  NE2       25.6070   -0.2680  -43.3800 N.ar   31  HIS31      -0.2212
     11  N         25.0100    3.6240  -46.6330 N.3    33  ASN33      -0.1240
     12  CA        25.8950    3.8270  -47.7710 C.3    33  ASN33       0.1653
     13  C         25.1560    3.7510  -49.1000 C.2    33  ASN33       0.2266
     14  O         25.7720    3.7360  -50.1620 O.2    33  ASN33      -0.2867
     15  CB        27.0480    2.8100  -47.7480 C.3    33  ASN33       0.1155
     16  CG        26.6020    1.3740  -48.0460 C.2    33  ASN33       0.2627
     17  OD1       25.5310    1.1230  -48.5940 O.2    33  ASN33      -0.2716
     18  ND2       27.4570    0.4230  -47.6910 N.am   33  ASN33      -0.0877
     19  N         23.4780    1.3060  -50.4950 N.3    35  ASN35      -0.1240
     20  CA        23.2580   -0.0150  -51.0990 C.3    35  ASN35       0.1653
     21  C         22.1590   -0.8080  -50.3760 C.2    35  ASN35       0.2266
     22  O         21.8270   -0.5100  -49.2290 O.2    35  ASN35      -0.2867
     23  CB        24.5640   -0.8140  -51.1150 C.3    35  ASN35       0.1155
     24  CG        25.5610   -0.2740  -52.1190 C.2    35  ASN35       0.2627
     25  OD1       25.3580   -0.4060  -53.3230 O.2    35  ASN35      -0.2716
     26  ND2       26.6450    0.3360  -51.6300 N.am   35  ASN35      -0.0877
     27  N         21.4080   -4.6660  -49.2570 N.3    37  TYR37      -0.1241
     28  CA        22.0040   -5.9840  -49.1110 C.3    37  TYR37       0.1605
     29  C         20.9320   -7.0650  -48.9400 C.2    37  TYR37       0.2264
     30  O         20.7340   -7.6220  -47.8520 O.2    37  TYR37      -0.2867
     31  CB        23.0370   -5.9540  -47.9710 C.3    37  TYR37       0.0534
     32  CG        24.1300   -4.9470  -48.2760 C.ar   37  TYR37      -0.0201
     33  CD1       25.1520   -5.2700  -49.1420 C.ar   37  TYR37      -0.0009
     34  CD2       24.1090   -3.6580  -47.7480 C.ar   37  TYR37      -0.0009
     35  CE1       26.1540   -4.3590  -49.4450 C.ar   37  TYR37       0.0417
     36  CE2       25.1070   -2.7250  -48.0580 C.ar   37  TYR37       0.0417
     37  CZ        26.1310   -3.0980  -48.9120 C.ar   37  TYR37       0.1957
     38  OH        27.1490   -2.2330  -49.2870 O.3    37  TYR37      -0.2866
     39  N         19.6410  -10.6450  -50.8000 N.3    39  HIS39      -0.1241
     40  CA        20.2840  -11.6840  -51.5780 C.3    39  HIS39       0.1621
     41  C         19.3330  -12.8710  -51.6650 C.2    39  HIS39       0.2264
     42  O         18.4650  -13.0200  -50.8130 O.2    39  HIS39      -0.2867
     43  CB        21.6050  -12.1460  -50.9070 C.3    39  HIS39       0.0745
     44  CG        22.4900  -11.0200  -50.4550 C.ar   39  HIS39       0.0817
     45  ND1       23.0270  -10.0940  -51.3190 N.ar   39  HIS39      -0.2268
     46  CD2       22.9500  -10.6950  -49.2210 C.ar   39  HIS39       0.1154
     47  CE1       23.7500   -9.2230  -50.6310 C.ar   39  HIS39       0.1986
     48  NE2       23.7120   -9.5620  -49.3530 N.ar   39  HIS39      -0.2212
     49  N         19.2000  -17.2120  -52.4450 N.3    41  TYR41      -0.1241
     50  CA        19.8950  -18.5010  -52.5910 C.3    41  TYR41       0.1605
     51  C         18.8920  -19.5940  -53.0670 C.2    41  TYR41       0.2264
     52  O         17.7230  -19.5180  -52.7370 O.2    41  TYR41      -0.2867
     53  CB        20.4420  -18.9690  -51.2580 C.3    41  TYR41       0.0534
     54  CG        21.4500  -18.0520  -50.6480 C.ar   41  TYR41      -0.0201
     55  CD1       21.0430  -17.0010  -49.8680 C.ar   41  TYR41      -0.0009
     56  CD2       22.8030  -18.1830  -50.9250 C.ar   41  TYR41      -0.0009
     57  CE1       21.9620  -16.1210  -49.2920 C.ar   41  TYR41       0.0417
     58  CE2       23.7620  -17.2770  -50.3640 C.ar   41  TYR41       0.0417
     59  CZ        23.3150  -16.2450  -49.5590 C.ar   41  TYR41       0.1957
     60  OH        24.1910  -15.3440  -48.9740 O.3    41  TYR41      -0.2866
     61  N         24.3770  -19.4070  -54.0340 N.3    51  LEU51      -0.1245
     62  CA        24.0110  -18.0200  -54.2910 C.3    51  LEU51       0.1561
     63  C         23.5300  -17.8010  -55.7310 C.2    51  LEU51       0.2260
     64  O         24.2090  -18.1810  -56.7010 O.2    51  LEU51      -0.2867
     65  CB        25.2120  -17.1070  -53.9950 C.3    51  LEU51       0.0270
     66  CG        25.0070  -15.5990  -54.1970 C.3    51  LEU51       0.0019
     67  CD1       23.8780  -15.1580  -53.3390 C.3    51  LEU51       0.0001
     68  CD2       26.2760  -14.8140  -53.8280 C.3    51  LEU51       0.0001
     69  N         22.7010  -11.3240  -55.7700 N.3    54  HIS54      -0.1226
     70  CA        23.1480  -10.4630  -54.6750 C.3    54  HIS54       0.1752
     71  C         22.8210   -9.0090  -54.9070 C.2    54  HIS54       0.2595
     72  O         22.6880   -8.5520  -56.0460 O.2    54  HIS54      -0.2718
     73  CB        24.6480  -10.6480  -54.3520 C.3    54  HIS54       0.0759
     74  CG        25.5750  -10.2480  -55.4630 C.ar   54  HIS54       0.0818
     75  ND1       26.3820   -9.1300  -55.3910 N.ar   54  HIS54      -0.2268
     76  CD2       25.8490  -10.8350  -56.6530 C.ar   54  HIS54       0.1154
     77  CE1       27.1050   -9.0440  -56.4970 C.ar   54  HIS54       0.1986
     78  NE2       26.8010  -10.0650  -57.2770 N.ar   54  HIS54      -0.2212
     79  N         22.6740   -8.2870  -53.8030 N.am   55  LYS55      -0.1980
     80  CA        22.2920   -6.8880  -53.8500 C.3    55  LYS55       0.1596
     81  C         21.1420   -6.6860  -54.8170 C.2    55  LYS55       0.2287
     82  O         21.2610   -5.9420  -55.8110 O.2    55  LYS55      -0.2864
     83  CB        23.4930   -6.0310  -54.2390 C.3    55  LYS55       0.0298
     84  CG        24.5840   -6.0540  -53.1680 C.3    55  LYS55       0.0038
     85  CD        25.9340   -5.5420  -53.6750 C.3    55  LYS55       0.0206
     86  CE        26.1200   -4.0840  -53.3590 C.3    55  LYS55       0.1093
     87  NZ        27.5120   -3.6540  -53.6930 N.3    55  LYS55      -0.1314
     88  N         21.7300   -8.5980  -45.1700 N.3    96  SER96      -0.1202
     89  CA        22.9440   -8.3220  -44.4170 C.3    96  SER96       0.2020
     90  C         23.1370   -6.8100  -44.3140 C.2    96  SER96       0.2619
     91  O         24.2500   -6.3150  -44.2130 O.2    96  SER96      -0.2717
     92  CB        24.1740   -9.0480  -44.9830 C.3    96  SER96       0.2103
     93  OG        24.3500   -8.8490  -46.3620 O.3    96  SER96      -0.2182
     94  N         22.0210   -6.0850  -44.3110 N.am   97  THR97      -0.1952
     95  CA        22.0920   -4.6320  -44.1240 C.3    97  THR97       0.1897
     96  C         22.2240   -4.3090  -42.6410 C.2    97  THR97       0.2313
     97  O         23.0760   -3.4880  -42.2340 O.2    97  THR97      -0.2863
     98  CB        20.8650   -3.9220  -44.6930 C.3    97  THR97       0.1794
     99  OG1       20.7490   -4.2300  -46.0840 O.3    97  THR97      -0.2208
    100  CG2       20.9850   -2.3860  -44.5250 C.3    97  THR97       0.0378
    101  N         23.0720   -5.9430  -39.2080 N.3    99  VAL99      -0.1231
    102  CA        23.6870   -7.0970  -38.5890 C.3    99  VAL99       0.1678
    103  C         24.5840   -6.6370  -37.4630 C.2    99  VAL99       0.2434
    104  O         25.0830   -5.5030  -37.4850 O.2    99  VAL99      -0.2733
    105  CB        24.5240   -7.8680  -39.6010 C.3    99  VAL99       0.0265
    106  CG1       23.6220   -8.4930  -40.6860 C.3    99  VAL99       0.0020
    107  CG2       25.5890   -6.9570  -40.2190 C.3    99  VAL99       0.0020
    108  N         24.8190   -7.5200  -36.4830 N.am  100  PRO100     -0.2729
    109  CA        24.3040   -8.9000  -36.4510 C.3   100  PRO100      0.1401
    110  C         22.8860   -8.9340  -35.9220 C.2   100  PRO100      0.2269
    111  O         22.5450   -8.0500  -35.1860 O.2   100  PRO100     -0.2865
    112  CB        25.2430   -9.5850  -35.4530 C.3   100  PRO100      0.0296
    113  CG        25.5740   -8.4980  -34.4870 C.3   100  PRO100      0.0237
    114  CD        25.6890   -7.2250  -35.3210 C.3   100  PRO100      0.0939
@<TRIPOS>BOND
     1    78    76   ar
     2    78    77   ar
     3    64    63    2
     4    76    74   ar
     5    77    75   ar
     6    72    71    2
     7    82    81    2
     8    69    70    1
     9    63    62    1
    10    74    75   ar
    11    74    73    1
    12    71    70    1
    13    71    79   am
    14    81    80    1
    15    70    73    1
    16    62    61    1
    17    62    65    1
    18    83    80    1
    19    83    84    1
    20    66    65    1
    21    66    68    1
    22    66    67    1
    23    80    79    1
    24    87    86    1
    25    85    86    1
    26    85    84    1
    27    25    24    2
    28    51    52    2
    29    51    50    1
    30    50    49    1
    31    50    53    1
    32    24    26   am
    33    24    23    1
    34    41    40    1
    35    41    42    2
    36    40    43    1
    37    40    39    1
    38    45    47   ar
    39    45    44   ar
    40    53    54    1
    41    23    20    1
    42    20    19    1
    43    20    21    1
    44    56    54   ar
    45    56    58   ar
    46    43    44    1
    47    54    55   ar
    48    47    48   ar
    49    44    46   ar
    50    21    22    2
    51    58    59   ar
    52    14    13    2
    53    55    57   ar
    54    59    57   ar
    55    59    60    1
    56    35    33   ar
    57    35    37   ar
    58    48    46   ar
    59    38    37    1
    60    27    28    1
    61    33    32   ar
    62    28    29    1
    63    28    31    1
    64    13    12    1
    65    29    30    2
    66    37    36   ar
    67    17    16    2
    68    32    31    1
    69    32    34   ar
    70    36    34   ar
    71    16    15    1
    72    16    18   am
    73    12    15    1
    74    12    11    1
    75     4     3    2
    76     1     2    1
    77    93    92    1
    78     5     2    1
    79     5     6    1
    80    99    98    1
    81     3     2    1
    82    88    89    1
    83     7     6   ar
    84     7     9   ar
    85     6     8   ar
    86    92    89    1
    87    98   100    1
    88    98    95    1
    89    89    90    1
    90    90    94   am
    91    90    91    2
    92    94    95    1
    93    95    96    1
    94     9    10   ar
    95     8    10   ar
    96    96    97    2
    97   106   105    1
    98   107   105    1
    99   105   102    1
   100   101   102    1
   101   102   103    1
   102   104   103    2
   103   103   108   am
   104   108   109    1
   105   108   114    1
   106   109   110    1
   107   109   112    1
   108   110   111    2
   109   112   113    1
   110   114   113    1
