@<TRIPOS>MOLECULE
tmp/4tujD00.pdb
 112 112 0 0 0
SMALL
GASTEIGER

@<TRIPOS>ATOM
      1  N         17.7830  -77.8520  -86.2120 N.3    24  TYR24      -0.1227
      2  CA        16.8530  -77.0330  -85.4560 C.3    24  TYR24       0.1736
      3  C         16.2470  -75.9360  -86.2970 C.2    24  TYR24       0.2595
      4  O         16.6940  -75.6680  -87.4040 O.2    24  TYR24      -0.2718
      5  CB        17.5550  -76.4470  -84.2070 C.3    24  TYR24       0.0548
      6  CG        17.7820  -77.4970  -83.1370 C.ar   24  TYR24      -0.0200
      7  CD1       16.8500  -78.5080  -82.9400 C.ar   24  TYR24      -0.0009
      8  CD2       18.9300  -77.5000  -82.3460 C.ar   24  TYR24      -0.0009
      9  CE1       17.0330  -79.4770  -81.9900 C.ar   24  TYR24       0.0417
     10  CE2       19.1200  -78.4650  -81.3960 C.ar   24  TYR24       0.0417
     11  CZ        18.1570  -79.4620  -81.2270 C.ar   24  TYR24       0.1957
     12  OH        18.2960  -80.4570  -80.2870 O.3    24  TYR24      -0.2866
     13  N         15.2110  -75.2920  -85.7650 N.am   25  ASN25      -0.1974
     14  CA        14.5550  -74.2170  -86.4800 C.3    25  ASN25       0.1688
     15  C         15.3960  -72.9340  -86.5410 C.2    25  ASN25       0.2292
     16  O         16.1270  -72.6060  -85.6140 O.2    25  ASN25      -0.2864
     17  CB        13.1790  -73.9410  -85.8660 C.3    25  ASN25       0.1181
     18  CG        12.2320  -75.1370  -85.9950 C.2    25  ASN25       0.2629
     19  OD1       12.3550  -75.9380  -86.9200 O.2    25  ASN25      -0.2716
     20  ND2       11.3150  -75.2780  -85.0420 N.am   25  ASN25      -0.0877
     21  N         12.3940  -60.5350  -81.5350 N.3    39  TRP39      -0.1241
     22  CA        12.2620  -61.7620  -82.3180 C.3    39  TRP39       0.1605
     23  C         11.2690  -61.5130  -83.4490 C.2    39  TRP39       0.2264
     24  O         10.2010  -60.9760  -83.2110 O.2    39  TRP39      -0.2867
     25  CB        11.7880  -62.8760  -81.3690 C.3    39  TRP39       0.0550
     26  CG        11.5750  -64.2200  -81.9700 C.ar   39  TRP39       0.0003
     27  CD1       12.5140  -65.2030  -82.1620 C.ar   39  TRP39       0.0946
     28  CD2       10.3400  -64.7530  -82.4250 C.ar   39  TRP39       0.0152
     29  NE1       11.9320  -66.3080  -82.7250 N.ar   39  TRP39      -0.2442
     30  CE2       10.5940  -66.0640  -82.8940 C.ar   39  TRP39       0.0810
     31  CE3        9.0330  -64.2460  -82.5040 C.ar   39  TRP39       0.0012
     32  CZ2        9.6030  -66.8690  -83.4050 C.ar   39  TRP39       0.0191
     33  CZ3        8.0370  -65.0670  -83.0150 C.ar   39  TRP39       0.0001
     34  CH2        8.3290  -66.3570  -83.4550 C.ar   39  TRP39       0.0015
     35  N         10.3740  -67.4940  -86.9710 N.3    42  ALA42      -0.1231
     36  CA        11.1540  -68.6800  -87.1990 C.3    42  ALA42       0.1694
     37  C         10.5700  -69.5770  -88.3110 C.2    42  ALA42       0.2592
     38  O          9.3590  -69.5500  -88.5900 O.2    42  ALA42      -0.2718
     39  CB        11.2610  -69.4930  -85.9040 C.3    42  ALA42       0.0304
     40  N         11.4440  -70.3940  -88.9010 N.am   43  ILE43      -0.1966
     41  CA        11.0510  -71.3220  -89.9530 C.3    43  ILE43       0.1727
     42  C         11.6640  -72.7040  -89.7300 C.2    43  ILE43       0.2616
     43  O         12.8560  -72.8290  -89.4070 O.2    43  ILE43      -0.2715
     44  CB        11.5270  -70.7990  -91.3240 C.3    43  ILE43       0.0290
     45  CG1       11.0190  -71.6750  -92.4750 C.3    43  ILE43       0.0022
     46  CG2       13.0350  -70.7430  -91.3790 C.3    43  ILE43       0.0023
     47  CD1       10.9190  -70.9200  -93.8250 C.3    43  ILE43       0.0001
     48  N         10.8820  -73.7550  -89.9650 N.am   44  ASP44      -0.1958
     49  CA        11.4490  -75.0960  -89.9500 C.3    44  ASP44       0.1825
     50  C         12.1230  -75.3340  -91.2960 C.2    44  ASP44       0.2464
     51  O         11.4510  -75.3960  -92.3220 O.2    44  ASP44      -0.2730
     52  CB        10.3810  -76.1850  -89.7110 C.3    44  ASP44       0.1450
     53  CG        10.9700  -77.5920  -89.7060 C.2    44  ASP44       0.3671
     54  OD1       11.9300  -77.8630  -90.4510 O.co2  44  ASP44      -0.2456
     55  OD2       10.4880  -78.4400  -88.9290 O.co2  44  ASP44      -0.2456
     56  N         13.4320  -75.5630  -91.2900 N.am   45  PRO45      -0.2715
     57  CA        14.1440  -75.6580  -92.5660 C.3    45  PRO45       0.1536
     58  C         13.8790  -76.8930  -93.4110 C.2    45  PRO45       0.2598
     59  O         14.2730  -76.8710  -94.5770 O.2    45  PRO45      -0.2715
     60  CB        15.6130  -75.6430  -92.1610 C.3    45  PRO45       0.0310
     61  CG        15.6360  -75.9270  -90.6980 C.3    45  PRO45       0.0237
     62  CD        14.3540  -75.4570  -90.1420 C.3    45  PRO45       0.0939
     63  N         13.2870  -77.9350  -92.8440 N.am   46  TYR46      -0.1974
     64  CA        12.9640  -79.1450  -93.6050 C.3    46  TYR46       0.1639
     65  C         11.5570  -79.0720  -94.2090 C.2    46  TYR46       0.2290
     66  O         11.4050  -79.1530  -95.4190 O.2    46  TYR46      -0.2864
     67  CB        13.0770  -80.4030  -92.7330 C.3    46  TYR46       0.0560
     68  CG        13.0160  -81.6870  -93.5540 C.ar   46  TYR46      -0.0198
     69  CD1       11.7980  -82.2820  -93.8590 C.ar   46  TYR46      -0.0009
     70  CD2       14.1750  -82.2830  -94.0420 C.ar   46  TYR46      -0.0009
     71  CE1       11.7280  -83.4400  -94.6180 C.ar   46  TYR46       0.0417
     72  CE2       14.1140  -83.4570  -94.8080 C.ar   46  TYR46       0.0417
     73  CZ        12.8830  -84.0210  -95.0870 C.ar   46  TYR46       0.1957
     74  OH        12.8020  -85.1600  -95.8430 O.3    46  TYR46      -0.2866
     75  N          7.4770  -74.8640  -92.4270 N.3    49  GLY49      -0.1210
     76  CA         6.4770  -74.1680  -91.6350 C.3    49  GLY49       0.1956
     77  C          7.0930  -72.9850  -90.8890 C.2    49  GLY49       0.2613
     78  O          8.3120  -72.9640  -90.6340 O.2    49  GLY49      -0.2717
     79  N          6.2610  -72.0090  -90.5280 N.am   50  THR50      -0.1938
     80  CA         6.7390  -70.7700  -89.9080 C.3    50  THR50       0.2028
     81  C          5.9270  -70.2890  -88.7290 C.2    50  THR50       0.2642
     82  O          4.7670  -70.6540  -88.5470 O.2    50  THR50      -0.2714
     83  CB         6.6820  -69.5790  -90.8990 C.3    50  THR50       0.1808
     84  OG1        5.3280  -69.4040  -91.3660 O.3    50  THR50      -0.2208
     85  CG2        7.5930  -69.8110  -92.0530 C.3    50  THR50       0.0379
     86  N          6.5460  -69.4210  -87.9390 N.am   51  SER51      -0.1949
     87  CA         5.8320  -68.6610  -86.9060 C.3    51  SER51       0.1924
     88  C          6.3540  -67.2310  -86.9360 C.2    51  SER51       0.2314
     89  O          7.5830  -67.0170  -86.9890 O.2    51  SER51      -0.2863
     90  CB         6.0200  -69.3160  -85.5270 C.3    51  SER51       0.2116
     91  OG         5.4080  -68.5360  -84.5140 O.3    51  SER51      -0.2180
     92  N         18.0080  -72.8580  -83.5100 N.3    91  GLY91      -0.1210
     93  CA        17.4870  -73.5070  -82.3190 C.3    91  GLY91       0.1956
     94  C         17.4720  -72.5840  -81.0920 C.2    91  GLY91       0.2612
     95  O         17.2460  -73.0190  -79.9630 O.2    91  GLY91      -0.2717
     96  N         17.6940  -71.3030  -81.3410 N.am   92  MET92      -0.1965
     97  CA        17.9040  -70.2750  -80.3090 C.3    92  MET92       0.1736
     98  C         19.1300  -70.5600  -79.4710 C.2    92  MET92       0.2616
     99  O         19.3010  -69.9860  -78.3960 O.2    92  MET92      -0.2715
    100  CB        16.6690  -70.0450  -79.4340 C.3    92  MET92       0.0427
    101  CG        15.5000  -69.4100  -80.1570 C.3    92  MET92       0.0599
    102  SD        15.9220  -67.8280  -80.9400 S.3    92  MET92      -0.1393
    103  CE        16.6060  -66.8880  -79.5490 C.3    92  MET92       0.0692
    104  N         20.0210  -71.3860  -80.0010 N.am   93  GLU93      -0.1977
    105  CA        21.2620  -71.7270  -79.3170 C.3    93  GLU93       0.1602
    106  C         22.4670  -70.9960  -79.8700 C.2    93  GLU93       0.2287
    107  O         23.3040  -70.4960  -79.1130 O.2    93  GLU93      -0.2864
    108  CB        21.5160  -73.2240  -79.4230 C.3    93  GLU93       0.0415
    109  CG        20.4950  -74.0310  -78.6510 C.3    93  GLU93       0.1163
    110  CD        20.8180  -75.5120  -78.6100 C.2    93  GLU93       0.3649
    111  OE1       21.7560  -75.9400  -79.3200 O.co2  93  GLU93      -0.2457
    112  OE2       20.1280  -76.2350  -77.8580 O.co2  93  GLU93      -0.2457
@<TRIPOS>BOND
     1    74    73    1
     2    66    65    2
     3    73    72   ar
     4    73    71   ar
     5    72    70   ar
     6    71    69   ar
     7    59    58    2
     8    65    64    1
     9    70    68   ar
    10    69    68   ar
    11    47    45    1
    12    64    63    1
    13    64    67    1
    14    68    67    1
    15    58    63   am
    16    58    57    1
    17    57    60    1
    18    57    56    1
    19    45    44    1
    20    75    76    1
    21    51    50    2
    22    60    61    1
    23    85    83    1
    24    76    77    1
    25    46    44    1
    26    84    83    1
    27    44    41    1
    28    50    56   am
    29    50    49    1
    30    56    62    1
    31    83    80    1
    32    77    78    2
    33    77    79   am
    34    61    62    1
    35    79    80    1
    36    54    53   ar
    37    48    49    1
    38    48    42   am
    39    41    42    1
    40    41    40    1
    41    49    52    1
    42    80    81    1
    43    42    43    2
    44    52    53    1
    45    53    55   ar
    46    40    37   am
    47    81    82    2
    48    81    86   am
    49    38    37    2
    50    37    36    1
    51    86    87    1
    52     4     3    2
    53    36    35    1
    54    36    39    1
    55    89    88    2
    56    88    87    1
    57    19    18    2
    58    87    90    1
    59    15    14    1
    60    15    16    2
    61    14    17    1
    62    14    13    1
    63     3    13   am
    64     3     2    1
    65     1     2    1
    66    18    17    1
    67    18    20   am
    68    90    91    1
    69     2     5    1
    70     5     6    1
    71    92    93    1
    72    34    32   ar
    73    34    33   ar
    74    23    24    2
    75    23    22    1
    76    32    30   ar
    77     6     7   ar
    78     6     8   ar
    79    33    31   ar
    80     7     9   ar
    81    30    29   ar
    82    30    28   ar
    83    29    27   ar
    84    31    28   ar
    85    28    26   ar
    86     8    10   ar
    87    93    94    1
    88    22    21    1
    89    22    25    1
    90    27    26   ar
    91     9    11   ar
    92    26    25    1
    93    10    11   ar
    94    96    94   am
    95    96    97    1
    96    11    12    1
    97    94    95    2
    98   102   101    1
    99   102   103    1
   100    97    98    1
   101    97   100    1
   102   101   100    1
   103   104    98   am
   104   104   105    1
   105   106   105    1
   106   106   107    2
   107    98    99    2
   108   108   105    1
   109   108   109    1
   110   111   110   ar
   111   109   110    1
   112   110   112   ar
