@<TRIPOS>MOLECULE
tmp/4tukB00.pdb
 136 133 0 0 0
SMALL
GASTEIGER

@<TRIPOS>ATOM
      1  N         47.0370  -17.0350    9.0030 N.3    31  HIS31      -0.1226
      2  CA        45.9770  -18.0140    9.2230 C.3    31  HIS31       0.1752
      3  C         45.8050  -18.2650   10.7460 C.2    31  HIS31       0.2596
      4  O         46.7490  -18.0690   11.5270 O.2    31  HIS31      -0.2718
      5  CB        46.3470  -19.3290    8.5320 C.3    31  HIS31       0.0759
      6  CG        45.2090  -20.2750    8.3880 C.ar   31  HIS31       0.0818
      7  ND1       44.7980  -21.1110    9.4070 N.ar   31  HIS31      -0.2268
      8  CD2       44.3390  -20.4830    7.3700 C.ar   31  HIS31       0.1154
      9  CE1       43.7670  -21.8140    8.9950 C.ar   31  HIS31       0.1986
     10  NE2       43.4300  -21.4180    7.7850 N.ar   31  HIS31      -0.2212
     11  N         44.5880  -18.6230   11.1460 N.am   32  ARG32      -0.1966
     12  CA        44.3250  -18.9910   12.5680 C.3    32  ARG32       0.1729
     13  C         45.3390  -20.0700   13.0520 C.2    32  ARG32       0.2616
     14  O         45.7090  -20.0950   14.2400 O.2    32  ARG32      -0.2715
     15  CB        42.8960  -19.4860   12.6620 C.3    32  ARG32       0.0348
     16  CG        42.5130  -19.9270   14.0370 C.3    32  ARG32       0.0492
     17  CD        41.1470  -20.4950   14.0370 C.3    32  ARG32       0.2205
     18  NE        40.8960  -21.6800   13.2710 N.pl3  32  ARG32      -0.0865
     19  CZ        41.2810  -22.9210   13.5560 C.cat  32  ARG32       0.5346
     20  NH1       41.9930  -23.1200   14.6810 N.pl3  32  ARG32       0.1354
     21  NH2       40.9760  -23.9770   12.8100 N.pl3  32  ARG32       0.1354
     22  N         45.8540  -20.9190   12.1160 N.am   33  ASN33      -0.1972
     23  CA        46.8270  -21.9410   12.4340 C.3    33  ASN33       0.1688
     24  C         48.2750  -21.4840   12.6470 C.2    33  ASN33       0.2292
     25  O         49.1360  -22.2830   13.0690 O.2    33  ASN33      -0.2864
     26  CB        46.6970  -23.1300   11.4740 C.3    33  ASN33       0.1181
     27  CG        47.3300  -22.8990   10.1450 C.2    33  ASN33       0.2629
     28  OD1       48.1540  -21.9740    9.9870 O.2    33  ASN33      -0.2716
     29  ND2       46.9350  -23.7120    9.1480 N.am   33  ASN33      -0.0877
     30  N         50.3090  -18.1000    4.3410 N.3    37  TYR37      -0.1241
     31  CA        50.4300  -18.7970    3.0590 C.3    37  TYR37       0.1605
     32  C         50.5940  -17.8000    1.9140 C.2    37  TYR37       0.2264
     33  O         49.6310  -17.5670    1.1110 O.2    37  TYR37      -0.2867
     34  CB        49.2660  -19.7710    2.8260 C.3    37  TYR37       0.0534
     35  CG        49.1310  -20.8300    3.8800 C.ar   37  TYR37      -0.0201
     36  CD1       49.8230  -22.0500    3.7640 C.ar   37  TYR37      -0.0009
     37  CD2       48.2490  -20.6540    4.9610 C.ar   37  TYR37      -0.0009
     38  CE1       49.6280  -23.0110    4.7340 C.ar   37  TYR37       0.0417
     39  CE2       48.0610  -21.6330    5.9230 C.ar   37  TYR37       0.0417
     40  CZ        48.7760  -22.7820    5.7970 C.ar   37  TYR37       0.1957
     41  OH        48.6010  -23.8250    6.7010 O.3    37  TYR37      -0.2866
     42  N         53.0780  -16.8360   -1.2290 N.3    39  HIS39      -0.1241
     43  CA        54.1080  -17.4970   -2.1040 C.3    39  HIS39       0.1621
     44  C         54.4370  -16.6310   -3.2570 C.2    39  HIS39       0.2264
     45  O         53.6580  -15.7650   -3.6640 O.2    39  HIS39      -0.2867
     46  CB        53.6370  -18.8380   -2.6340 C.3    39  HIS39       0.0745
     47  CG        52.9190  -19.6540   -1.6280 C.ar   39  HIS39       0.0817
     48  ND1       53.4020  -19.9470   -0.3920 N.ar   39  HIS39      -0.2268
     49  CD2       51.6730  -20.2070   -1.6630 C.ar   39  HIS39       0.1154
     50  CE1       52.5450  -20.6720    0.2860 C.ar   39  HIS39       0.1986
     51  NE2       51.4910  -20.8730   -0.4710 N.ar   39  HIS39      -0.2212
     52  N         56.0260  -16.6730   -7.3370 N.3    41  TYR41      -0.1241
     53  CA        56.3110  -17.4160   -8.5590 C.3    41  TYR41       0.1605
     54  C         56.9750  -16.4510   -9.6090 C.2    41  TYR41       0.2264
     55  O         56.7200  -15.2110   -9.6000 O.2    41  TYR41      -0.2867
     56  CB        54.9960  -17.8960   -9.1510 C.3    41  TYR41       0.0534
     57  CG        54.2020  -18.8140   -8.2950 C.ar   41  TYR41      -0.0201
     58  CD1       54.4240  -20.2060   -8.3510 C.ar   41  TYR41      -0.0009
     59  CD2       53.2340  -18.3780   -7.4130 C.ar   41  TYR41      -0.0009
     60  CE1       53.7240  -21.0760   -7.5350 C.ar   41  TYR41       0.0417
     61  CE2       52.5030  -19.2550   -6.5990 C.ar   41  TYR41       0.0417
     62  CZ        52.7160  -20.5950   -6.6710 C.ar   41  TYR41       0.1957
     63  OH        52.0500  -21.4200   -5.8470 O.3    41  TYR41      -0.2866
     64  N         57.6480  -21.9580   -8.9820 N.3    51  LEU51      -0.1245
     65  CA        57.6180  -21.5210   -7.6030 C.3    51  LEU51       0.1561
     66  C         58.9730  -21.1270   -7.1660 C.2    51  LEU51       0.2260
     67  O         59.9240  -21.8630   -7.3370 O.2    51  LEU51      -0.2867
     68  CB        57.1060  -22.6610   -6.7540 C.3    51  LEU51       0.0270
     69  CG        57.0220  -22.4640   -5.2440 C.3    51  LEU51       0.0019
     70  CD1       56.1790  -21.2460   -4.8810 C.3    51  LEU51       0.0001
     71  CD2       56.6160  -23.7220   -4.4820 C.3    51  LEU51       0.0001
     72  N         58.0810  -19.9010   -0.8260 N.3    54  HIS54      -0.1226
     73  CA        56.8050  -20.3220   -0.2340 C.3    54  HIS54       0.1752
     74  C         56.7550  -19.9390    1.2240 C.2    54  HIS54       0.2595
     75  O         57.7580  -19.8800    1.9190 O.2    54  HIS54      -0.2718
     76  CB        56.5070  -21.7870   -0.4730 C.3    54  HIS54       0.0759
     77  CG        57.5360  -22.7250    0.0670 C.ar   54  HIS54       0.0818
     78  ND1       57.3990  -23.3930    1.2600 N.ar   54  HIS54      -0.2268
     79  CD2       58.7310  -23.0970   -0.4420 C.ar   54  HIS54       0.1154
     80  CE1       58.4670  -24.1670    1.4390 C.ar   54  HIS54       0.1986
     81  NE2       59.2930  -24.0110    0.4210 N.ar   54  HIS54      -0.2212
     82  N         55.5530  -19.6960    1.7170 N.am   55  LYS55      -0.1980
     83  CA        55.3190  -19.3810    3.0930 C.3    55  LYS55       0.1596
     84  C         56.2250  -18.2260    3.5340 C.2    55  LYS55       0.2287
     85  O         57.0230  -18.2930    4.4790 O.2    55  LYS55      -0.2864
     86  CB        55.3850  -20.5970    4.0060 C.3    55  LYS55       0.0298
     87  CG        54.2050  -21.5340    3.8090 C.3    55  LYS55       0.0038
     88  CD        54.2420  -22.7860    4.7160 C.3    55  LYS55       0.0206
     89  CE        54.3120  -22.4340    6.1830 C.3    55  LYS55       0.1093
     90  NZ        54.2750  -23.7110    7.0170 N.3    55  LYS55      -0.1314
     91  N         62.1170  -22.5060   -2.5340 N.3    60  PHE60      -0.1241
     92  CA        61.6820  -23.8560   -2.9990 C.3    60  PHE60       0.1605
     93  C         62.9340  -24.6120   -3.4650 C.2    60  PHE60       0.2264
     94  O         63.9710  -24.0170   -3.7620 O.2    60  PHE60      -0.2867
     95  CB        60.6540  -23.6760   -4.1140 C.3    60  PHE60       0.0534
     96  CG        59.9280  -24.9350   -4.5280 C.ar   60  PHE60      -0.0203
     97  CD1       59.2620  -25.7430   -3.5920 C.ar   60  PHE60      -0.0042
     98  CD2       59.8550  -25.2520   -5.8530 C.ar   60  PHE60      -0.0042
     99  CE1       58.6030  -26.9160   -4.0030 C.ar   60  PHE60      -0.0003
    100  CE2       59.1860  -26.3990   -6.2760 C.ar   60  PHE60      -0.0003
    101  CZ        58.5300  -27.2110   -5.3320 C.ar   60  PHE60      -0.0000
    102  N         47.1030  -18.1730   -0.1200 N.3    96  SER96      -0.1202
    103  CA        46.2800  -19.3770    0.1030 C.3    96  SER96       0.2020
    104  C         45.8300  -19.5190    1.5270 C.2    96  SER96       0.2619
    105  O         45.6030  -20.6160    2.0100 O.2    96  SER96      -0.2717
    106  CB        46.9550  -20.6300   -0.4530 C.3    96  SER96       0.2103
    107  OG        46.0980  -21.8020   -0.4770 O.3    96  SER96      -0.2182
    108  N         45.8340  -18.4060    2.2350 N.am   97  THR97      -0.1952
    109  CA        45.3140  -18.3000    3.5810 C.3    97  THR97       0.1897
    110  C         43.7960  -18.3590    3.5690 C.2    97  THR97       0.2313
    111  O         43.2140  -19.0540    4.4150 O.2    97  THR97      -0.2863
    112  CB        45.8200  -17.0710    4.3360 C.3    97  THR97       0.1794
    113  OG1       47.2450  -17.2160    4.4810 O.3    97  THR97      -0.2208
    114  CG2       45.2080  -16.9490    5.7020 C.3    97  THR97       0.0378
    115  N         40.8430  -19.2870    1.5150 N.3    99  VAL99      -0.1231
    116  CA        40.4850  -20.1440    0.4060 C.3    99  VAL99       0.1678
    117  C         39.2200  -20.9610    0.6350 C.2    99  VAL99       0.2434
    118  O         38.9350  -21.3750    1.7470 O.2    99  VAL99      -0.2733
    119  CB        41.6250  -21.1310    0.0660 C.3    99  VAL99       0.0265
    120  CG1       42.8770  -20.3770   -0.2460 C.3    99  VAL99       0.0020
    121  CG2       41.9270  -22.1950    1.1170 C.3    99  VAL99       0.0020
    122  N         38.4800  -21.2410   -0.4470 N.am  100  PRO100     -0.2729
    123  CA        38.6100  -20.6500   -1.7710 C.3   100  PRO100      0.1401
    124  C         38.2220  -19.1880   -1.8200 C.2   100  PRO100      0.2269
    125  O         37.5110  -18.7180   -0.9030 O.2   100  PRO100     -0.2865
    126  CB        37.6120  -21.4650   -2.6140 C.3   100  PRO100      0.0296
    127  CG        36.5680  -21.8900   -1.6060 C.3   100  PRO100      0.0237
    128  CD        37.2330  -21.9980   -0.2870 C.3   100  PRO100      0.0939
    129  N         42.0330  -19.1480   -3.8550 N.3   102  LEU102     -0.1245
    130  CA        43.3840  -18.5950   -3.8870 C.3   102  LEU102      0.1561
    131  C         43.3880  -17.4010   -4.8120 C.2   102  LEU102      0.2260
    132  O         42.6180  -17.3810   -5.7950 O.2   102  LEU102     -0.2867
    133  CB        44.3490  -19.6320   -4.4150 C.3   102  LEU102      0.0270
    134  CG        44.8340  -20.6800   -3.4250 C.3   102  LEU102      0.0019
    135  CD1       43.8450  -21.8110   -3.2620 C.3   102  LEU102      0.0001
    136  CD2       46.1850  -21.1870   -3.9250 C.3   102  LEU102      0.0001
@<TRIPOS>BOND
     1    54    55    2
     2    54    53    1
     3    56    53    1
     4    56    57    1
     5    64    65    1
     6    53    52    1
     7    58    57   ar
     8    58    60   ar
     9    57    59   ar
    10    65    66    1
    11    65    68    1
    12    60    62   ar
    13    59    61   ar
    14    67    66    2
    15    68    69    1
    16    62    61   ar
    17    62    63    1
    18   100    98   ar
    19   100   101   ar
    20    98    96   ar
    21   132   131    2
    22   101    99   ar
    23    69    70    1
    24    69    71    1
    25   131   130    1
    26    96    95    1
    27    96    97   ar
    28   133   130    1
    29   133   134    1
    30    95    92    1
    31    99    97   ar
    32   136   134    1
    33   130   129    1
    34    94    93    2
    35    45    44    2
    36    93    92    1
    37   134   135    1
    38    44    43    1
    39    92    91    1
    40    46    43    1
    41    46    47    1
    42   126   123    1
    43   126   127    1
    44    43    42    1
    45   124   123    1
    46   124   125    2
    47   123   122    1
    48    49    47   ar
    49    49    51   ar
    50    47    48   ar
    51   127   128    1
    52    72    73    1
    53   107   106    1
    54    76    73    1
    55    76    77    1
    56    51    50   ar
    57   106   103    1
    58   122   128    1
    59   122   117   am
    60    79    77   ar
    61    79    81   ar
    62    48    50   ar
    63   120   119    1
    64    73    74    1
    65   102   103    1
    66   119   116    1
    67   119   121    1
    68    77    78   ar
    69   103   104    1
    70   116   117    1
    71   116   115    1
    72    81    80   ar
    73   117   118    2
    74    33    32    2
    75    74    82   am
    76    74    75    2
    77    78    80   ar
    78   104   105    2
    79   104   108   am
    80    82    83    1
    81    32    31    1
    82   108   109    1
    83    34    31    1
    84    34    35    1
    85    31    30    1
    86    83    84    1
    87    83    86    1
    88    84    85    2
    89   110   109    1
    90   110   111    2
    91   109   112    1
    92    36    35   ar
    93    36    38   ar
    94    87    86    1
    95    87    88    1
    96    35    37   ar
    97   112   113    1
    98   112   114    1
    99    88    89    1
   100    38    40   ar
   101    37    39   ar
   102    40    39   ar
   103    40    41    1
   104    89    90    1
   105     8    10   ar
   106     8     6   ar
   107    10     9   ar
   108     6     5    1
   109     6     7   ar
   110     5     2    1
   111     9     7   ar
   112     1     2    1
   113    29    27   am
   114     2     3    1
   115    28    27    2
   116    27    26    1
   117     3    11   am
   118     3     4    2
   119    11    12    1
   120    26    23    1
   121    22    23    1
   122    22    13   am
   123    23    24    1
   124    12    15    1
   125    12    13    1
   126    24    25    2
   127    15    16    1
   128    21    19    1
   129    13    14    2
   130    18    19    2
   131    18    17    1
   132    19    20    1
   133    17    16    1
