@<TRIPOS>MOLECULE
tmp/4tunA00.pdb
 119 115 0 0 0
SMALL
GASTEIGER

@<TRIPOS>ATOM
      1  N         -4.1340   15.1030   -4.6220 N.3    35  GLU35      -0.1245
      2  CA        -4.7670   16.0190   -3.6950 C.3    35  GLU35       0.1567
      3  C         -5.4440   17.2270   -4.3800 C.2    35  GLU35       0.2260
      4  O         -6.5750   17.5780   -4.0180 O.2    35  GLU35      -0.2867
      5  CB        -3.7900   16.4710   -2.5890 C.3    35  GLU35       0.0388
      6  CG        -3.3090   15.3700   -1.6110 C.3    35  GLU35       0.1160
      7  CD        -4.3770   14.8150   -0.6840 C.2    35  GLU35       0.3649
      8  OE1       -5.5130   15.3340   -0.7440 O.co2  35  GLU35      -0.2457
      9  OE2       -4.0760   13.8730    0.1110 O.co2  35  GLU35      -0.2457
     10  N        -11.6550   21.8060   -0.5180 N.3    44  ASN44      -0.1240
     11  CA       -12.6610   20.7490   -0.4090 C.3    44  ASN44       0.1653
     12  C        -13.0940   20.6690    1.0190 C.2    44  ASN44       0.2266
     13  O        -12.2450   20.5480    1.9050 O.2    44  ASN44      -0.2867
     14  CB       -12.1170   19.4000   -0.8410 C.3    44  ASN44       0.1155
     15  CG       -11.8210   19.3540   -2.3380 C.2    44  ASN44       0.2627
     16  OD1      -12.7360   19.4260   -3.1770 O.2    44  ASN44      -0.2716
     17  ND2      -10.5330   19.2910   -2.6800 N.am   44  ASN44      -0.0877
     18  N        -14.7220   18.8440    4.1600 N.3    46  ASN46      -0.1240
     19  CA       -14.8180   17.5090    4.7200 C.3    46  ASN46       0.1653
     20  C        -16.1480   17.3920    5.4140 C.2    46  ASN46       0.2266
     21  O        -16.6950   18.3910    5.8620 O.2    46  ASN46      -0.2867
     22  CB       -13.6690   17.2760    5.7020 C.3    46  ASN46       0.1155
     23  CG       -12.3100   17.5200    5.0610 C.2    46  ASN46       0.2627
     24  OD1      -11.4830   18.3210    5.5330 O.2    46  ASN46      -0.2716
     25  ND2      -12.0970   16.8700    3.9450 N.am   46  ASN46      -0.0877
     26  N        -10.0110   21.3200    3.4910 N.3    52  ASP52      -0.1239
     27  CA        -8.6830   21.1200    2.9610 C.3    52  ASP52       0.1674
     28  C         -8.3600   22.1810    1.9450 C.2    52  ASP52       0.2266
     29  O         -9.1950   22.4950    1.0770 O.2    52  ASP52      -0.2867
     30  CB        -8.5940   19.7780    2.2640 C.3    52  ASP52       0.1410
     31  CG        -8.9000   18.6410    3.1790 C.2    52  ASP52       0.3668
     32  OD1       -8.5130   18.6810    4.3520 O.co2  52  ASP52      -0.2456
     33  OD2       -9.5280   17.6910    2.7030 O.co2  52  ASP52      -0.2456
     34  N         -1.5320   20.6530   -1.4550 N.3    56  LEU56      -0.1231
     35  CA        -1.3910   19.4550   -0.6390 C.3    56  LEU56       0.1693
     36  C         -2.5550   19.2900    0.3380 C.2    56  LEU56       0.2592
     37  O         -2.4680   18.5380    1.3040 O.2    56  LEU56      -0.2718
     38  CB        -0.0280   19.4660    0.0670 C.3    56  LEU56       0.0284
     39  CG         1.1430   19.0500   -0.8520 C.3    56  LEU56       0.0019
     40  CD1        2.5110   19.3330   -0.2040 C.3    56  LEU56       0.0001
     41  CD2        1.0300   17.5730   -1.2070 C.3    56  LEU56       0.0001
     42  N         -3.6490   19.9850    0.0540 N.am   57  GLN57      -0.1966
     43  CA        -4.9040   19.8030    0.7420 C.3    57  GLN57       0.1733
     44  C         -4.7350   19.7280    2.2680 C.2    57  GLN57       0.2616
     45  O         -5.1900   18.8020    2.9180 O.2    57  GLN57      -0.2715
     46  CB        -5.6270   18.5650    0.1940 C.3    57  GLN57       0.0408
     47  CG        -6.2500   18.8390   -1.1710 C.3    57  GLN57       0.0908
     48  CD        -7.3440   19.8670   -1.1020 C.2    57  GLN57       0.2608
     49  OE1       -8.4670   19.5130   -0.9060 O.2    57  GLN57      -0.2717
     50  NE2       -7.0320   21.1450   -1.3390 N.am   57  GLN57      -0.0878
     51  N         -4.1240   20.7610    2.8000 N.am   58  ILE58      -0.1963
     52  CA        -3.8820   20.8850    4.2400 C.3    58  ILE58       0.1727
     53  C         -5.1800   21.2490    4.9230 C.2    58  ILE58       0.2616
     54  O         -5.9650   22.1020    4.4580 O.2    58  ILE58      -0.2715
     55  CB        -2.6860   21.8380    4.4680 C.3    58  ILE58       0.0290
     56  CG1       -1.4110   21.1760    3.9110 C.3    58  ILE58       0.0022
     57  CG2       -2.4880   22.1700    5.9170 C.3    58  ILE58       0.0023
     58  CD1       -0.2340   22.1240    3.7840 C.3    58  ILE58       0.0001
     59  N         -5.4200   20.5760    6.0340 N.am   59  ASN59      -0.1972
     60  CA        -6.7270   20.5290    6.6240 C.3    59  ASN59       0.1688
     61  C         -6.8620   21.4570    7.8420 C.2    59  ASN59       0.2292
     62  O         -5.9640   21.4840    8.6960 O.2    59  ASN59      -0.2864
     63  CB        -7.0100   19.0670    6.9570 C.3    59  ASN59       0.1181
     64  CG        -7.8400   18.9080    8.1730 C.2    59  ASN59       0.2629
     65  OD1       -9.0630   18.7620    8.0820 O.2    59  ASN59      -0.2716
     66  ND2       -7.1770   18.9400    9.3540 N.am   59  ASN59      -0.0877
     67  N         -4.2390   22.1190   11.2160 N.3    63  TRP63      -0.1241
     68  CA        -3.0550   22.8140   10.6710 C.3    63  TRP63       0.1605
     69  C         -3.1370   24.3170   10.4070 C.2    63  TRP63       0.2264
     70  O         -2.1360   25.0230   10.5850 O.2    63  TRP63      -0.2867
     71  CB        -2.5390   22.0900    9.4080 C.3    63  TRP63       0.0550
     72  CG        -2.3010   20.6410    9.6930 C.ar   63  TRP63       0.0003
     73  CD1       -3.0350   19.5950    9.2410 C.ar   63  TRP63       0.0946
     74  CD2       -1.3200   20.0920   10.5950 C.ar   63  TRP63       0.0152
     75  NE1       -2.5620   18.4310    9.7690 N.ar   63  TRP63      -0.2442
     76  CE2       -1.5180   18.6990   10.6180 C.ar   63  TRP63       0.0810
     77  CE3       -0.2880   20.6480   11.3710 C.ar   63  TRP63       0.0012
     78  CZ2       -0.6950   17.8250   11.3780 C.ar   63  TRP63       0.0191
     79  CZ3        0.5250   19.7990   12.1320 C.ar   63  TRP63       0.0001
     80  CH2        0.3140   18.3980   12.1280 C.ar   63  TRP63       0.0015
     81  N          3.5250   18.6670    9.1150 N.3    98  ILE98      -0.1245
     82  CA         2.6220   17.5280    8.9270 C.3    98  ILE98       0.1561
     83  C          3.4340   16.2240    8.7680 C.2    98  ILE98       0.2260
     84  O          3.2550   15.2950    9.5650 O.2    98  ILE98      -0.2867
     85  CB         1.6440   17.7600    7.7420 C.3    98  ILE98       0.0252
     86  CG1        0.7130   18.9690    8.0170 C.3    98  ILE98       0.0019
     87  CG2        0.7830   16.5230    7.4720 C.3    98  ILE98       0.0019
     88  CD1       -0.2010   19.3360    6.8650 C.3    98  ILE98       0.0001
     89  N         -0.4150   10.6300    6.4720 N.3   107  ALA107     -0.1231
     90  CA        -1.3230   11.7600    6.8330 C.3   107  ALA107      0.1694
     91  C         -2.1220   12.2370    5.6430 C.2   107  ALA107      0.2592
     92  O         -3.2670   12.7330    5.7880 O.2   107  ALA107     -0.2718
     93  CB        -0.5150   12.9470    7.3920 C.3   107  ALA107      0.0304
     94  N         -1.4980   12.1470    4.4660 N.am  108  TRP108     -0.1962
     95  CA        -2.1630   12.4000    3.1960 C.3   108  TRP108      0.1771
     96  C         -2.8130   11.1260    2.7090 C.2   108  TRP108      0.2619
     97  O         -2.1400   10.2230    2.2100 O.2   108  TRP108     -0.2715
     98  CB        -1.1720   12.8880    2.1460 C.3   108  TRP108      0.0590
     99  CG        -0.8030   14.2910    2.3760 C.ar  108  TRP108      0.0006
    100  CD1       -1.5540   15.3830    2.0760 C.ar  108  TRP108      0.0946
    101  CD2        0.3610   14.7650    3.0320 C.ar  108  TRP108      0.0152
    102  NE1       -0.9240   16.5310    2.4920 N.ar  108  TRP108     -0.2442
    103  CE2        0.2590   16.1840    3.0920 C.ar  108  TRP108      0.0810
    104  CE3        1.4920   14.1420    3.5760 C.ar  108  TRP108      0.0012
    105  CZ2        1.2510   16.9800    3.6480 C.ar  108  TRP108      0.0191
    106  CZ3        2.4980   14.9400    4.1170 C.ar  108  TRP108      0.0001
    107  CH2        2.3610   16.3440    4.1750 C.ar  108  TRP108      0.0015
    108  N         -4.1180   11.0200    2.8820 N.am  109  VAL109     -0.1963
    109  CA        -4.8070    9.7660    2.5870 C.3   109  VAL109      0.1727
    110  C         -4.6730    9.4270    1.1160 C.2   109  VAL109      0.2616
    111  O         -4.4530    8.2560    0.7830 O.2   109  VAL109     -0.2715
    112  CB        -6.3000    9.8240    2.9600 C.3   109  VAL109      0.0290
    113  CG1       -7.0560    8.6600    2.3450 C.3   109  VAL109      0.0023
    114  CG2       -6.4690    9.7910    4.4790 C.3   109  VAL109      0.0023
    115  N         -4.7870   10.4270    0.2470 N.am  110  ALA110     -0.1977
    116  CA        -4.6300   10.1800   -1.2020 C.3   110  ALA110      0.1597
    117  C         -3.2250    9.7130   -1.6000 C.2   110  ALA110      0.2287
    118  O         -3.0390    9.0530   -2.6160 O.2   110  ALA110     -0.2864
    119  CB        -5.0420   11.3820   -2.0090 C.3   110  ALA110      0.0319
@<TRIPOS>BOND
     1     1     2    1
     2     3     4    2
     3     3     2    1
     4     2     5    1
     5    16    15    2
     6    17    15   am
     7   118   117    2
     8     5     6    1
     9    15    14    1
    10   119   116    1
    11     6     7    1
    12   117   116    1
    13    34    35    1
    14    50    48   am
    15    41    39    1
    16   116   115    1
    17    47    48    1
    18    47    46    1
    19    48    49    2
    20    39    40    1
    21    39    38    1
    22    14    11    1
    23     8     7   ar
    24     7     9   ar
    25    35    38    1
    26    35    36    1
    27    10    11    1
    28    11    12    1
    29    42    36   am
    30    42    43    1
    31    46    43    1
    32   115   110   am
    33    36    37    2
    34    43    44    1
    35   111   110    2
    36    12    13    2
    37    29    28    2
    38   110   109    1
    39    28    27    1
    40   100    99   ar
    41   100   102   ar
    42    98    99    1
    43    98    95    1
    44    97    96    2
    45    30    27    1
    46    30    31    1
    47    44    51   am
    48    44    45    2
    49   113   112    1
    50    99   101   ar
    51   102   103   ar
    52   109   108    1
    53   109   112    1
    54    33    31   ar
    55    96   108   am
    56    96    95    1
    57    51    52    1
    58   112   114    1
    59    27    26    1
    60   101   103   ar
    61   101   104   ar
    62   103   105   ar
    63    31    32   ar
    64    95    94    1
    65   104   106   ar
    66   105   107   ar
    67    58    56    1
    68    56    55    1
    69    25    23   am
    70   106   107   ar
    71    18    19    1
    72    52    55    1
    73    52    53    1
    74    54    53    2
    75    94    91   am
    76    55    57    1
    77    19    20    1
    78    19    22    1
    79    53    59   am
    80    23    24    2
    81    23    22    1
    82    20    21    2
    83    91    92    2
    84    91    90    1
    85    59    60    1
    86    89    90    1
    87    60    63    1
    88    60    61    1
    89    90    93    1
    90    88    86    1
    91    63    64    1
    92    87    85    1
    93    85    86    1
    94    85    82    1
    95    61    62    2
    96    65    64    2
    97    64    66   am
    98    83    82    1
    99    83    84    2
   100    82    81    1
   101    73    72   ar
   102    73    75   ar
   103    71    72    1
   104    71    68    1
   105    72    74   ar
   106    75    76   ar
   107    69    70    2
   108    69    68    1
   109    74    76   ar
   110    74    77   ar
   111    76    78   ar
   112    68    67    1
   113    77    79   ar
   114    78    80   ar
   115    80    79   ar
