@<TRIPOS>MOLECULE
tmp/4tuvA01.pdb
 94 86 0 0 0
SMALL
GASTEIGER

@<TRIPOS>ATOM
      1  N        -25.3100  -61.1900   -9.2720 N.3    69  LEU69      -0.1245
      2  CA       -24.4590  -60.4590  -10.1980 C.3    69  LEU69       0.1561
      3  C        -25.1040  -60.2480  -11.5860 C.2    69  LEU69       0.2260
      4  O        -24.9370  -59.2020  -12.2110 O.2    69  LEU69      -0.2867
      5  CB       -23.1330  -61.2080  -10.3420 C.3    69  LEU69       0.0270
      6  CG       -21.9940  -60.6010  -11.1490 C.3    69  LEU69       0.0019
      7  CD1      -21.4920  -59.2840  -10.5610 C.3    69  LEU69       0.0001
      8  CD2      -20.8920  -61.6290  -11.1850 C.3    69  LEU69       0.0001
      9  N        -11.8340  -67.8090  -12.4870 N.3   151  VAL151     -0.1231
     10  CA       -12.5640  -66.5530  -12.5900 C.3   151  VAL151      0.1692
     11  C        -11.9340  -65.6900  -13.6760 C.2   151  VAL151      0.2592
     12  O        -10.7670  -65.3360  -13.5810 O.2   151  VAL151     -0.2718
     13  CB       -12.5820  -65.8170  -11.2220 C.3   151  VAL151      0.0266
     14  CG1      -13.0620  -64.4070  -11.3540 C.3   151  VAL151      0.0020
     15  CG2      -13.4580  -66.5720  -10.2260 C.3   151  VAL151      0.0020
     16  N        -12.7000  -65.3750  -14.7200 N.am  152  ALA152     -0.1966
     17  CA       -12.1510  -64.6900  -15.9020 C.3   152  ALA152      0.1728
     18  C        -13.2390  -64.1530  -16.8220 C.2   152  ALA152      0.2616
     19  O        -14.3260  -64.7250  -16.9140 O.2   152  ALA152     -0.2715
     20  CB       -11.2230  -65.6440  -16.7000 C.3   152  ALA152      0.0334
     21  N        -12.9460  -63.0450  -17.4940 N.am  153  PHE153     -0.1974
     22  CA       -13.7830  -62.5820  -18.5860 C.3   153  PHE153      0.1639
     23  C        -13.9200  -63.7000  -19.6250 C.2   153  PHE153      0.2290
     24  O        -12.9550  -64.3720  -19.9670 O.2   153  PHE153     -0.2864
     25  CB       -13.2010  -61.3240  -19.2200 C.3   153  PHE153      0.0560
     26  CG       -13.8200  -60.9620  -20.5570 C.ar  153  PHE153     -0.0200
     27  CD1      -13.2030  -61.3300  -21.7490 C.ar  153  PHE153     -0.0042
     28  CD2      -15.0120  -60.2480  -20.6150 C.ar  153  PHE153     -0.0042
     29  CE1      -13.7610  -60.9950  -22.9710 C.ar  153  PHE153     -0.0003
     30  CE2      -15.5800  -59.9110  -21.8380 C.ar  153  PHE153     -0.0003
     31  CZ       -14.9530  -60.2940  -23.0210 C.ar  153  PHE153     -0.0000
     32  N        -18.4590  -65.3970  -15.9200 N.3   161  ILE161     -0.1245
     33  CA       -17.1260  -65.0790  -15.4170 C.3   161  ILE161      0.1561
     34  C        -16.3640  -66.2890  -14.8460 C.2   161  ILE161      0.2260
     35  O        -15.3390  -66.1360  -14.1770 O.2   161  ILE161     -0.2867
     36  CB       -17.1940  -63.9940  -14.3470 C.3   161  ILE161      0.0252
     37  CG1      -17.9100  -64.5110  -13.1050 C.3   161  ILE161      0.0019
     38  CG2      -17.8780  -62.7600  -14.9090 C.3   161  ILE161      0.0019
     39  CD1      -17.9080  -63.5090  -11.9910 C.3   161  ILE161      0.0001
     40  N        -15.4360  -66.0140   -6.0810 N.3   209  ALA209     -0.1231
     41  CA       -15.4180  -64.8960   -7.0220 C.3   209  ALA209      0.1694
     42  C        -14.5950  -63.7230   -6.5420 C.2   209  ALA209      0.2592
     43  O        -14.1430  -62.9360   -7.3580 O.2   209  ALA209     -0.2718
     44  CB       -16.8090  -64.4410   -7.3120 C.3   209  ALA209      0.0304
     45  N        -14.3930  -63.6140   -5.2300 N.am  210  GLY210     -0.1957
     46  CA       -13.7000  -62.4750   -4.6530 C.3   210  GLY210      0.1869
     47  C        -12.2240  -62.6920   -4.3620 C.2   210  GLY210      0.2309
     48  O        -11.5030  -61.7560   -4.0250 O.2   210  GLY210     -0.2863
     49  N         -9.6550  -60.9780   -7.1130 N.3   213  THR213     -0.1218
     50  CA        -9.7920  -59.5230   -7.1110 C.3   213  THR213      0.1862
     51  C         -9.1500  -58.9180   -5.8600 C.2   213  THR213      0.2287
     52  O         -8.4070  -57.9380   -5.9480 O.2   213  THR213     -0.2866
     53  CB       -11.2670  -59.0730   -7.1810 C.3   213  THR213      0.1770
     54  OG1      -12.0030  -59.6800   -6.1170 O.3   213  THR213     -0.2211
     55  CG2      -11.9050  -59.4710   -8.4960 C.3   213  THR213      0.0375
     56  N        -10.7430  -54.7060  -10.9400 N.3   254  VAL254     -0.1245
     57  CA       -11.6980  -54.9420  -12.0100 C.3   254  VAL254      0.1561
     58  C        -11.7080  -53.7230  -12.9240 C.2   254  VAL254      0.2260
     59  O        -12.0460  -52.6330  -12.4880 O.2   254  VAL254     -0.2867
     60  CB       -13.1080  -55.2360  -11.4600 C.3   254  VAL254      0.0252
     61  CG1      -14.0900  -55.5720  -12.6010 C.3   254  VAL254      0.0019
     62  CG2      -13.0360  -56.3870  -10.4790 C.3   254  VAL254      0.0019
     63  N        -13.3950  -53.0110  -15.6700 N.3   256  ARG256     -0.1245
     64  CA       -14.5920  -52.6660  -16.4030 C.3   256  ARG256      0.1563
     65  C        -15.7210  -53.6460  -16.1000 C.2   256  ARG256      0.2260
     66  O        -15.5070  -54.7200  -15.5270 O.2   256  ARG256     -0.2867
     67  CB       -14.3150  -52.6590  -17.9090 C.3   256  ARG256      0.0307
     68  CG       -14.2760  -54.0420  -18.5060 C.3   256  ARG256      0.0489
     69  CD       -13.9760  -54.0330  -19.9790 C.3   256  ARG256      0.2205
     70  NE       -14.1570  -55.3710  -20.5290 N.pl3 256  ARG256     -0.0865
     71  CZ       -13.3770  -55.9220  -21.4510 C.cat 256  ARG256      0.5346
     72  NH1      -12.3510  -55.2530  -21.9460 N.pl3 256  ARG256      0.1354
     73  NH2      -13.6250  -57.1460  -21.8770 N.pl3 256  ARG256      0.1354
     74  N        -20.2070  -53.6620   -5.0470 N.3   317  CYS317     -0.1235
     75  CA       -19.5830  -54.8970   -4.5710 C.3   317  CYS317      0.1677
     76  C        -19.9580  -55.2980   -3.1380 C.2   317  CYS317      0.2270
     77  O        -19.7140  -54.5680   -2.1700 O.2   317  CYS317     -0.2867
     78  CB       -18.0660  -54.7960   -4.6750 C.3   317  CYS317      0.0956
     79  SG       -17.2130  -56.2710   -4.0320 S.3   317  CYS317     -0.0801
     80  N        -10.0920  -58.0200  -18.1270 N.3   353  VAL353     -0.1231
     81  CA       -10.9050  -57.3790  -17.1130 C.3   353  VAL353      0.1692
     82  C        -10.1890  -57.3430  -15.7680 C.2   353  VAL353      0.2591
     83  O        -10.1240  -56.3020  -15.1160 O.2   353  VAL353     -0.2718
     84  CB       -12.2770  -58.0830  -16.9670 C.3   353  VAL353      0.0266
     85  CG1      -13.0140  -57.5710  -15.7380 C.3   353  VAL353      0.0020
     86  CG2      -13.1230  -57.8760  -18.2290 C.3   353  VAL353      0.0020
     87  N         -9.6600  -58.4890  -15.3580 N.am  354  LEU354     -0.1980
     88  CA        -8.8930  -58.6010  -14.1250 C.3   354  LEU354      0.1596
     89  C         -7.5000  -57.9890  -14.2470 C.2   354  LEU354      0.2287
     90  O         -6.7720  -58.2300  -15.2100 O.2   354  LEU354     -0.2864
     91  CB        -8.7850  -60.0580  -13.7280 C.3   354  LEU354      0.0297
     92  CG       -10.1450  -60.5830  -13.3120 C.3   354  LEU354      0.0022
     93  CD1      -10.1070  -62.0870  -13.1530 C.3   354  LEU354      0.0001
     94  CD2      -10.5700  -59.9110  -12.0130 C.3   354  LEU354      0.0001
@<TRIPOS>BOND
     1    31    29   ar
     2    31    30   ar
     3    29    27   ar
     4    72    71    1
     5    73    71    1
     6    30    28   ar
     7    27    26   ar
     8    71    70    2
     9    28    26   ar
    10    26    25    1
    11    70    69    1
    12    69    68    1
    13    24    23    2
    14    23    22    1
    15    25    22    1
    16    22    21    1
    17    68    67    1
    18    86    84    1
    19    80    81    1
    20    67    64    1
    21    21    18   am
    22    81    84    1
    23    81    82    1
    24    84    85    1
    25    19    18    2
    26    18    17    1
    27    20    17    1
    28    64    65    1
    29    64    63    1
    30    65    66    2
    31    32    33    1
    32    17    16    1
    33    82    87   am
    34    82    83    2
    35    33    34    1
    36    33    36    1
    37    87    88    1
    38    90    89    2
    39    38    36    1
    40    34    35    2
    41    16    11   am
    42    36    37    1
    43    89    88    1
    44    88    91    1
    45    91    92    1
    46    11    12    2
    47    11    10    1
    48    92    93    1
    49    92    94    1
    50    37    39    1
    51    58    59    2
    52    58    57    1
    53    61    60    1
    54    10     9    1
    55    10    13    1
    56     4     3    2
    57    57    60    1
    58    57    56    1
    59     3     2    1
    60    60    62    1
    61    14    13    1
    62    13    15    1
    63     8     6    1
    64     6     7    1
    65     6     5    1
    66     5     2    1
    67     2     1    1
    68    55    53    1
    69    43    42    2
    70    44    41    1
    71    53    50    1
    72    53    54    1
    73    49    50    1
    74    50    51    1
    75    41    42    1
    76    41    40    1
    77    42    45   am
    78    52    51    2
    79    45    46    1
    80    74    75    1
    81    78    75    1
    82    78    79    1
    83    46    47    1
    84    75    76    1
    85    47    48    2
    86    76    77    2
