@<TRIPOS>MOLECULE
tmp/4tuyD01.pdb
 124 121 0 0 0
SMALL
GASTEIGER

@<TRIPOS>ATOM
      1  N         29.9910  -14.4420  -46.4350 N.3    98  GLY98      -0.1210
      2  CA        29.6740  -15.8600  -46.4440 C.3    98  GLY98       0.1956
      3  C         29.2110  -16.3750  -45.0920 C.2    98  GLY98       0.2612
      4  O         29.5320  -17.5010  -44.7110 O.2    98  GLY98      -0.2717
      5  N         28.4630  -15.5430  -44.3700 N.am   99  ASN99      -0.1960
      6  CA        27.9700  -15.8810  -43.0360 C.3    99  ASN99       0.1819
      7  C         29.0970  -16.2730  -42.0860 C.2    99  ASN99       0.2621
      8  O         28.9160  -17.1130  -41.2050 O.2    99  ASN99      -0.2715
      9  CB        26.9380  -17.0110  -43.1140 C.3    99  ASN99       0.1195
     10  CG        25.6830  -16.6060  -43.8630 C.2    99  ASN99       0.2630
     11  OD1       25.1160  -15.5400  -43.6190 O.2    99  ASN99      -0.2716
     12  ND2       25.2430  -17.4570  -44.7850 N.am   99  ASN99      -0.0877
     13  N         30.2620  -15.6610  -42.2740 N.am  100  ASN100     -0.1972
     14  CA        31.4280  -15.9590  -41.4530 C.3   100  ASN100      0.1688
     15  C         31.8330  -14.7460  -40.6220 C.2   100  ASN100      0.2292
     16  O         32.2650  -13.7290  -41.1620 O.2   100  ASN100     -0.2864
     17  CB        32.5940  -16.4210  -42.3330 C.3   100  ASN100      0.1181
     18  CG        33.6790  -17.1330  -41.5440 C.2   100  ASN100      0.2629
     19  OD1       33.9590  -16.7910  -40.3960 O.2   100  ASN100     -0.2716
     20  ND2       34.2950  -18.1320  -42.1610 N.am  100  ASN100     -0.0877
     21  N         35.5350  -13.5560  -41.1150 N.3   103  LYS103     -0.1245
     22  CA        35.7680  -12.7750  -42.3240 C.3   103  LYS103      0.1561
     23  C         35.2920  -11.3390  -42.1410 C.2   103  LYS103      0.2260
     24  O         35.9320  -10.3960  -42.6050 O.2   103  LYS103     -0.2867
     25  CB        35.0660  -13.4150  -43.5240 C.3   103  LYS103      0.0271
     26  CG        35.6790  -14.7330  -43.9740 C.3   103  LYS103      0.0035
     27  CD        34.9510  -15.2960  -45.1860 C.3   103  LYS103      0.0206
     28  CE        35.6030  -16.5780  -45.6790 C.3   103  LYS103      0.1093
     29  NZ        34.8690  -17.1620  -46.8370 N.3   103  LYS103     -0.1314
     30  N         17.7300  -20.8830  -41.7020 N.3   177  ASP177     -0.1225
     31  CA        18.2310  -22.2370  -41.4990 C.3   177  ASP177      0.1805
     32  C         19.7550  -22.2780  -41.5490 C.2   177  ASP177      0.2598
     33  O         20.3560  -23.3530  -41.5590 O.2   177  ASP177     -0.2718
     34  CB        17.6370  -23.1940  -42.5360 C.3   177  ASP177      0.1424
     35  CG        17.8460  -22.7170  -43.9590 C.2   177  ASP177      0.3668
     36  OD1       18.8750  -22.0610  -44.2260 O.co2 177  ASP177     -0.2456
     37  OD2       16.9790  -23.0000  -44.8110 O.co2 177  ASP177     -0.2456
     38  N         20.3750  -21.1020  -41.5900 N.am  178  THR178     -0.1939
     39  CA        21.8250  -21.0020  -41.4900 C.3   178  THR178      0.2028
     40  C         22.2620  -21.5320  -40.1290 C.2   178  THR178      0.2642
     41  O         21.8530  -21.0130  -39.0900 O.2   178  THR178     -0.2714
     42  CB        22.3150  -19.5550  -41.6770 C.3   178  THR178      0.1808
     43  OG1       21.8960  -19.0690  -42.9580 O.3   178  THR178     -0.2208
     44  CG2       23.8310  -19.4870  -41.5850 C.3   178  THR178      0.0379
     45  N         23.0900  -22.5690  -40.1440 N.am  179  VAL179     -0.1963
     46  CA        23.3730  -23.3390  -38.9400 C.3   179  VAL179      0.1727
     47  C         24.4440  -22.6920  -38.0490 C.2   179  VAL179      0.2616
     48  O         24.5240  -22.9810  -36.8540 O.2   179  VAL179     -0.2715
     49  CB        23.7920  -24.7840  -39.3180 C.3   179  VAL179      0.0290
     50  CG1       25.1670  -24.7990  -39.9690 C.3   179  VAL179      0.0023
     51  CG2       23.7410  -25.7060  -38.1080 C.3   179  VAL179      0.0023
     52  N         25.2470  -21.7980  -38.6200 N.am  180  VAL180     -0.1977
     53  CA        26.3450  -21.1810  -37.8740 C.3   180  VAL180      0.1596
     54  C         25.9440  -19.8790  -37.1820 C.2   180  VAL180      0.2287
     55  O         26.7870  -19.1850  -36.6150 O.2   180  VAL180     -0.2864
     56  CB        27.5500  -20.8910  -38.7880 C.3   180  VAL180      0.0276
     57  CG1       28.0700  -22.1790  -39.4070 C.3   180  VAL180      0.0022
     58  CG2       27.1680  -19.8890  -39.8650 C.3   180  VAL180      0.0022
     59  N         25.4440  -27.1210  -28.8410 N.3   378  ALA378     -0.1231
     60  CA        25.0730  -28.3230  -29.5850 C.3   378  ALA378      0.1694
     61  C         25.8000  -28.3390  -30.9210 C.2   378  ALA378      0.2591
     62  O         25.9950  -29.3910  -31.5350 O.2   378  ALA378     -0.2718
     63  CB        23.5700  -28.3860  -29.7930 C.3   378  ALA378      0.0304
     64  N         26.1970  -27.1510  -31.3600 N.am  379  MET379     -0.1979
     65  CA        26.9360  -26.9760  -32.6000 C.3   379  MET379      0.1605
     66  C         28.4360  -27.0550  -32.3340 C.2   379  MET379      0.2287
     67  O         29.1910  -27.6280  -33.1200 O.2   379  MET379     -0.2864
     68  CB        26.5690  -25.6350  -33.2360 C.3   379  MET379      0.0413
     69  CG        27.2870  -25.3200  -34.5270 C.3   379  MET379      0.0598
     70  SD        26.5580  -26.1140  -35.9700 S.3   379  MET379     -0.1393
     71  CE        27.4740  -25.2900  -37.2660 C.3   379  MET379      0.0692
     72  N         30.2770  -30.4960  -31.6490 N.3   382  ARG382     -0.1245
     73  CA        30.6080  -31.2250  -32.8660 C.3   382  ARG382      0.1563
     74  C         31.7510  -30.5400  -33.6080 C.2   382  ARG382      0.2260
     75  O         32.3230  -31.1080  -34.5390 O.2   382  ARG382     -0.2867
     76  CB        29.3820  -31.3320  -33.7770 C.3   382  ARG382      0.0307
     77  CG        28.2560  -32.2020  -33.2360 C.3   382  ARG382      0.0489
     78  CD        26.9240  -31.8160  -33.8650 C.3   382  ARG382      0.2205
     79  NE        25.8960  -32.8390  -33.6880 N.pl3 382  ARG382     -0.0865
     80  CZ        25.4490  -33.6230  -34.6640 C.cat 382  ARG382      0.5346
     81  NH1       24.5110  -34.5280  -34.4150 N.pl3 382  ARG382      0.1354
     82  NH2       25.9350  -33.4990  -35.8920 N.pl3 382  ARG382      0.1354
     83  N         31.4280  -28.2020  -35.6300 N.3   384  ALA384     -0.1231
     84  CA        30.9610  -28.0920  -37.0070 C.3   384  ALA384      0.1694
     85  C         31.2990  -26.7290  -37.6010 C.2   384  ALA384      0.2592
     86  O         31.1370  -25.7010  -36.9440 O.2   384  ALA384     -0.2718
     87  CB        29.4630  -28.3450  -37.0780 C.3   384  ALA384      0.0304
     88  N         31.7810  -26.7410  -38.8420 N.am  385  PHE385     -0.1976
     89  CA        32.1430  -25.5290  -39.5790 C.3   385  PHE385      0.1639
     90  C         33.1870  -24.6810  -38.8550 C.2   385  PHE385      0.2290
     91  O         33.3370  -23.4940  -39.1450 O.2   385  PHE385     -0.2864
     92  CB        30.8980  -24.6830  -39.8640 C.3   385  PHE385      0.0560
     93  CG        29.9230  -25.3350  -40.8030 C.ar  385  PHE385     -0.0200
     94  CD1       28.9150  -26.1530  -40.3210 C.ar  385  PHE385     -0.0042
     95  CD2       30.0170  -25.1300  -42.1690 C.ar  385  PHE385     -0.0042
     96  CE1       28.0170  -26.7540  -41.1820 C.ar  385  PHE385     -0.0003
     97  CE2       29.1220  -25.7280  -43.0350 C.ar  385  PHE385     -0.0003
     98  CZ        28.1210  -26.5410  -42.5420 C.ar  385  PHE385     -0.0000
     99  N         36.1780  -23.0870  -40.8820 N.3   388  TRP388     -0.1227
    100  CA        35.9050  -21.8450  -41.5980 C.3   388  TRP388      0.1737
    101  C         36.3010  -20.6320  -40.7560 C.2   388  TRP388      0.2595
    102  O         36.6020  -19.5680  -41.2950 O.2   388  TRP388     -0.2718
    103  CB        34.4280  -21.7550  -41.9880 C.3   388  TRP388      0.0564
    104  CG        34.0010  -22.7880  -42.9860 C.ar  388  TRP388      0.0003
    105  CD1       33.3680  -23.9700  -42.7240 C.ar  388  TRP388      0.0946
    106  CD2       34.1760  -22.7360  -44.4090 C.ar  388  TRP388      0.0152
    107  NE1       33.1380  -24.6540  -43.8940 N.ar  388  TRP388     -0.2442
    108  CE2       33.6240  -23.9180  -44.9420 C.ar  388  TRP388      0.0810
    109  CE3       34.7450  -21.8030  -45.2830 C.ar  388  TRP388      0.0012
    110  CZ2       33.6250  -24.1920  -46.3090 C.ar  388  TRP388      0.0191
    111  CZ3       34.7440  -22.0780  -46.6390 C.ar  388  TRP388      0.0001
    112  CH2       34.1880  -23.2630  -47.1380 C.ar  388  TRP388      0.0015
    113  N         36.3040  -20.7990  -39.4370 N.am  389  TYR389     -0.1976
    114  CA        36.6700  -19.7140  -38.5300 C.3   389  TYR389      0.1639
    115  C         38.1620  -19.7280  -38.2150 C.2   389  TYR389      0.2290
    116  O         38.8160  -18.6830  -38.2240 O.2   389  TYR389     -0.2864
    117  CB        35.8590  -19.7980  -37.2330 C.3   389  TYR389      0.0560
    118  CG        34.3820  -19.5530  -37.4260 C.ar  389  TYR389     -0.0198
    119  CD1       33.5250  -20.5920  -37.7590 C.ar  389  TYR389     -0.0009
    120  CD2       33.8430  -18.2810  -37.2780 C.ar  389  TYR389     -0.0009
    121  CE1       32.1740  -20.3740  -37.9400 C.ar  389  TYR389      0.0417
    122  CE2       32.4910  -18.0520  -37.4550 C.ar  389  TYR389      0.0417
    123  CZ        31.6620  -19.1030  -37.7870 C.ar  389  TYR389      0.1957
    124  OH        30.3160  -18.8850  -37.9680 O.3   389  TYR389     -0.2866
@<TRIPOS>BOND
     1   112   111   ar
     2   112   110   ar
     3    29    28    1
     4   111   109   ar
     5     2     1    1
     6     2     3    1
     7   110   108   ar
     8    28    27    1
     9   109   106   ar
    10    27    26    1
    11     3     4    2
    12     3     5   am
    13   108   106   ar
    14   108   107   ar
    15    37    35   ar
    16    12    10   am
    17   106   104   ar
    18     5     6    1
    19    36    35   ar
    20    26    25    1
    21    35    34    1
    22   107   105   ar
    23    10    11    2
    24    10     9    1
    25    25    22    1
    26     9     6    1
    27     6     7    1
    28    97    98   ar
    29    97    95   ar
    30   104   105   ar
    31   104   103    1
    32    43    42    1
    33    24    23    2
    34    98    96   ar
    35    34    31    1
    36    17    18    1
    37    17    14    1
    38    22    23    1
    39    22    21    1
    40    13     7   am
    41    13    14    1
    42    95    93   ar
    43    20    18   am
    44     7     8    2
    45   103   100    1
    46    30    31    1
    47    42    44    1
    48    42    39    1
    49   100    99    1
    50   100   101    1
    51    38    32   am
    52    38    39    1
    53    33    32    2
    54    32    31    1
    55    18    19    2
    56    39    40    1
    57    14    15    1
    58   102   101    2
    59    96    94   ar
    60    16    15    2
    61    93    94   ar
    62    93    92    1
    63   101   113   am
    64    45    40   am
    65    45    46    1
    66    40    41    2
    67    50    49    1
    68    58    56    1
    69    92    89    1
    70    89    90    1
    71    89    88    1
    72   113   114    1
    73    57    56    1
    74    49    46    1
    75    49    51    1
    76    91    90    2
    77    46    47    1
    78    88    85   am
    79    56    53    1
    80    52    47   am
    81    52    53    1
    82   114   115    1
    83   114   117    1
    84   116   115    2
    85    47    48    2
    86   124   123    1
    87   121   123   ar
    88   121   119   ar
    89    53    54    1
    90   123   122   ar
    91   119   118   ar
    92    85    84    1
    93    85    86    2
    94   122   120   ar
    95   118   120   ar
    96   118   117    1
    97    71    70    1
    98    54    55    2
    99    87    84    1
   100    84    83    1
   101    70    69    1
   102    82    80    1
   103    80    81    1
   104    80    79    2
   105    75    74    2
   106    69    68    1
   107    78    79    1
   108    78    77    1
   109    76    77    1
   110    76    73    1
   111    74    73    1
   112    68    65    1
   113    67    66    2
   114    73    72    1
   115    65    66    1
   116    65    64    1
   117    62    61    2
   118    64    61   am
   119    61    60    1
   120    63    60    1
   121    60    59    1
