@<TRIPOS>MOLECULE
tmp/4tv1A01.pdb
 167 156 0 0 0
SMALL
GASTEIGER

@<TRIPOS>ATOM
      1  N         31.8950   -0.1290    6.0690 N.3    39  MET39      -0.1245
      2  CA        31.5010    1.2180    6.5010 C.3    39  MET39       0.1570
      3  C         31.7630    2.2780    5.4300 C.2    39  MET39       0.2261
      4  O         30.9590    3.1880    5.2480 O.2    39  MET39      -0.2867
      5  CB        32.1970    1.6230    7.7950 C.3    39  MET39       0.0387
      6  CG        31.4680    1.2350    9.0620 C.3    39  MET39       0.0595
      7  SD        29.7250    1.7440    9.1480 S.3    39  MET39      -0.1393
      8  CE        29.8230    3.5090    8.8630 C.3    39  MET39       0.0692
      9  N         28.9530    2.3130    2.8670 N.3    42  LEU42      -0.1231
     10  CA        27.7200    2.9270    3.3510 C.3    42  LEU42       0.1693
     11  C         27.8700    4.4440    3.4870 C.2    42  LEU42       0.2592
     12  O         26.9480    5.1860    3.1810 O.2    42  LEU42      -0.2718
     13  CB        27.2720    2.3160    4.6840 C.3    42  LEU42       0.0284
     14  CG        27.1040    0.7960    4.7390 C.3    42  LEU42       0.0019
     15  CD1       26.5250    0.3670    6.0980 C.3    42  LEU42       0.0001
     16  CD2       26.2460    0.3070    3.6010 C.3    42  LEU42       0.0001
     17  N         29.0270    4.9170    3.9440 N.am   43  THR43      -0.1953
     18  CA        29.1940    6.3630    4.1020 C.3    43  THR43       0.1897
     19  C         29.3470    7.0610    2.7570 C.2    43  THR43       0.2313
     20  O         28.8320    8.1640    2.5720 O.2    43  THR43      -0.2863
     21  CB        30.3640    6.7350    5.0320 C.3    43  THR43       0.1794
     22  OG1       31.5630    6.1370    4.5350 O.3    43  THR43      -0.2208
     23  CG2       30.0930    6.2420    6.4510 C.3    43  THR43       0.0378
     24  N         27.9820    5.9800    0.0090 N.3    45  LEU45      -0.1231
     25  CA        26.6220    5.9450   -0.5210 C.3    45  LEU45       0.1693
     26  C         25.7690    7.0450    0.1110 C.2    45  LEU45       0.2591
     27  O         25.0680    7.7700   -0.5950 O.2    45  LEU45      -0.2718
     28  CB        25.9700    4.5810   -0.2690 C.3    45  LEU45       0.0284
     29  CG        24.5780    4.3870   -0.8680 C.3    45  LEU45       0.0019
     30  CD1       24.6600    4.4640   -2.3880 C.3    45  LEU45       0.0001
     31  CD2       24.0020    3.0370   -0.4470 C.3    45  LEU45       0.0001
     32  N         25.8330    7.1640    1.4370 N.am   46  ALA46      -0.1980
     33  CA        25.0290    8.1600    2.1470 C.3    46  ALA46       0.1597
     34  C         25.3620    9.5430    1.6230 C.2    46  ALA46       0.2287
     35  O         24.4780   10.3700    1.3910 O.2    46  ALA46      -0.2864
     36  CB        25.2570    8.0870    3.6650 C.3    46  ALA46       0.0319
     37  N         23.7580   10.0500   -1.7510 N.3    49  GLU49      -0.1245
     38  CA        22.3090   10.2030   -1.5900 C.3    49  GLU49       0.1567
     39  C         21.9260   11.5460   -0.9870 C.2    49  GLU49       0.2260
     40  O         20.8390   12.0660   -1.2550 O.2    49  GLU49      -0.2867
     41  CB        21.7310    9.0970   -0.7270 C.3    49  GLU49       0.0388
     42  CG        21.8790    7.7010   -1.3070 C.3    49  GLU49       0.1160
     43  CD        21.2020    6.6850   -0.4120 C.2    49  GLU49       0.3649
     44  OE1       21.8400    6.2320    0.5570 O.co2  49  GLU49      -0.2457
     45  OE2       20.0200    6.3660   -0.6550 O.co2  49  GLU49      -0.2457
     46  N         17.9970   13.8750    8.2650 N.3    78  TRP78      -0.1227
     47  CA        18.6520   13.2270    7.1290 C.3    78  TRP78       0.1737
     48  C         18.7660   11.7100    7.2720 C.2    78  TRP78       0.2595
     49  O         18.5470   10.9830    6.3140 O.2    78  TRP78      -0.2718
     50  CB        20.0370   13.8270    6.8380 C.3    78  TRP78       0.0564
     51  CG        21.0620   13.5690    7.9000 C.ar   78  TRP78       0.0003
     52  CD1       21.2640   14.3070    9.0310 C.ar   78  TRP78       0.0946
     53  CD2       22.0610   12.5400    7.9090 C.ar   78  TRP78       0.0152
     54  NE1       22.3030   13.7810    9.7630 N.ar   78  TRP78      -0.2442
     55  CE2       22.8130   12.6980    9.0930 C.ar   78  TRP78       0.0810
     56  CE3       22.3870   11.4960    7.0380 C.ar   78  TRP78       0.0012
     57  CZ2       23.8710   11.8530    9.4290 C.ar   78  TRP78       0.0191
     58  CZ3       23.4430   10.6450    7.3840 C.ar   78  TRP78       0.0001
     59  CH2       24.1650   10.8310    8.5650 C.ar   78  TRP78       0.0015
     60  N         19.1280   11.2230    8.4530 N.am   79  LEU79      -0.1980
     61  CA        19.3800    9.7800    8.5720 C.3    79  LEU79       0.1596
     62  C         18.0600    9.0050    8.6190 C.2    79  LEU79       0.2287
     63  O         17.9690    7.9070    8.0650 O.2    79  LEU79      -0.2864
     64  CB        20.2670    9.4520    9.7770 C.3    79  LEU79       0.0297
     65  CG        20.6590    7.9660    9.9060 C.3    79  LEU79       0.0022
     66  CD1       21.3560    7.4640    8.6370 C.3    79  LEU79       0.0001
     67  CD2       21.5760    7.7910   11.1060 C.3    79  LEU79       0.0001
     68  N         17.1810    8.6870    5.0250 N.3    82  LEU82      -0.1231
     69  CA        17.9430    7.6360    4.3520 C.3    82  LEU82       0.1693
     70  C         17.4410    6.2700    4.7690 C.2    82  LEU82       0.2591
     71  O         17.3390    5.3570    3.9530 O.2    82  LEU82      -0.2718
     72  CB        19.4380    7.7370    4.6660 C.3    82  LEU82       0.0284
     73  CG        20.1760    8.9340    4.0890 C.3    82  LEU82       0.0019
     74  CD1       21.6260    8.8200    4.5170 C.3    82  LEU82       0.0001
     75  CD2       20.0810    8.9610    2.5590 C.3    82  LEU82       0.0001
     76  N         17.1530    6.1200    6.0500 N.am   83  MET83      -0.1979
     77  CA        16.7140    4.8240    6.5530 C.3    83  MET83       0.1605
     78  C         15.3330    4.4270    6.0440 C.2    83  MET83       0.2287
     79  O         15.1080    3.2650    5.7110 O.2    83  MET83      -0.2864
     80  CB        16.7470    4.8130    8.0750 C.3    83  MET83       0.0413
     81  CG        18.1760    4.6710    8.6230 C.3    83  MET83       0.0598
     82  SD        18.1640    4.6880   10.4270 S.3    83  MET83      -0.1393
     83  CE        19.8590    4.1650   10.7780 C.3    83  MET83       0.0692
     84  N         15.8190    3.1690    2.5670 N.3    86  LEU86      -0.1245
     85  CA        16.4180    1.8310    2.5790 C.3    86  LEU86       0.1561
     86  C         15.3740    0.7570    2.9090 C.2    86  LEU86       0.2260
     87  O         15.3060   -0.3120    2.2690 O.2    86  LEU86      -0.2867
     88  CB        17.5240    1.8010    3.6370 C.3    86  LEU86       0.0270
     89  CG        18.1030    0.4250    3.9600 C.3    86  LEU86       0.0019
     90  CD1       18.8090   -0.1100    2.7340 C.3    86  LEU86       0.0001
     91  CD2       19.0580    0.5360    5.1500 C.3    86  LEU86       0.0001
     92  N         13.1290    0.2770   -0.1210 N.3    89  ARG89      -0.1245
     93  CA        13.8140   -0.4710   -1.1830 C.3    89  ARG89       0.1563
     94  C         13.8970   -1.9390   -0.8280 C.2    89  ARG89       0.2260
     95  O         13.9480   -2.7880   -1.7080 O.2    89  ARG89      -0.2867
     96  CB        15.2590    0.0080   -1.3820 C.3    89  ARG89       0.0307
     97  CG        15.4030    1.4210   -1.8420 C.3    89  ARG89       0.0489
     98  CD        16.7820    1.6470   -2.4190 C.3    89  ARG89       0.2205
     99  NE        17.8530    1.7250   -1.4290 N.pl3  89  ARG89      -0.0865
    100  CZ        18.0910    2.7940   -0.6760 C.cat  89  ARG89       0.5346
    101  NH1       17.2890    3.8450   -0.7600 N.pl3  89  ARG89       0.1354
    102  NH2       19.1220    2.8100    0.1680 N.pl3  89  ARG89       0.1354
    103  N         20.8410   -1.7810    0.1860 N.3    99  PHE99      -0.1241
    104  CA        21.4750   -0.4670    0.2710 C.3    99  PHE99       0.1605
    105  C         21.5950    0.1080   -1.1270 C.2    99  PHE99       0.2264
    106  O         21.3620    1.2970   -1.3490 O.2    99  PHE99      -0.2867
    107  CB        22.8500   -0.5510    0.9590 C.3    99  PHE99       0.0534
    108  CG        22.7590   -0.7170    2.4470 C.ar   99  PHE99      -0.0203
    109  CD1       22.6290    0.3930    3.2710 C.ar   99  PHE99      -0.0042
    110  CD2       22.7680   -1.9790    3.0210 C.ar   99  PHE99      -0.0042
    111  CE1       22.5180    0.2440    4.6560 C.ar   99  PHE99      -0.0003
    112  CE2       22.6570   -2.1300    4.4020 C.ar   99  PHE99      -0.0003
    113  CZ        22.5460   -1.0250    5.2120 C.ar   99  PHE99      -0.0000
    114  N         26.9820   -2.7770   14.2950 N.3   115  MET115     -0.1245
    115  CA        26.0670   -2.5450   13.1810 C.3   115  MET115      0.1570
    116  C         24.9280   -3.5630   13.1150 C.2   115  MET115      0.2261
    117  O         23.8270   -3.2380   12.6800 O.2   115  MET115     -0.2867
    118  CB        26.8310   -2.5030   11.8550 C.3   115  MET115      0.0387
    119  CG        25.9510   -2.3790   10.6300 C.3   115  MET115      0.0595
    120  SD        24.9970   -0.8490   10.5630 S.3   115  MET115     -0.1393
    121  CE        26.2760    0.3730   10.3250 C.3   115  MET115      0.0692
    122  N         21.5810   -2.4510   14.4860 N.3   118  ILE118     -0.1245
    123  CA        20.8790   -1.5310   13.6010 C.3   118  ILE118      0.1561
    124  C         20.2710   -2.2720   12.4090 C.2   118  ILE118      0.2260
    125  O         19.0860   -2.0660   12.0860 O.2   118  ILE118     -0.2867
    126  CB        21.8170   -0.3880   13.1600 C.3   118  ILE118      0.0252
    127  CG1       22.2570    0.4030   14.4000 C.3   118  ILE118      0.0019
    128  CG2       21.1320    0.5200   12.1650 C.3   118  ILE118      0.0019
    129  CD1       23.5220    1.1590   14.2260 C.3   118  ILE118      0.0001
    130  N         16.2640   -2.3370   11.2330 N.3   122  LEU122     -0.1245
    131  CA        15.8450   -2.0100    9.8690 C.3   122  LEU122      0.1561
    132  C         15.1060   -3.1630    9.2280 C.2   122  LEU122      0.2260
    133  O         14.1090   -2.9590    8.5310 O.2   122  LEU122     -0.2867
    134  CB        17.0540   -1.6210    9.0110 C.3   122  LEU122      0.0270
    135  CG        17.7100   -0.3020    9.4200 C.3   122  LEU122      0.0019
    136  CD1       19.1580   -0.2530    8.9280 C.3   122  LEU122      0.0001
    137  CD2       16.9000    0.9380    8.9500 C.3   122  LEU122      0.0001
    138  N         21.6560    4.8090   14.8970 N.3   207  GLY207     -0.1225
    139  CA        22.5970    4.9000   13.7840 C.3   207  GLY207      0.1811
    140  C         23.5140    6.1050   13.8980 C.2   207  GLY207      0.2280
    141  O         24.6870    6.0670   13.4750 O.2   207  GLY207     -0.2866
    142  N         26.1550    5.2720   16.4790 N.3   210  HIS210     -0.1226
    143  CA        27.0780    4.3450   15.8330 C.3   210  HIS210      0.1752
    144  C         28.0350    5.0450   14.8550 C.2   210  HIS210      0.2595
    145  O         29.2360    4.7860   14.8490 O.2   210  HIS210     -0.2718
    146  CB        26.2960    3.2510   15.1090 C.3   210  HIS210      0.0759
    147  CG        27.1680    2.2420   14.4360 C.ar  210  HIS210      0.0818
    148  ND1       27.4450    2.2770   13.0880 N.ar  210  HIS210     -0.2268
    149  CD2       27.8430    1.1780   14.9330 C.ar  210  HIS210      0.1154
    150  CE1       28.2510    1.2750   12.7810 C.ar  210  HIS210      0.1986
    151  NE2       28.5080    0.5940   13.8840 N.ar  210  HIS210     -0.2212
    152  N         27.5020    5.9310   14.0270 N.am  211  LEU211     -0.1980
    153  CA        28.3290    6.6750   13.0810 C.3   211  LEU211      0.1596
    154  C         29.3530    7.5450   13.8200 C.2   211  LEU211      0.2287
    155  O         30.5340    7.6330   13.4330 O.2   211  LEU211     -0.2864
    156  CB        27.4390    7.5510   12.2100 C.3   211  LEU211      0.0297
    157  CG        28.1690    8.4380   11.2180 C.3   211  LEU211      0.0022
    158  CD1       29.0960    7.5780   10.3740 C.3   211  LEU211      0.0001
    159  CD2       27.1560    9.1850   10.3620 C.3   211  LEU211      0.0001
    160  N         29.0280   15.0170    5.3710 N.3   225  LEU225     -0.1245
    161  CA        28.6110   14.0430    6.3760 C.3   225  LEU225      0.1561
    162  C         29.0510   14.4560    7.7730 C.2   225  LEU225      0.2260
    163  O         28.2890   14.3380    8.7430 O.2   225  LEU225     -0.2867
    164  CB        29.1500   12.6550    6.0050 C.3   225  LEU225      0.0270
    165  CG        28.4510   11.4030    6.5120 C.3   225  LEU225      0.0019
    166  CD1       26.9370   11.5620    6.4330 C.3   225  LEU225      0.0001
    167  CD2       28.9180   10.2080    5.6770 C.3   225  LEU225      0.0001
@<TRIPOS>BOND
     1    98    97    1
     2    98    99    1
     3    30    29    1
     4    97    96    1
     5    37    38    1
     6    95    94    2
     7    38    39    1
     8    38    41    1
     9    99   100    2
    10    96    93    1
    11   106   105    2
    12    42    41    1
    13    42    43    1
    14    40    39    2
    15    93    94    1
    16    93    92    1
    17   105   104    1
    18    29    31    1
    19    29    28    1
    20   101   100    1
    21   100   102    1
    22    45    43   ar
    23    27    26    2
    24    25    28    1
    25    25    24    1
    26    25    26    1
    27    43    44   ar
    28    26    32   am
    29   103   104    1
    30   104   107    1
    31   107   108    1
    32    35    34    2
    33    32    33    1
    34    34    33    1
    35    33    36    1
    36    87    86    2
    37   108   110   ar
    38   108   109   ar
    39    75    73    1
    40    84    85    1
    41    20    19    2
    42    85    86    1
    43    85    88    1
    44    90    89    1
    45    19    18    1
    46     9    10    1
    47   110   112   ar
    48    12    11    2
    49   109   111   ar
    50    10    11    1
    51    10    13    1
    52    11    17   am
    53    16    14    1
    54    88    89    1
    55    17    18    1
    56    71    70    2
    57    89    91    1
    58    73    74    1
    59    73    72    1
    60    18    21    1
    61    69    72    1
    62    69    70    1
    63    69    68    1
    64   112   113   ar
    65    22    21    1
    66   111   113   ar
    67    13    14    1
    68    14    15    1
    69    70    76   am
    70    21    23    1
    71     4     3    2
    72   160   161    1
    73     3     2    1
    74   167   165    1
    75    79    78    2
    76   164   161    1
    77   164   165    1
    78    78    77    1
    79    76    77    1
    80     1     2    1
    81    49    48    2
    82   161   162    1
    83   166   165    1
    84     2     5    1
    85    77    80    1
    86    50    47    1
    87    50    51    1
    88    56    58   ar
    89    56    53   ar
    90    47    48    1
    91    47    46    1
    92    48    60   am
    93    58    59   ar
    94   162   163    2
    95     5     6    1
    96    51    53   ar
    97    51    52   ar
    98    53    55   ar
    99    63    62    2
   100    80    81    1
   101    60    61    1
   102   133   132    2
   103    59    57   ar
   104    61    62    1
   105    61    64    1
   106    81    82    1
   107    66    65    1
   108     8     7    1
   109   136   135    1
   110   137   135    1
   111   134   135    1
   112   134   131    1
   113    52    54   ar
   114     6     7    1
   115    55    57   ar
   116    55    54   ar
   117   132   131    1
   118    64    65    1
   119   131   130    1
   120    65    67    1
   121   121   120    1
   122   159   157    1
   123   158   157    1
   124    82    83    1
   125   120   119    1
   126   119   118    1
   127   157   156    1
   128   118   115    1
   129   125   124    2
   130   128   126    1
   131   156   153    1
   132   124   123    1
   133   117   116    2
   134   150   148   ar
   135   150   151   ar
   136   153   154    1
   137   153   152    1
   138   148   147   ar
   139   116   115    1
   140   126   123    1
   141   126   127    1
   142   115   114    1
   143   155   154    2
   144   141   140    2
   145   123   122    1
   146   139   140    1
   147   139   138    1
   148   151   149   ar
   149   152   144   am
   150   129   127    1
   151   147   149   ar
   152   147   146    1
   153   145   144    2
   154   144   143    1
   155   146   143    1
   156   143   142    1
