@<TRIPOS>MOLECULE
tmp/4tv3A00.pdb
 207 194 0 0 0
SMALL
GASTEIGER

@<TRIPOS>ATOM
      1  N        -20.3910    5.9160   39.6960 N.3   627  ARG627     -0.1245
      2  CA       -21.6020    5.3190   39.1420 C.3   627  ARG627      0.1563
      3  C        -21.2840    4.2410   38.1280 C.2   627  ARG627      0.2260
      4  O        -20.2150    4.2820   37.5150 O.2   627  ARG627     -0.2867
      5  CB       -22.5560    6.3660   38.5410 C.3   627  ARG627      0.0307
      6  CG       -22.0870    7.0320   37.2640 C.3   627  ARG627      0.0489
      7  CD       -22.9910    8.1940   36.9330 C.3   627  ARG627      0.2205
      8  NE       -23.0540    8.4480   35.4940 N.pl3 627  ARG627     -0.0865
      9  CZ       -22.4500    9.4600   34.8800 C.cat 627  ARG627      0.5346
     10  NH1      -21.7220   10.3350   35.5750 N.pl3 627  ARG627      0.1354
     11  NH2      -22.5710    9.6130   33.5710 N.pl3 627  ARG627      0.1354
     12  N        -22.1910    3.0140   34.6030 N.3   629  MET629     -0.1230
     13  CA       -22.7930    3.7040   33.4850 C.3   629  MET629      0.1702
     14  C        -23.8240    2.8570   32.7570 C.2   629  MET629      0.2593
     15  O        -23.8810    1.6330   32.9410 O.2   629  MET629     -0.2718
     16  CB       -21.7270    4.2660   32.5510 C.3   629  MET629      0.0401
     17  CG       -21.1320    5.5680   33.0530 C.3   629  MET629      0.0596
     18  SD       -19.4160    5.7790   32.5510 S.3   629  MET629     -0.1393
     19  CE       -19.6110    6.5100   30.9650 C.3   629  MET629      0.0692
     20  N        -24.6830    3.5520   31.9740 N.am  630  SER630     -0.1952
     21  CA       -25.8010    3.0330   31.1810 C.3   630  SER630      0.1924
     22  C        -25.3590    2.2910   29.9260 C.2   630  SER630      0.2314
     23  O        -26.1700    1.5750   29.3460 O.2   630  SER630     -0.2863
     24  CB       -26.7590    4.1640   30.8210 C.3   630  SER630      0.2116
     25  OG       -27.2640    4.7840   31.9940 O.3   630  SER630     -0.2180
     26  N        -19.4840    0.3290   31.9310 N.3   635  PRO635     -0.2116
     27  CA       -18.2450    0.9770   32.3790 C.3   635  PRO635      0.1372
     28  C        -18.4240    1.7180   33.7060 C.2   635  PRO635      0.2244
     29  O        -19.5470    2.1410   34.0350 O.2   635  PRO635     -0.2868
     30  CB       -17.9110    1.9560   31.2460 C.3   635  PRO635      0.0268
     31  CG       -19.0740    1.9170   30.2910 C.3   635  PRO635      0.0207
     32  CD       -20.1700    1.1260   30.8930 C.3   635  PRO635      0.0892
     33  N        -17.6890    4.9680   36.1970 N.3   637  TRP637     -0.1241
     34  CA       -17.2670    6.3640   36.3380 C.3   637  TRP637      0.1605
     35  C        -16.6770    6.3720   37.7120 C.2   637  TRP637      0.2264
     36  O        -17.3920    6.0630   38.6600 O.2   637  TRP637     -0.2867
     37  CB       -18.4350    7.3160   36.3290 C.3   637  TRP637      0.0550
     38  CG       -18.0550    8.7410   36.5550 C.ar  637  TRP637      0.0003
     39  CD1      -17.8080    9.3440   37.7520 C.ar  637  TRP637      0.0946
     40  CD2      -18.0820    9.7830   35.5770 C.ar  637  TRP637      0.0152
     41  NE1      -17.6590   10.7050   37.5760 N.ar  637  TRP637     -0.2442
     42  CE2      -17.7920   10.9970   36.2460 C.ar  637  TRP637      0.0810
     43  CE3      -18.3090    9.8120   34.1870 C.ar  637  TRP637      0.0012
     44  CZ2      -17.7270   12.2290   35.5740 C.ar  637  TRP637      0.0191
     45  CZ3      -18.2130   11.0330   33.5150 C.ar  637  TRP637      0.0001
     46  CH2      -17.9410   12.2230   34.2100 C.ar  637  TRP637      0.0015
     47  N        -12.8060    6.9420   33.6050 N.3   657  ILE657     -0.1245
     48  CA       -13.8080    5.9930   33.1380 C.3   657  ILE657      0.1561
     49  C        -13.0600    4.6800   32.9170 C.2   657  ILE657      0.2260
     50  O        -12.1400    4.6400   32.1040 O.2   657  ILE657     -0.2867
     51  CB       -14.5990    6.4410   31.8680 C.3   657  ILE657      0.0252
     52  CG1      -15.5890    7.5930   32.1870 C.3   657  ILE657      0.0019
     53  CG2      -15.3400    5.2480   31.2350 C.3   657  ILE657      0.0019
     54  CD1      -16.2040    8.3470   30.9430 C.3   657  ILE657      0.0001
     55  N        -13.2790    1.0610   31.4150 N.3   659  LYS659     -0.1245
     56  CA       -14.1240    0.2980   30.5120 C.3   659  LYS659      0.1561
     57  C        -13.5470   -1.0690   30.2200 C.2   659  LYS659      0.2260
     58  O        -12.3580   -1.2110   29.9150 O.2   659  LYS659     -0.2867
     59  CB       -14.4410    1.0760   29.2280 C.3   659  LYS659      0.0271
     60  CG       -15.6770    0.5400   28.4790 C.3   659  LYS659      0.0035
     61  CD       -16.0590    1.3740   27.2500 C.3   659  LYS659      0.0206
     62  CE       -15.0880    1.2160   26.1050 C.3   659  LYS659      0.1093
     63  NZ       -15.5230    1.9510   24.8930 N.3   659  LYS659     -0.1314
     64  N        -12.1410   -2.4190   22.4540 N.3   663  ASP663     -0.1225
     65  CA       -10.7460   -2.1740   22.0820 C.3   663  ASP663      0.1805
     66  C        -10.4930   -0.6760   22.1510 C.2   663  ASP663      0.2597
     67  O        -11.1610    0.0960   21.4490 O.2   663  ASP663     -0.2718
     68  CB       -10.4510   -2.6940   20.6620 C.3   663  ASP663      0.1424
     69  CG        -8.9790   -2.9580   20.3950 C.2   663  ASP663      0.3668
     70  OD1       -8.2380   -3.2510   21.3680 O.co2 663  ASP663     -0.2456
     71  OD2       -8.5770   -2.9340   19.2050 O.co2 663  ASP663     -0.2456
     72  N         -9.5490   -0.2610   23.0190 N.am  664  LEU664     -0.1979
     73  CA        -9.2190    1.1650   23.1840 C.3   664  LEU664      0.1596
     74  C         -8.0370    1.6110   22.3420 C.2   664  LEU664      0.2287
     75  O         -7.6900    2.7900   22.3340 O.2   664  LEU664     -0.2864
     76  CB        -9.0150    1.5250   24.6620 C.3   664  LEU664      0.0297
     77  CG       -10.1820    1.2120   25.5950 C.3   664  LEU664      0.0022
     78  CD1       -9.8450    1.6050   26.9570 C.3   664  LEU664      0.0001
     79  CD2      -11.4550    1.9490   25.1810 C.3   664  LEU664      0.0001
     80  N         -8.7520    4.2920   19.7240 N.3   667  ASP667     -0.1239
     81  CA        -8.9480    5.5990   20.3620 C.3   667  ASP667      0.1674
     82  C         -7.6070    6.1360   20.7960 C.2   667  ASP667      0.2266
     83  O         -7.3460    7.3290   20.6360 O.2   667  ASP667     -0.2867
     84  CB        -9.8840    5.4810   21.5640 C.3   667  ASP667      0.1410
     85  CG       -11.3390    5.7010   21.2030 C.2   667  ASP667      0.3668
     86  OD1      -11.8120    6.8700   21.2960 O.co2 667  ASP667     -0.2456
     87  OD2      -12.0040    4.7130   20.8130 O.co2 667  ASP667     -0.2456
     88  N         -7.4800   13.8640   25.2710 N.3   693  TYR693     -0.1241
     89  CA        -7.6180   13.3650   26.6300 C.3   693  TYR693      0.1605
     90  C         -6.9180   11.9950   26.7370 C.2   693  TYR693      0.2264
     91  O         -6.6320   11.3700   25.7080 O.2   693  TYR693     -0.2867
     92  CB        -9.1110   13.2710   27.0050 C.3   693  TYR693      0.0534
     93  CG        -9.9440   12.3780   26.1080 C.ar  693  TYR693     -0.0201
     94  CD1      -10.0160   11.0060   26.3300 C.ar  693  TYR693     -0.0009
     95  CD2      -10.7320   12.9170   25.0870 C.ar  693  TYR693     -0.0009
     96  CE1      -10.8150   10.1800   25.5340 C.ar  693  TYR693      0.0417
     97  CE2      -11.5340   12.0990   24.2800 C.ar  693  TYR693      0.0417
     98  CZ       -11.5630   10.7270   24.5000 C.ar  693  TYR693      0.1957
     99  OH       -12.3210    9.8850   23.7120 O.3   693  TYR693     -0.2866
    100  N         -6.3740    8.0540   27.1900 N.3   695  CYS695     -0.1235
    101  CA        -7.0230    6.7700   26.8920 C.3   695  CYS695      0.1677
    102  C         -5.9410    5.6990   26.8260 C.2   695  CYS695      0.2270
    103  O         -5.0420    5.8110   25.9920 O.2   695  CYS695     -0.2867
    104  CB        -7.8600    6.8080   25.6190 C.3   695  CYS695      0.0956
    105  SG        -8.7190    5.2490   25.2620 S.3   695  CYS695     -0.0801
    106  N        -10.0180    5.9690   30.6560 N.3   705  ILE705     -0.1231
    107  CA       -10.2500    7.1820   29.8840 C.3   705  ILE705      0.1693
    108  C        -10.2800    8.3690   30.8430 C.2   705  ILE705      0.2595
    109  O        -11.0390    8.3570   31.8210 O.2   705  ILE705     -0.2718
    110  CB       -11.5790    7.0820   29.0400 C.3   705  ILE705      0.0266
    111  CG1      -11.5360    5.9820   27.9600 C.3   705  ILE705      0.0019
    112  CG2      -11.9750    8.4230   28.4050 C.3   705  ILE705      0.0020
    113  CD1      -12.2410    4.7060   28.3460 C.3   705  ILE705      0.0001
    114  N         -9.4740    9.3990   30.5550 N.am  706  GLU706     -0.1920
    115  CA        -9.4720   10.6490   31.3190 C.3   706  GLU706      0.1949
    116  C        -10.8270   11.3300   31.0780 C.2   706  GLU706      0.2659
    117  O        -11.2490   11.4220   29.9290 O.2   706  GLU706     -0.2711
    118  CB        -8.3220   11.5600   30.8450 C.2   706  GLU706      0.0111
    119  CG        -8.5460   13.0550   31.0230 C.2   706  GLU706      0.0838
    120  CD        -7.3680   13.9620   30.7260 C.2   706  GLU706      0.3877
    121  OE1       -6.5220   13.6100   29.8710 O.co2 706  GLU706     -0.2406
    122  OE2       -7.3140   15.0520   31.3360 O.co2 706  GLU706     -0.2406
    123  N        -11.5180   11.7490   32.1520 N.am  707  VAL707     -0.1961
    124  CA       -12.7850   12.4620   32.0670 C.3   707  VAL707      0.1727
    125  C        -12.4350   13.9490   31.9630 C.2   707  VAL707      0.2616
    126  O        -11.6430   14.4620   32.7560 O.2   707  VAL707     -0.2715
    127  CB       -13.6740   12.1850   33.3010 C.3   707  VAL707      0.0290
    128  CG1      -14.6980   13.3010   33.5240 C.3   707  VAL707      0.0023
    129  CG2      -14.3510   10.8220   33.2200 C.3   707  VAL707      0.0023
    130  N        -13.0280   14.6440   31.0000 N.am  708  VAL708     -0.1977
    131  CA       -12.8130   16.0780   30.8880 C.3   708  VAL708      0.1596
    132  C        -13.8430   16.7830   31.7840 C.2   708  VAL708      0.2287
    133  O        -15.0530   16.5720   31.6290 O.2   708  VAL708     -0.2864
    134  CB       -12.7590   16.5970   29.4240 C.3   708  VAL708      0.0276
    135  CG1      -12.5810   18.1180   29.3770 C.3   708  VAL708      0.0022
    136  CG2      -11.6340   15.9030   28.6510 C.3   708  VAL708      0.0022
    137  N        -17.5670   19.4930   31.1990 N.3   711  SER711     -0.1217
    138  CA       -18.0030   19.2020   29.8410 C.3   711  SER711      0.1889
    139  C        -19.3280   18.4940   29.7940 C.2   711  SER711      0.2288
    140  O        -19.6750   17.7280   30.6920 O.2   711  SER711     -0.2866
    141  CB       -16.9410   18.4360   29.0600 C.3   711  SER711      0.2089
    142  OG       -15.8460   19.2860   28.7680 O.3   711  SER711     -0.2183
    143  N        -22.1980   16.9980   26.4790 N.3   713  THR713     -0.1218
    144  CA       -22.3260   16.6990   25.0480 C.3   713  THR713      0.1862
    145  C        -23.2030   17.7830   24.3590 C.2   713  THR713      0.2287
    146  O        -23.8850   18.5560   25.0420 O.2   713  THR713     -0.2866
    147  CB       -22.8950   15.2850   24.8130 C.3   713  THR713      0.1770
    148  OG1      -24.1980   15.2250   25.3650 O.3   713  THR713     -0.2211
    149  CG2      -22.0450   14.1850   25.4040 C.3   713  THR713      0.0375
    150  N        -25.8370   17.1340   22.6120 N.3   715  MET715     -0.1230
    151  CA       -27.1670   16.6120   22.9310 C.3   715  MET715      0.1702
    152  C        -27.6650   17.1640   24.2750 C.2   715  MET715      0.2592
    153  O        -28.7790   17.6770   24.3240 O.2   715  MET715     -0.2718
    154  CB       -27.1530   15.0730   22.9420 C.3   715  MET715      0.0401
    155  CG       -28.3650   14.4530   23.6240 C.3   715  MET715      0.0596
    156  SD       -28.0900   12.7910   24.3100 S.3   715  MET715     -0.1393
    157  CE       -26.7620   13.1040   25.4990 C.3   715  MET715      0.0692
    158  N        -26.8440   17.0620   25.3530 N.am  716  GLN716     -0.1979
    159  CA       -27.1660   17.5470   26.7020 C.3   716  GLN716      0.1601
    160  C        -27.4450   19.0480   26.7320 C.2   716  GLN716      0.2287
    161  O        -28.3560   19.4620   27.4390 O.2   716  GLN716     -0.2864
    162  CB       -26.0810   17.1530   27.7090 C.3   716  GLN716      0.0394
    163  CG       -26.1560   15.6850   28.1450 C.3   716  GLN716      0.0908
    164  CD       -24.8200   15.0330   28.4910 C.2   716  GLN716      0.2608
    165  OE1      -23.8240   15.6840   28.8610 O.2   716  GLN716     -0.2717
    166  NE2      -24.7850   13.7080   28.4040 N.am  716  GLN716     -0.0878
    167  N        -24.2280   13.4050   20.3990 N.3   769  SER769     -0.1217
    168  CA       -23.7040   12.6980   21.5740 C.3   769  SER769      0.1889
    169  C        -22.1960   12.3240   21.4540 C.2   769  SER769      0.2288
    170  O        -21.5540   12.0410   22.4690 O.2   769  SER769     -0.2866
    171  CB       -24.5720   11.4860   21.9040 C.3   769  SER769      0.2089
    172  OG       -23.8350   10.2790   22.0220 O.3   769  SER769     -0.2183
    173  N        -18.6150   17.0480   22.3740 N.3   772  MET772     -0.1245
    174  CA       -18.7050   17.6290   23.7190 C.3   772  MET772      0.1570
    175  C        -18.1880   19.0750   23.7520 C.2   772  MET772      0.2261
    176  O        -17.3160   19.4340   22.9580 O.2   772  MET772     -0.2867
    177  CB       -17.9170   16.7930   24.7230 C.3   772  MET772      0.0387
    178  CG       -18.5420   15.4630   25.0470 C.3   772  MET772      0.0595
    179  SD       -17.8540   14.7160   26.5340 S.3   772  MET772     -0.1393
    180  CE       -18.9140   15.4070   27.7350 C.3   772  MET772      0.0692
    181  N        -14.6940   19.5420   21.6690 N.3   780  PHE780     -0.1241
    182  CA       -13.9260   18.3230   21.5070 C.3   780  PHE780      0.1605
    183  C        -14.7950   17.1220   21.1870 C.2   780  PHE780      0.2264
    184  O        -15.9550   17.0420   21.5850 O.2   780  PHE780     -0.2867
    185  CB       -13.0090   18.0630   22.7150 C.3   780  PHE780      0.0534
    186  CG       -13.6610   17.6370   24.0130 C.ar  780  PHE780     -0.0203
    187  CD1      -14.2360   18.5760   24.8640 C.ar  780  PHE780     -0.0042
    188  CD2      -13.6170   16.3100   24.4280 C.ar  780  PHE780     -0.0042
    189  CE1      -14.7910   18.1890   26.0810 C.ar  780  PHE780     -0.0003
    190  CE2      -14.1690   15.9270   25.6500 C.ar  780  PHE780     -0.0003
    191  CZ       -14.7640   16.8650   26.4600 C.ar  780  PHE780     -0.0000
    192  N        -15.1910   12.8340   21.1360 N.3   782  ILE782     -0.1231
    193  CA       -14.9400   11.6640   21.9860 C.3   782  ILE782      0.1692
    194  C        -15.3320   10.3820   21.2260 C.2   782  ILE782      0.2592
    195  O        -15.8500   10.4740   20.1140 O.2   782  ILE782     -0.2718
    196  CB       -15.6620   11.7720   23.3800 C.3   782  ILE782      0.0266
    197  CG1      -17.1850   11.5940   23.2780 C.3   782  ILE782      0.0019
    198  CG2      -15.3050   13.0490   24.1190 C.3   782  ILE782      0.0020
    199  CD1      -17.7820   10.8210   24.3540 C.3   782  ILE782      0.0001
    200  N        -15.1260    9.2050   21.8500 N.am  783  ASP783     -0.1974
    201  CA       -15.4120    7.8670   21.3320 C.3   783  ASP783      0.1709
    202  C        -15.1940    7.7330   19.8240 C.2   783  ASP783      0.2293
    203  O        -16.1610    7.7020   19.0520 O.2   783  ASP783     -0.2864
    204  CB       -16.8080    7.3770   21.7420 C.3   783  ASP783      0.1436
    205  CG       -16.9240    5.8590   21.8260 C.2   783  ASP783      0.3671
    206  OD1      -17.8510    5.3730   22.5110 O.co2 783  ASP783     -0.2456
    207  OD2      -16.0680    5.1530   21.2280 O.co2 783  ASP783     -0.2456
@<TRIPOS>BOND
     1   203   202    2
     2    71    69   ar
     3    80    81    1
     4   202   201    1
     5   195   194    2
     6    81    82    1
     7    81    84    1
     8    69    68    1
     9    69    70   ar
    10   167   168    1
    11    83    82    2
    12    68    65    1
    13    87    85   ar
    14   192   193    1
    15   183   182    1
    16   183   184    2
    17    85    86   ar
    18    85    84    1
    19   194   200   am
    20   194   193    1
    21   207   205   ar
    22   201   204    1
    23   201   200    1
    24    67    66    2
    25   169   168    1
    26   169   170    2
    27   182   181    1
    28   182   185    1
    29   168   171    1
    30   204   205    1
    31   205   206   ar
    32   171   172    1
    33   193   196    1
    34    65    66    1
    35    65    64    1
    36    66    72   am
    37    75    74    2
    38    74    73    1
    39   173   174    1
    40   150   151    1
    41   185   186    1
    42   151   154    1
    43   151   152    1
    44   154   155    1
    45   176   175    2
    46    72    73    1
    47    73    76    1
    48   197   196    1
    49   197   199    1
    50   196   198    1
    51   155   156    1
    52    99    98    1
    53   174   175    1
    54   174   177    1
    55   186   188   ar
    56   186   187   ar
    57   152   153    2
    58   152   158   am
    59    97    98   ar
    60    97    95   ar
    61   156   157    1
    62   145   146    2
    63   145   144    1
    64   188   190   ar
    65    98    96   ar
    66    76    77    1
    67   177   178    1
    68   147   144    1
    69   147   148    1
    70   147   149    1
    71   187   189   ar
    72    63    62    1
    73   178   179    1
    74   144   143    1
    75    95    93   ar
    76    79    77    1
    77   105   104    1
    78    88    89    1
    79   158   159    1
    80    96    94   ar
    81    77    78    1
    82   104   101    1
    83   190   191   ar
    84    91    90    2
    85   103   102    2
    86   189   191   ar
    87    62    61    1
    88    93    94   ar
    89    93    92    1
    90   179   180    1
    91    89    90    1
    92    89    92    1
    93   159   160    1
    94   159   162    1
    95   160   161    2
    96   102   101    1
    97   101   100    1
    98    61    60    1
    99   162   163    1
   100   111   113    1
   101   111   110    1
   102   163   164    1
   103   166   164   am
   104   112   110    1
   105    60    59    1
   106   164   165    2
   107   136   134    1
   108   142   141    1
   109   110   107    1
   110   141   138    1
   111    59    56    1
   112    23    22    2
   113   135   134    1
   114   134   131    1
   115   139   138    1
   116   139   140    2
   117   138   137    1
   118   121   120   ar
   119   107   106    1
   120   107   108    1
   121    58    57    2
   122    22    21    1
   123   117   116    2
   124    57    56    1
   125    31    32    1
   126    31    30    1
   127    56    55    1
   128   114   108   am
   129   114   115    1
   130   120   119    1
   131   120   122   ar
   132    24    21    1
   133    24    25    1
   134   108   109    2
   135   118   119    2
   136   118   115    1
   137   131   130    1
   138   131   132    1
   139    32    26    1
   140    54    52    1
   141    19    18    1
   142   130   125   am
   143   116   115    1
   144   116   123   am
   145    21    20    1
   146    53    51    1
   147    30    27    1
   148   133   132    2
   149    51    52    1
   150    51    48    1
   151    26    27    1
   152   125   124    1
   153   125   126    2
   154    20    14   am
   155   124   123    1
   156   124   127    1
   157    50    49    2
   158    27    28    1
   159    16    17    1
   160    16    13    1
   161    18    17    1
   162    14    15    2
   163    14    13    1
   164    49    48    1
   165    48    47    1
   166   129   127    1
   167   127   128    1
   168    13    12    1
   169    45    43   ar
   170    45    46   ar
   171    11     9    1
   172    28    29    2
   173    43    40   ar
   174    46    44   ar
   175     9     8    2
   176     9    10    1
   177     8     7    1
   178    44    42   ar
   179    40    42   ar
   180    40    38   ar
   181    33    34    1
   182    42    41   ar
   183    37    34    1
   184    37    38    1
   185    34    35    1
   186    38    39   ar
   187     7     6    1
   188     6     5    1
   189     4     3    2
   190    41    39   ar
   191    35    36    2
   192     3     2    1
   193     5     2    1
   194     2     1    1
