@<TRIPOS>MOLECULE
tmp/4tv8D01.pdb
 95 94 0 0 0
SMALL
GASTEIGER

@<TRIPOS>ATOM
      1  N         30.1910  -14.5960  -46.4980 N.3    98  GLY98      -0.1210
      2  CA        29.7310  -15.9720  -46.5580 C.3    98  GLY98       0.1956
      3  C         29.3520  -16.5310  -45.1990 C.2    98  GLY98       0.2612
      4  O         29.6560  -17.6830  -44.8950 O.2    98  GLY98      -0.2717
      5  N         28.6950  -15.7070  -44.3840 N.am   99  ASN99      -0.1960
      6  CA        28.2700  -16.0900  -43.0380 C.3    99  ASN99       0.1819
      7  C         29.4330  -16.5150  -42.1400 C.2    99  ASN99       0.2621
      8  O         29.2660  -17.3540  -41.2550 O.2    99  ASN99      -0.2715
      9  CB        27.2330  -17.2160  -43.1010 C.3    99  ASN99       0.1195
     10  CG        26.0310  -16.8570  -43.9540 C.2    99  ASN99       0.2630
     11  OD1       25.6440  -15.6910  -44.0450 O.2    99  ASN99      -0.2716
     12  ND2       25.4330  -17.8620  -44.5860 N.am   99  ASN99      -0.0877
     13  N         30.6060  -15.9330  -42.3710 N.am  100  ASN100     -0.1972
     14  CA        31.7870  -16.2390  -41.5690 C.3   100  ASN100      0.1688
     15  C         32.1780  -15.0510  -40.6930 C.2   100  ASN100      0.2292
     16  O         32.6600  -14.0340  -41.1920 O.2   100  ASN100     -0.2864
     17  CB        32.9580  -16.6430  -42.4730 C.3   100  ASN100      0.1181
     18  CG        34.0560  -17.3790  -41.7210 C.2   100  ASN100      0.2629
     19  OD1       34.2410  -17.1900  -40.5190 O.2   100  ASN100     -0.2716
     20  ND2       34.7940  -18.2230  -42.4320 N.am  100  ASN100     -0.0877
     21  N         35.7800  -13.8640  -41.0950 N.3   103  LYS103     -0.1245
     22  CA        36.0080  -13.0870  -42.3090 C.3   103  LYS103      0.1561
     23  C         35.5700  -11.6360  -42.1380 C.2   103  LYS103      0.2260
     24  O         36.2510  -10.7160  -42.5880 O.2   103  LYS103     -0.2867
     25  CB        35.2740  -13.7150  -43.4980 C.3   103  LYS103      0.0271
     26  CG        35.9400  -14.9640  -44.0630 C.3   103  LYS103      0.0035
     27  CD        35.2620  -15.4040  -45.3530 C.3   103  LYS103      0.0206
     28  CE        35.9970  -16.5630  -46.0090 C.3   103  LYS103      0.1093
     29  NZ        35.9860  -17.7870  -45.1620 N.3   103  LYS103     -0.1314
     30  N         17.9290  -21.2280  -42.0380 N.3   177  ASP177     -0.1225
     31  CA        18.3950  -22.6090  -42.0000 C.3   177  ASP177      0.1805
     32  C         19.9120  -22.7030  -41.8790 C.2   177  ASP177      0.2598
     33  O         20.4790  -23.7950  -41.9370 O.2   177  ASP177     -0.2718
     34  CB        17.9290  -23.3570  -43.2510 C.3   177  ASP177      0.1424
     35  CG        16.4200  -23.3730  -43.3920 C.2   177  ASP177      0.3668
     36  OD1       15.7530  -22.5210  -42.7670 O.co2 177  ASP177     -0.2456
     37  OD2       15.9010  -24.2360  -44.1300 O.co2 177  ASP177     -0.2456
     38  N         20.5670  -21.5580  -41.7140 N.am  178  THR178     -0.1939
     39  CA        22.0180  -21.5310  -41.5770 C.3   178  THR178      0.2028
     40  C         22.4360  -22.0770  -40.2140 C.2   178  THR178      0.2642
     41  O         22.1110  -21.5100  -39.1690 O.2   178  THR178     -0.2714
     42  CB        22.5800  -20.1110  -41.7690 C.3   178  THR178      0.1808
     43  OG1       22.2220  -19.6280  -43.0690 O.3   178  THR178     -0.2208
     44  CG2       24.0950  -20.1170  -41.6400 C.3   178  THR178      0.0379
     45  N         23.1610  -23.1890  -40.2500 N.am  179  VAL179     -0.1963
     46  CA        23.5410  -23.9460  -39.0630 C.3   179  VAL179      0.1727
     47  C         24.5350  -23.2000  -38.1680 C.2   179  VAL179      0.2616
     48  O         24.5060  -23.3240  -36.9420 O.2   179  VAL179     -0.2715
     49  CB        24.1390  -25.3170  -39.4870 C.3   179  VAL179      0.0290
     50  CG1       24.9630  -25.9460  -38.3770 C.3   179  VAL179      0.0023
     51  CG2       23.0320  -26.2590  -39.9460 C.3   179  VAL179      0.0023
     52  N         25.3900  -22.3960  -38.7910 N.am  180  VAL180     -0.1977
     53  CA        26.5490  -21.8210  -38.1170 C.3   180  VAL180      0.1596
     54  C         26.2270  -20.5260  -37.3530 C.2   180  VAL180      0.2287
     55  O         27.1040  -19.9160  -36.7380 O.2   180  VAL180     -0.2864
     56  CB        27.6780  -21.5630  -39.1490 C.3   180  VAL180      0.0276
     57  CG1       27.5370  -20.1830  -39.7910 C.3   180  VAL180      0.0022
     58  CG2       29.0420  -21.7440  -38.5140 C.3   180  VAL180      0.0022
     59  N         32.1670  -27.5030  -38.3810 N.3   385  PHE385     -0.1241
     60  CA        32.5080  -26.3810  -39.2570 C.3   385  PHE385      0.1605
     61  C         33.5010  -25.4160  -38.6140 C.2   385  PHE385      0.2264
     62  O         33.5890  -24.2530  -39.0040 O.2   385  PHE385     -0.2867
     63  CB        31.2450  -25.6210  -39.6730 C.3   385  PHE385      0.0534
     64  CG        30.2670  -26.4530  -40.4520 C.ar  385  PHE385     -0.0203
     65  CD1       30.5400  -26.8240  -41.7590 C.ar  385  PHE385     -0.0042
     66  CD2       29.0710  -26.8570  -39.8820 C.ar  385  PHE385     -0.0042
     67  CE1       29.6430  -27.5860  -42.4800 C.ar  385  PHE385     -0.0003
     68  CE2       28.1680  -27.6200  -40.5990 C.ar  385  PHE385     -0.0003
     69  CZ        28.4550  -27.9860  -41.9000 C.ar  385  PHE385     -0.0000
     70  N         36.4140  -23.5720  -40.6900 N.3   388  TRP388     -0.1227
     71  CA        36.1200  -22.3710  -41.4660 C.3   388  TRP388      0.1737
     72  C         36.5530  -21.1120  -40.7190 C.2   388  TRP388      0.2595
     73  O         36.9460  -20.1210  -41.3340 O.2   388  TRP388     -0.2718
     74  CB        34.6280  -22.2900  -41.8040 C.3   388  TRP388      0.0564
     75  CG        34.1800  -23.2990  -42.8180 C.ar  388  TRP388      0.0003
     76  CD1       33.6120  -24.5150  -42.5690 C.ar  388  TRP388      0.0946
     77  CD2       34.2620  -23.1810  -44.2460 C.ar  388  TRP388      0.0152
     78  NE1       33.3360  -25.1580  -43.7480 N.ar  388  TRP388     -0.2442
     79  CE2       33.7250  -24.3630  -44.7930 C.ar  388  TRP388      0.0810
     80  CE3       34.7360  -22.1910  -45.1130 C.ar  388  TRP388      0.0012
     81  CZ2       33.6510  -24.5840  -46.1690 C.ar  388  TRP388      0.0191
     82  CZ3       34.6620  -22.4120  -46.4780 C.ar  388  TRP388      0.0001
     83  CH2       34.1220  -23.5990  -46.9920 C.ar  388  TRP388      0.0015
     84  N         36.4780  -21.1590  -39.3920 N.am  389  TYR389     -0.1976
     85  CA        36.8590  -20.0220  -38.5620 C.3   389  TYR389      0.1639
     86  C         38.3600  -20.0000  -38.3030 C.2   389  TYR389      0.2290
     87  O         38.9980  -18.9520  -38.3970 O.2   389  TYR389     -0.2864
     88  CB        36.0950  -20.0460  -37.2360 C.3   389  TYR389      0.0560
     89  CG        34.6160  -19.7920  -37.3940 C.ar  389  TYR389     -0.0198
     90  CD1       34.1050  -18.5030  -37.3440 C.ar  389  TYR389     -0.0009
     91  CD2       33.7300  -20.8410  -37.6060 C.ar  389  TYR389     -0.0009
     92  CE1       32.7530  -18.2650  -37.4940 C.ar  389  TYR389      0.0417
     93  CE2       32.3770  -20.6140  -37.7570 C.ar  389  TYR389      0.0417
     94  CZ        31.8940  -19.3240  -37.7010 C.ar  389  TYR389      0.1957
     95  OH        30.5470  -19.0920  -37.8510 O.3   389  TYR389     -0.2866
@<TRIPOS>BOND
     1    83    82   ar
     2    83    81   ar
     3     2     1    1
     4     2     3    1
     5    82    80   ar
     6    81    79   ar
     7    28    27    1
     8    28    29    1
     9    27    26    1
    10     3     4    2
    11     3     5   am
    12    80    77   ar
    13    79    77   ar
    14    79    78   ar
    15    12    10   am
    16     5     6    1
    17    77    75   ar
    18    37    35   ar
    19    26    25    1
    20    11    10    2
    21    10     9    1
    22    78    76   ar
    23    25    22    1
    24    35    34    1
    25    35    36   ar
    26    34    31    1
    27     9     6    1
    28    43    42    1
    29     6     7    1
    30    75    76   ar
    31    75    74    1
    32    24    23    2
    33    67    69   ar
    34    67    65   ar
    35    17    18    1
    36    17    14    1
    37    20    18   am
    38    13     7   am
    39    13    14    1
    40    22    23    1
    41    22    21    1
    42     7     8    2
    43    30    31    1
    44    31    32    1
    45    33    32    2
    46    69    68   ar
    47    32    38   am
    48    74    71    1
    49    42    44    1
    50    42    39    1
    51    65    64   ar
    52    18    19    2
    53    38    39    1
    54    39    40    1
    55    14    15    1
    56    71    72    1
    57    71    70    1
    58    73    72    2
    59    16    15    2
    60    72    84   am
    61    68    66   ar
    62    64    66   ar
    63    64    63    1
    64    45    40   am
    65    45    46    1
    66    40    41    2
    67    51    49    1
    68    57    56    1
    69    63    60    1
    70    49    46    1
    71    49    50    1
    72    84    85    1
    73    60    61    1
    74    60    59    1
    75    56    58    1
    76    56    53    1
    77    46    47    1
    78    62    61    2
    79    52    47   am
    80    52    53    1
    81    85    86    1
    82    85    88    1
    83    87    86    2
    84    47    48    2
    85    53    54    1
    86    95    94    1
    87    93    94   ar
    88    93    91   ar
    89    94    92   ar
    90    91    89   ar
    91    92    90   ar
    92    89    90   ar
    93    89    88    1
    94    54    55    2
