@<TRIPOS>MOLECULE
tmp/4tv9D01.pdb
 168 166 0 0 0
SMALL
GASTEIGER

@<TRIPOS>ATOM
      1  N         30.2540  -14.1790  -46.8010 N.3    98  GLY98      -0.1210
      2  CA        29.8860  -15.5840  -46.7900 C.3    98  GLY98       0.1956
      3  C         29.3960  -16.0600  -45.4350 C.2    98  GLY98       0.2612
      4  O         29.6500  -17.2010  -45.0460 O.2    98  GLY98      -0.2717
      5  N         28.6990  -15.1790  -44.7180 N.am   99  ASN99      -0.1960
      6  CA        28.1690  -15.4770  -43.3870 C.3    99  ASN99       0.1819
      7  C         29.2590  -15.9140  -42.4130 C.2    99  ASN99       0.2621
      8  O         29.0170  -16.7170  -41.5120 O.2    99  ASN99      -0.2715
      9  CB        27.0810  -16.5520  -43.4680 C.3    99  ASN99       0.1195
     10  CG        25.8390  -16.0710  -44.1930 C.2    99  ASN99       0.2630
     11  OD1       25.3690  -14.9540  -43.9730 O.2    99  ASN99      -0.2716
     12  ND2       25.3010  -16.9140  -45.0660 N.am   99  ASN99      -0.0877
     13  N         30.4590  -15.3770  -42.6040 N.am  100  ASN100     -0.1972
     14  CA        31.6020  -15.7090  -41.7640 C.3   100  ASN100      0.1688
     15  C         32.0340  -14.4990  -40.9440 C.2   100  ASN100      0.2292
     16  O         32.5920  -13.5440  -41.4850 O.2   100  ASN100     -0.2864
     17  CB        32.7620  -16.2190  -42.6270 C.3   100  ASN100      0.1181
     18  CG        33.8680  -16.8640  -41.8080 C.2   100  ASN100      0.2629
     19  OD1       34.0660  -16.5410  -40.6370 O.2   100  ASN100     -0.2716
     20  ND2       34.5990  -17.7800  -42.4280 N.am  100  ASN100     -0.0877
     21  N         35.6080  -13.3210  -41.2970 N.3   103  LYS103     -0.1245
     22  CA        35.8760  -12.5710  -42.5190 C.3   103  LYS103      0.1561
     23  C         35.4180  -11.1220  -42.3760 C.2   103  LYS103      0.2260
     24  O         36.0920  -10.2000  -42.8330 O.2   103  LYS103     -0.2867
     25  CB        35.1960  -13.2290  -43.7250 C.3   103  LYS103      0.0271
     26  CG        35.9170  -14.4680  -44.2540 C.3   103  LYS103      0.0035
     27  CD        35.2590  -14.9920  -45.5250 C.3   103  LYS103      0.0206
     28  CE        36.0260  -16.1670  -46.1100 C.3   103  LYS103      0.1093
     29  NZ        35.3540  -16.7150  -47.3230 N.3   103  LYS103     -0.1314
     30  N         19.4170  -13.9800  -34.3290 N.3   171  PRO171     -0.2102
     31  CA        19.0910  -15.0730  -35.2520 C.3   171  PRO171      0.1504
     32  C         18.1100  -16.0890  -34.6710 C.2   171  PRO171      0.2576
     33  O         18.1180  -16.3470  -33.4670 O.2   171  PRO171     -0.2718
     34  CB        20.4500  -15.7260  -35.5060 C.3   171  PRO171      0.0282
     35  CG        21.2180  -15.4640  -34.2640 C.3   171  PRO171      0.0208
     36  CD        20.7730  -14.1140  -33.7700 C.3   171  PRO171      0.0893
     37  N         17.2800  -16.6610  -35.5380 N.am  172  SER172     -0.1939
     38  CA        16.3310  -17.6950  -35.1460 C.3   172  SER172      0.2040
     39  C         16.1500  -18.7210  -36.2600 C.2   172  SER172      0.2485
     40  O         16.0860  -18.3590  -37.4340 O.2   172  SER172     -0.2729
     41  CB        14.9810  -17.0790  -34.7830 C.3   172  SER172      0.2129
     42  OG        13.9880  -18.0820  -34.6450 O.3   172  SER172     -0.2179
     43  N         16.0600  -20.0080  -35.8890 N.am  173  PRO173     -0.2726
     44  CA        15.8630  -21.1040  -36.8460 C.3   173  PRO173      0.1402
     45  C         14.5270  -21.0190  -37.5830 C.2   173  PRO173      0.2269
     46  O         14.3570  -21.6630  -38.6160 O.2   173  PRO173     -0.2865
     47  CB        15.9120  -22.3590  -35.9640 C.3   173  PRO173      0.0296
     48  CG        16.6220  -21.9320  -34.7200 C.3   173  PRO173      0.0237
     49  CD        16.2400  -20.5030  -34.5140 C.3   173  PRO173      0.0939
     50  N         15.9050  -18.2810  -40.4280 N.3   176  SER176     -0.1202
     51  CA        17.0790  -18.6820  -41.2010 C.3   176  SER176      0.2020
     52  C         17.5380  -20.0920  -40.8380 C.2   176  SER176      0.2619
     53  O         17.4560  -20.5000  -39.6780 O.2   176  SER176     -0.2717
     54  CB        18.2240  -17.6900  -40.9850 C.3   176  SER176      0.2103
     55  OG        19.4030  -18.1240  -41.6410 O.3   176  SER176     -0.2182
     56  N         18.0250  -20.8320  -41.8330 N.am  177  ASP177     -0.1959
     57  CA        18.4880  -22.1990  -41.6100 C.3   177  ASP177      0.1840
     58  C         20.0090  -22.3160  -41.6960 C.2   177  ASP177      0.2623
     59  O         20.5550  -23.4200  -41.6730 O.2   177  ASP177     -0.2715
     60  CB        17.8270  -23.1590  -42.6070 C.3   177  ASP177      0.1450
     61  CG        17.9520  -22.6950  -44.0510 C.2   177  ASP177      0.3671
     62  OD1       18.9930  -22.1090  -44.4170 O.co2 177  ASP177     -0.2456
     63  OD2       17.0010  -22.9240  -44.8280 O.co2 177  ASP177     -0.2456
     64  N         20.6860  -21.1770  -41.8060 N.am  178  THR178     -0.1937
     65  CA        22.1450  -21.1510  -41.8080 C.3   178  THR178      0.2028
     66  C         22.6730  -21.6460  -40.4630 C.2   178  THR178      0.2642
     67  O         22.3660  -21.0750  -39.4170 O.2   178  THR178     -0.2714
     68  CB        22.6880  -19.7380  -42.0910 C.3   178  THR178      0.1808
     69  OG1       22.1820  -19.2730  -43.3490 O.3   178  THR178     -0.2208
     70  CG2       24.2070  -19.7470  -42.1340 C.3   178  THR178      0.0379
     71  N         23.4720  -22.7080  -40.5000 N.am  179  VAL179     -0.1963
     72  CA        23.8550  -23.4260  -39.2880 C.3   179  VAL179      0.1727
     73  C         24.8390  -22.6550  -38.3940 C.2   179  VAL179      0.2616
     74  O         24.8690  -22.8620  -37.1800 O.2   179  VAL179     -0.2715
     75  CB        24.4600  -24.8110  -39.6490 C.3   179  VAL179      0.0290
     76  CG1       25.7940  -24.6560  -40.3710 C.3   179  VAL179      0.0023
     77  CG2       24.6040  -25.6860  -38.4110 C.3   179  VAL179      0.0023
     78  N         25.6200  -21.7520  -38.9790 N.am  180  VAL180     -0.1963
     79  CA        26.6870  -21.0840  -38.2320 C.3   180  VAL180      0.1727
     80  C         26.2530  -19.7880  -37.5490 C.2   180  VAL180      0.2616
     81  O         27.0720  -19.1030  -36.9370 O.2   180  VAL180     -0.2715
     82  CB        27.8860  -20.7590  -39.1420 C.3   180  VAL180      0.0290
     83  CG1       28.5150  -22.0380  -39.6720 C.3   180  VAL180      0.0023
     84  CG2       27.4550  -19.8520  -40.2820 C.3   180  VAL180      0.0023
     85  N         24.9730  -19.4510  -37.6490 N.am  181  GLU181     -0.1964
     86  CA        24.4710  -18.2170  -37.0480 C.3   181  GLU181      0.1718
     87  C         24.6500  -18.1360  -35.5200 C.2   181  GLU181      0.2458
     88  O         24.9460  -17.0570  -35.0030 O.2   181  GLU181     -0.2730
     89  CB        22.9970  -18.0130  -37.4180 C.3   181  GLU181      0.0428
     90  CG        22.7650  -17.9270  -38.9220 C.3   181  GLU181      0.1163
     91  CD        21.7780  -16.8420  -39.3160 C.2   181  GLU181      0.3649
     92  OE1       21.3820  -16.0400  -38.4460 O.co2 181  GLU181     -0.2457
     93  OE2       21.3990  -16.7890  -40.5040 O.co2 181  GLU181     -0.2457
     94  N         24.4740  -19.2560  -34.7870 N.am  182  PRO182     -0.2727
     95  CA        24.7600  -19.1430  -33.3480 C.3   182  PRO182      0.1402
     96  C         26.2290  -18.8420  -33.0400 C.2   182  PRO182      0.2269
     97  O         26.5190  -18.2540  -31.9990 O.2   182  PRO182     -0.2865
     98  CB        24.3640  -20.5180  -32.8030 C.3   182  PRO182      0.0296
     99  CG        23.3520  -21.0210  -33.7650 C.3   182  PRO182      0.0237
    100  CD        23.8050  -20.5320  -35.1050 C.3   182  PRO182      0.0939
    101  N         22.4770  -23.3490  -28.6350 N.3   374  GLN374     -0.1245
    102  CA        22.7310  -23.6700  -30.0320 C.3   374  GLN374      0.1566
    103  C         24.2190  -23.5590  -30.3330 C.2   374  GLN374      0.2260
    104  O         24.7450  -24.2660  -31.1900 O.2   374  GLN374     -0.2867
    105  CB        21.9290  -22.7460  -30.9490 C.3   374  GLN374      0.0367
    106  CG        20.4240  -22.8660  -30.7810 C.3   374  GLN374      0.0905
    107  CD        19.6750  -21.7260  -31.4410 C.2   374  GLN374      0.2608
    108  OE1       20.2550  -20.6830  -31.7470 O.2   374  GLN374     -0.2717
    109  NE2       18.3810  -21.9180  -31.6640 N.am  374  GLN374     -0.0878
    110  N         26.1390  -26.6760  -28.7540 N.3   377  ALA377     -0.1231
    111  CA        25.7670  -27.9130  -29.4300 C.3   377  ALA377      0.1694
    112  C         26.6940  -28.1720  -30.6120 C.2   377  ALA377      0.2591
    113  O         26.9050  -29.3170  -31.0100 O.2   377  ALA377     -0.2718
    114  CB        24.3190  -27.8590  -29.8890 C.3   377  ALA377      0.0304
    115  N         27.2460  -27.0980  -31.1680 N.am  378  MET378     -0.1979
    116  CA        28.1890  -27.2090  -32.2730 C.3   378  MET378      0.1605
    117  C         29.6310  -27.1560  -31.7840 C.2   378  MET378      0.2287
    118  O         30.4980  -27.8500  -32.3100 O.2   378  MET378     -0.2864
    119  CB        27.9530  -26.0980  -33.2970 C.3   378  MET378      0.0413
    120  CG        26.6660  -26.2320  -34.0860 C.3   378  MET378      0.0598
    121  SD        26.5000  -24.9240  -35.3150 S.3   378  MET378     -0.1393
    122  CE        26.4380  -23.4760  -34.2590 C.3   378  MET378      0.0692
    123  N         32.3490  -26.9720  -37.9930 N.3   384  PHE384     -0.1241
    124  CA        32.4850  -25.8060  -38.8720 C.3   384  PHE384      0.1605
    125  C         33.5330  -24.7930  -38.4110 C.2   384  PHE384      0.2264
    126  O         33.5320  -23.6490  -38.8680 O.2   384  PHE384     -0.2867
    127  CB        31.1350  -25.0940  -39.0240 C.3   384  PHE384      0.0534
    128  CG        29.9850  -26.0220  -39.2960 C.ar  384  PHE384     -0.0203
    129  CD1       29.8410  -26.6260  -40.5350 C.ar  384  PHE384     -0.0042
    130  CD2       29.0420  -26.2810  -38.3150 C.ar  384  PHE384     -0.0042
    131  CE1       28.7820  -27.4780  -40.7870 C.ar  384  PHE384     -0.0003
    132  CE2       27.9820  -27.1340  -38.5610 C.ar  384  PHE384     -0.0003
    133  CZ        27.8510  -27.7310  -39.7990 C.ar  384  PHE384     -0.0000
    134  N         36.3970  -22.9200  -40.8630 N.3   387  TRP387     -0.1227
    135  CA        36.0600  -21.7030  -41.5940 C.3   387  TRP387      0.1737
    136  C         36.5460  -20.4690  -40.8390 C.2   387  TRP387      0.2595
    137  O         36.9720  -19.4850  -41.4430 O.2   387  TRP387     -0.2718
    138  CB        34.5510  -21.6080  -41.8340 C.3   387  TRP387      0.0564
    139  CG        34.0240  -22.6530  -42.7630 C.ar  387  TRP387      0.0003
    140  CD1       33.2080  -23.6980  -42.4440 C.ar  387  TRP387      0.0946
    141  CD2       34.2820  -22.7610  -44.1690 C.ar  387  TRP387      0.0152
    142  NE1       32.9370  -24.4460  -43.5640 N.ar  387  TRP387     -0.2442
    143  CE2       33.5860  -23.8920  -44.6360 C.ar  387  TRP387      0.0810
    144  CE3       35.0320  -22.0080  -45.0780 C.ar  387  TRP387      0.0012
    145  CZ2       33.6180  -24.2910  -45.9720 C.ar  387  TRP387      0.0191
    146  CZ3       35.0640  -22.4050  -46.4040 C.ar  387  TRP387      0.0001
    147  CH2       34.3610  -23.5360  -46.8380 C.ar  387  TRP387      0.0015
    148  N         36.4800  -20.5320  -39.5140 N.am  388  TYR388     -0.1976
    149  CA        36.8950  -19.4150  -38.6740 C.3   388  TYR388      0.1639
    150  C         38.3920  -19.4850  -38.3970 C.2   388  TYR388      0.2290
    151  O         39.1000  -18.4840  -38.5120 O.2   388  TYR388     -0.2864
    152  CB        36.1000  -19.4060  -37.3650 C.3   388  TYR388      0.0560
    153  CG        34.6120  -19.2300  -37.5730 C.ar  388  TYR388     -0.0198
    154  CD1       33.8090  -20.3090  -37.9180 C.ar  388  TYR388     -0.0009
    155  CD2       34.0120  -17.9850  -37.4290 C.ar  388  TYR388     -0.0009
    156  CE1       32.4520  -20.1560  -38.1160 C.ar  388  TYR388      0.0417
    157  CE2       32.6520  -17.8220  -37.6230 C.ar  388  TYR388      0.0417
    158  CZ        31.8780  -18.9120  -37.9670 C.ar  388  TYR388      0.1957
    159  OH        30.5250  -18.7620  -38.1650 O.3   388  TYR388     -0.2866
    160  N         40.7120  -18.3000  -41.0570 N.3   391  GLU391     -0.1245
    161  CA        40.8690  -16.8620  -41.2350 C.3   391  GLU391      0.1567
    162  C         41.8960  -16.2870  -40.2620 C.2   391  GLU391      0.2260
    163  O         42.2260  -15.1020  -40.3250 O.2   391  GLU391     -0.2867
    164  CB        39.5250  -16.1490  -41.0670 C.3   391  GLU391      0.0388
    165  CG        38.5060  -16.4950  -42.1420 C.3   391  GLU391      0.1160
    166  CD        39.0010  -16.1720  -43.5410 C.2   391  GLU391      0.3649
    167  OE1       39.6070  -15.0960  -43.7280 O.co2 391  GLU391     -0.2457
    168  OE2       38.7890  -16.9990  -44.4540 O.co2 391  GLU391     -0.2457
@<TRIPOS>BOND
     1    29    28    1
     2   147   146   ar
     3   147   145   ar
     4     1     2    1
     5     2     3    1
     6   146   144   ar
     7    28    27    1
     8   145   143   ar
     9    27    26    1
    10     3     4    2
    11     3     5   am
    12   144   141   ar
    13    12    10   am
    14    63    61   ar
    15     5     6    1
    16   143   141   ar
    17   143   142   ar
    18   168   166   ar
    19    62    61   ar
    20    26    25    1
    21    10    11    2
    22    10     9    1
    23   141   139   ar
    24    61    60    1
    25   167   166   ar
    26    25    22    1
    27   142   140   ar
    28   166   165    1
    29     9     6    1
    30     6     7    1
    31    69    68    1
    32    24    23    2
    33   139   140   ar
    34   139   138    1
    35    17    18    1
    36    17    14    1
    37    60    57    1
    38    13     7   am
    39    13    14    1
    40    22    23    1
    41    22    21    1
    42    20    18   am
    43     7     8    2
    44   165   164    1
    45    70    68    1
    46    68    65    1
    47   138   135    1
    48    56    57    1
    49    56    52   am
    50    65    64    1
    51    65    66    1
    52    18    19    2
    53    64    58   am
    54    14    15    1
    55    58    59    2
    56    58    57    1
    57    55    54    1
    58   135   134    1
    59   135   136    1
    60    16    15    2
    61   137   136    2
    62   161   164    1
    63   161   160    1
    64   161   162    1
    65    51    54    1
    66    51    52    1
    67    51    50    1
    68   136   148   am
    69    52    53    2
    70   131   129   ar
    71   131   133   ar
    72   129   128   ar
    73    93    91   ar
    74    71    66   am
    75    71    72    1
    76    66    67    2
    77    76    75    1
    78   163   162    2
    79    84    82    1
    80   133   132   ar
    81    83    82    1
    82    75    72    1
    83    75    77    1
    84   148   149    1
    85    91    90    1
    86    91    92   ar
    87   128   127    1
    88   128   130   ar
    89    72    73    1
    90    82    79    1
    91   127   124    1
    92    78    73   am
    93    78    79    1
    94    90    89    1
    95   124   125    1
    96   124   123    1
    97   126   125    2
    98   149   150    1
    99   149   152    1
   100    46    45    2
   101   132   130   ar
   102   151   150    2
   103    73    74    2
   104    79    80    1
   105   159   158    1
   106   156   158   ar
   107   156   154   ar
   108   158   157   ar
   109   154   153   ar
   110    85    80   am
   111    85    86    1
   112   157   155   ar
   113    45    44    1
   114   153   155   ar
   115   153   152    1
   116    80    81    2
   117    40    39    2
   118    89    86    1
   119    86    87    1
   120    44    47    1
   121    44    43    1
   122    39    43   am
   123    39    38    1
   124    47    48    1
   125    43    49    1
   126    37    38    1
   127    37    32   am
   128    87    88    2
   129    87    94   am
   130    34    31    1
   131    34    35    1
   132   121   122    1
   133   121   120    1
   134    31    32    1
   135    31    30    1
   136    38    41    1
   137   100    94    1
   138   100    99    1
   139    94    95    1
   140    41    42    1
   141    48    49    1
   142    32    33    2
   143    30    36    1
   144    35    36    1
   145   120   119    1
   146    99    98    1
   147    95    96    1
   148    95    98    1
   149   119   116    1
   150    96    97    2
   151   118   117    2
   152   116   117    1
   153   116   115    1
   154   108   107    2
   155   109   107   am
   156   107   106    1
   157   104   103    2
   158   115   112   am
   159   113   112    2
   160   105   106    1
   161   105   102    1
   162   112   111    1
   163   103   102    1
   164   102   101    1
   165   114   111    1
   166   111   110    1
