@<TRIPOS>MOLECULE
tmp/4tvaB00.pdb
 209 199 0 0 0
SMALL
GASTEIGER

@<TRIPOS>ATOM
      1  N         -4.2100   84.7940   27.9240 N.3   239  MET239     -0.1230
      2  CA        -4.4910   85.1040   29.3170 C.3   239  MET239      0.1702
      3  C         -5.7410   85.9420   29.4540 C.2   239  MET239      0.2592
      4  O         -6.0560   86.7510   28.5870 O.2   239  MET239     -0.2718
      5  CB        -3.3080   85.8200   29.9510 C.3   239  MET239      0.0401
      6  CG        -2.0740   84.9570   29.9690 C.3   239  MET239      0.0596
      7  SD        -0.7920   85.6060   31.0190 S.3   239  MET239     -0.1393
      8  CE        -1.5240   85.1980   32.6900 C.3   239  MET239      0.0692
      9  N         -6.4620   85.7420   30.5440 N.am  240  ARG240     -0.1980
     10  CA        -7.6880   86.4870   30.7760 C.3   240  ARG240      0.1597
     11  C         -7.4530   87.7320   31.6160 C.2   240  ARG240      0.2287
     12  O         -6.8460   87.6700   32.6760 O.2   240  ARG240     -0.2864
     13  CB        -8.7130   85.6010   31.4850 C.3   240  ARG240      0.0334
     14  CG       -10.1100   86.1750   31.5170 C.3   240  ARG240      0.0492
     15  CD       -11.0150   85.2420   32.2630 C.3   240  ARG240      0.2205
     16  NE       -11.2490   85.6900   33.6310 N.pl3 240  ARG240     -0.0865
     17  CZ       -11.4510   84.8740   34.6610 C.cat 240  ARG240      0.5346
     18  NH1      -11.4390   83.5530   34.4870 N.pl3 240  ARG240      0.1354
     19  NH2      -11.6740   85.3830   35.8650 N.pl3 240  ARG240      0.1354
     20  N         -8.0240   90.6140   34.3190 N.3   242  ILE242     -0.1245
     21  CA        -8.7330   90.6330   35.6030 C.3   242  ILE242      0.1561
     22  C         -9.0750   92.0880   36.0060 C.2   242  ILE242      0.2260
     23  O        -10.2410   92.4220   36.2080 O.2   242  ILE242     -0.2867
     24  CB        -7.8940   89.9670   36.7360 C.3   242  ILE242      0.0252
     25  CG1       -8.0460   88.4470   36.6990 C.3   242  ILE242      0.0019
     26  CG2       -8.3830   90.4350   38.0880 C.3   242  ILE242      0.0019
     27  CD1       -7.5030   87.7820   35.4960 C.3   242  ILE242      0.0001
     28  N         -3.4040   93.6290   38.2650 N.3   246  VAL246     -0.1245
     29  CA        -3.0860   92.2530   37.9390 C.3   246  VAL246      0.1561
     30  C         -2.6750   92.0930   36.4790 C.2   246  VAL246      0.2260
     31  O         -1.7390   91.3370   36.1650 O.2   246  VAL246     -0.2867
     32  CB        -4.2950   91.3420   38.2150 C.3   246  VAL246      0.0252
     33  CG1       -4.0800   89.9690   37.5970 C.3   246  VAL246      0.0019
     34  CG2       -4.5070   91.2220   39.7100 C.3   246  VAL246      0.0019
     35  N          0.8490   93.1310   35.7030 N.3   249  THR249     -0.1203
     36  CA         1.8620   92.1680   36.1120 C.3   249  THR249      0.1994
     37  C          1.9160   91.0330   35.1000 C.2   249  THR249      0.2617
     38  O          2.9730   90.4160   34.9120 O.2   249  THR249     -0.2717
     39  CB         1.6090   91.5760   37.5420 C.3   249  THR249      0.1784
     40  OG1        0.3880   90.8230   37.5650 O.3   249  THR249     -0.2211
     41  CG2        1.5280   92.6780   38.5590 C.3   249  THR249      0.0376
     42  N          0.7950   90.7400   34.4480 N.am  250  ASN250     -0.1974
     43  CA         0.8280   89.6680   33.4560 C.3   250  ASN250      0.1688
     44  C          1.4140   90.1540   32.1340 C.2   250  ASN250      0.2292
     45  O          2.1530   89.4250   31.4640 O.2   250  ASN250     -0.2864
     46  CB        -0.5610   89.0560   33.2390 C.3   250  ASN250      0.1181
     47  CG        -0.9340   88.0890   34.3340 C.2   250  ASN250      0.2629
     48  OD1       -2.0140   88.1820   34.9000 O.2   250  ASN250     -0.2716
     49  ND2       -0.0450   87.1660   34.6430 N.am  250  ASN250     -0.0877
     50  N          5.1600   90.3840   32.4500 N.3   253  MET253     -0.1245
     51  CA         5.7100   89.0470   32.4760 C.3   253  MET253      0.1570
     52  C          5.8610   88.5910   31.0310 C.2   253  MET253      0.2261
     53  O          6.9310   88.1410   30.6340 O.2   253  MET253     -0.2867
     54  CB         4.7900   88.0820   33.2140 C.3   253  MET253      0.0387
     55  CG         5.1830   86.6390   32.9840 C.3   253  MET253      0.0595
     56  SD         4.2150   85.4160   33.8770 S.3   253  MET253     -0.1393
     57  CE         2.5800   85.5920   33.1020 C.3   253  MET253      0.0692
     58  N          8.1500   86.8800   35.6070 N.3   259  PRO259     -0.2102
     59  CA         6.9340   86.7550   36.4170 C.3   259  PRO259      0.1504
     60  C          7.0370   87.7380   37.5930 C.2   259  PRO259      0.2576
     61  O          8.1460   87.9720   38.1020 O.2   259  PRO259     -0.2718
     62  CB         6.9870   85.2980   36.8790 C.3   259  PRO259      0.0282
     63  CG         7.6890   84.6080   35.7710 C.3   259  PRO259      0.0208
     64  CD         8.8140   85.5740   35.4690 C.3   259  PRO259      0.0893
     65  N          5.9030   88.3170   38.0000 N.am  260  MET260     -0.1966
     66  CA         5.8360   89.2870   39.1040 C.3   260  MET260      0.1736
     67  C          4.4610   89.2830   39.7910 C.2   260  MET260      0.2616
     68  O          3.4530   89.5090   39.1740 O.2   260  MET260     -0.2715
     69  CB         6.1640   90.6940   38.5980 C.3   260  MET260      0.0427
     70  CG         5.3850   91.1520   37.3820 C.3   260  MET260      0.0599
     71  SD         5.6660   92.9420   37.0400 S.3   260  MET260     -0.1393
     72  CE         7.3990   92.9190   36.5370 C.3   260  MET260      0.0692
     73  N          4.3730   89.6390   41.0570 N.am  261  HIS261     -0.1959
     74  CA         3.0620   89.5520   41.6810 C.3   261  HIS261      0.1787
     75  C          2.8220   90.6560   42.6720 C.2   261  HIS261      0.2620
     76  O          3.6180   90.8660   43.5820 O.2   261  HIS261     -0.2715
     77  CB         2.9260   88.1840   42.3720 C.3   261  HIS261      0.0785
     78  CG         1.5720   87.9220   42.9590 C.ar  261  HIS261      0.0821
     79  ND1        0.4780   87.5850   42.1960 N.ar  261  HIS261     -0.2267
     80  CD2        1.1350   87.9590   44.2400 C.ar  261  HIS261      0.1154
     81  CE1       -0.5740   87.4250   42.9780 C.ar  261  HIS261      0.1986
     82  NE2       -0.2020   87.6470   44.2230 N.ar  261  HIS261     -0.2212
     83  N          1.6050   91.2980   42.4550 N.am  262  ALA262     -0.1963
     84  CA         1.2210   92.4050   43.3220 C.3   262  ALA262      0.1728
     85  C          0.5280   91.8010   44.5440 C.2   262  ALA262      0.2616
     86  O         -0.4540   91.0800   44.4080 O.2   262  ALA262     -0.2715
     87  CB         0.2770   93.3660   42.5840 C.3   262  ALA262      0.0334
     88  N          1.0680   92.0620   45.7330 N.am  263  PHE263     -0.1974
     89  CA         0.4630   91.5650   46.9660 C.3   263  PHE263      0.1639
     90  C         -0.2620   92.7400   47.6490 C.2   263  PHE263      0.2290
     91  O          0.3210   93.8080   47.8540 O.2   263  PHE263     -0.2864
     92  CB         1.5290   91.0050   47.9120 C.3   263  PHE263      0.0560
     93  CG         2.0500   89.6410   47.5270 C.ar  263  PHE263     -0.0200
     94  CD1        1.3550   88.4890   47.8780 C.ar  263  PHE263     -0.0042
     95  CD2        3.2520   89.5070   46.8430 C.ar  263  PHE263     -0.0042
     96  CE1        1.8520   87.2190   47.5570 C.ar  263  PHE263     -0.0003
     97  CE2        3.7540   88.2420   46.5200 C.ar  263  PHE263     -0.0003
     98  CZ         3.0520   87.0960   46.8790 C.ar  263  PHE263     -0.0000
     99  N         -4.5130   81.2310   44.3110 N.3   286  LEU286     -0.1245
    100  CA        -5.5100   82.0320   43.6030 C.3   286  LEU286      0.1561
    101  C         -6.3570   81.2490   42.6140 C.2   286  LEU286      0.2260
    102  O         -7.2760   81.8020   42.0130 O.2   286  LEU286     -0.2867
    103  CB        -4.8540   83.2520   42.9150 C.3   286  LEU286      0.0270
    104  CG        -3.6890   83.1080   41.9250 C.3   286  LEU286      0.0019
    105  CD1       -4.1310   82.3420   40.7090 C.3   286  LEU286      0.0001
    106  CD2       -3.1880   84.4920   41.5020 C.3   286  LEU286      0.0001
    107  N          6.3310   82.7420   49.8270 N.3   300  ILE300     -0.1245
    108  CA         6.3600   84.1970   49.9990 C.3   300  ILE300      0.1561
    109  C          5.4180   84.3910   51.1700 C.2   300  ILE300      0.2260
    110  O          4.2190   84.1500   51.0530 O.2   300  ILE300     -0.2867
    111  CB         5.8050   84.9670   48.7810 C.3   300  ILE300      0.0252
    112  CG1        6.7210   84.7750   47.5710 C.3   300  ILE300      0.0019
    113  CG2        5.6950   86.4370   49.1180 C.3   300  ILE300      0.0019
    114  CD1        8.1330   85.2820   47.7830 C.3   300  ILE300      0.0001
    115  N          2.8770   80.7680   46.8000 N.3   313  LEU313     -0.1231
    116  CA         3.8380   79.7070   46.5100 C.3   313  LEU313      0.1693
    117  C          4.8390   80.3930   45.5860 C.2   313  LEU313      0.2592
    118  O          4.5410   80.6400   44.4200 O.2   313  LEU313     -0.2718
    119  CB         3.1580   78.5510   45.7760 C.3   313  LEU313      0.0284
    120  CG         3.3890   77.1200   46.2700 C.3   313  LEU313      0.0019
    121  CD1        2.9360   76.1550   45.1930 C.3   313  LEU313      0.0001
    122  CD2        4.8500   76.8790   46.5860 C.3   313  LEU313      0.0001
    123  N          6.0180   80.7050   46.1160 N.am  314  ALA314     -0.1966
    124  CA         7.0620   81.4150   45.3770 C.3   314  ALA314      0.1728
    125  C          7.3830   80.9390   43.9590 C.2   314  ALA314      0.2617
    126  O          7.6390   79.7590   43.7130 O.2   314  ALA314     -0.2715
    127  CB         8.3320   81.4580   46.2070 C.3   314  ALA314      0.0334
    128  N          7.3510   81.8840   43.0240 N.am  315  GLY315     -0.1940
    129  CA         7.6610   81.5750   41.6440 C.3   315  GLY315      0.2014
    130  C          6.7190   80.6160   40.9570 C.2   315  GLY315      0.2639
    131  O          6.9830   80.2160   39.8260 O.2   315  GLY315     -0.2714
    132  N          5.6290   80.2370   41.6200 N.am  316  VAL316     -0.1963
    133  CA         4.6620   79.3280   41.0080 C.3   316  VAL316      0.1727
    134  C          3.2700   79.9310   40.9230 C.2   316  VAL316      0.2616
    135  O          2.6850   80.0040   39.8540 O.2   316  VAL316     -0.2715
    136  CB         4.5450   77.9730   41.7700 C.3   316  VAL316      0.0290
    137  CG1        3.4750   77.0870   41.1020 C.3   316  VAL316      0.0023
    138  CG2        5.8870   77.2560   41.7830 C.3   316  VAL316      0.0023
    139  N          2.7280   80.3550   42.0540 N.am  317  MET317     -0.1963
    140  CA         1.3880   80.9360   42.0510 C.3   317  MET317      0.1736
    141  C          1.1130   81.6640   43.3630 C.2   317  MET317      0.2617
    142  O          1.5150   81.2110   44.4390 O.2   317  MET317     -0.2715
    143  CB         0.3490   79.8320   41.8210 C.3   317  MET317      0.0427
    144  CG        -1.0870   80.2990   41.8360 C.3   317  MET317      0.0599
    145  SD        -2.2810   78.9520   41.6050 S.3   317  MET317     -0.1393
    146  CE        -2.2220   78.7280   39.8150 C.3   317  MET317      0.0692
    147  N          0.4330   82.8000   43.2680 N.am  318  GLY318     -0.1955
    148  CA         0.1390   83.5690   44.4590 C.3   318  GLY318      0.1869
    149  C         -1.0730   83.0520   45.1960 C.2   318  GLY318      0.2309
    150  O         -1.8330   82.2410   44.6630 O.2   318  GLY318     -0.2863
    151  N         -4.4240   88.5050   46.9120 N.3   323  GLU323     -0.1231
    152  CA        -4.6240   88.7960   45.5140 C.3   323  GLU323      0.1699
    153  C         -5.3360   90.1680   45.3280 C.2   323  GLU323      0.2592
    154  O         -6.3240   90.4460   46.0020 O.2   323  GLU323     -0.2718
    155  CB        -5.4190   87.6360   44.9400 C.3   323  GLU323      0.0402
    156  CG        -6.9000   87.6810   45.2440 C.3   323  GLU323      0.1161
    157  CD        -7.6460   86.4990   44.6470 C.2   323  GLU323      0.3649
    158  OE1       -8.8520   86.3480   44.9680 O.co2 323  GLU323     -0.2457
    159  OE2       -7.0310   85.7340   43.8560 O.co2 323  GLU323     -0.2457
    160  N         -4.8360   91.0150   44.4220 N.am  324  VAL324     -0.1966
    161  CA        -5.3970   92.3580   44.2100 C.3   324  VAL324      0.1727
    162  C         -6.8070   92.4290   43.6390 C.2   324  VAL324      0.2616
    163  O         -7.1230   91.7620   42.6550 O.2   324  VAL324     -0.2715
    164  CB        -4.4680   93.2340   43.3000 C.3   324  VAL324      0.0290
    165  CG1       -5.2020   94.5100   42.8530 C.3   324  VAL324      0.0023
    166  CG2       -3.1950   93.6140   44.0490 C.3   324  VAL324      0.0023
    167  N         -7.6400   93.2650   44.2590 N.am  325  ARG325     -0.1977
    168  CA        -9.0290   93.4640   43.8460 C.3   325  ARG325      0.1597
    169  C         -9.4260   94.9460   43.8690 C.2   325  ARG325      0.2287
    170  O         -8.5890   95.8110   44.1200 O.2   325  ARG325     -0.2864
    171  CB        -9.9690   92.6550   44.7310 C.3   325  ARG325      0.0334
    172  CG        -9.7020   91.1750   44.7040 C.3   325  ARG325      0.0492
    173  CD       -10.5970   90.4550   45.6900 C.3   325  ARG325      0.2205
    174  NE        -9.8680   89.4340   46.4450 N.pl3 325  ARG325     -0.0865
    175  CZ        -8.8970   89.6820   47.3300 C.cat 325  ARG325      0.5346
    176  NH1       -8.5090   90.9270   47.6050 N.pl3 325  ARG325      0.1354
    177  NH2       -8.3050   88.6720   47.9460 N.pl3 325  ARG325      0.1354
    178  N          6.2310   92.0660   43.7730 N.3   334  GLU334     -0.1245
    179  CA         7.3010   91.1090   43.8290 C.3   334  GLU334      0.1567
    180  C          7.9090   90.7970   42.4720 C.2   334  GLU334      0.2260
    181  O          7.2470   90.2420   41.6020 O.2   334  GLU334     -0.2867
    182  CB         6.8090   89.8310   44.4720 C.3   334  GLU334      0.0388
    183  CG         7.7870   88.7150   44.3210 C.3   334  GLU334      0.1160
    184  CD         7.1570   87.5330   43.6740 C.2   334  GLU334      0.3649
    185  OE1        7.8790   86.7320   43.0500 O.co2 334  GLU334     -0.2457
    186  OE2        5.9240   87.4030   43.7920 O.co2 334  GLU334     -0.2457
    187  N          2.5010   76.8220   35.5470 N.3   354  THR354     -0.1218
    188  CA         2.0290   78.1700   35.2740 C.3   354  THR354      0.1862
    189  C          3.0230   78.9550   34.4480 C.2   354  THR354      0.2287
    190  O          4.1740   78.5680   34.3230 O.2   354  THR354     -0.2866
    191  CB         1.7540   78.9560   36.5770 C.3   354  THR354      0.1770
    192  OG1        2.9940   79.2610   37.2300 O.3   354  THR354     -0.2211
    193  CG2        0.8810   78.1460   37.5030 C.3   354  THR354      0.0375
    194  N          4.4120   81.3880   35.2440 N.3   356  ALA356     -0.1245
    195  CA         5.4740   81.7560   36.1640 C.3   356  ALA356      0.1562
    196  C          6.4720   80.6080   36.3600 C.2   356  ALA356      0.2260
    197  O          7.6750   80.7920   36.1410 O.2   356  ALA356     -0.2867
    198  CB         4.8860   82.1770   37.5080 C.3   356  ALA356      0.0290
    199  N         10.4900   80.4770   35.3980 N.3   360  PHE360     -0.1241
    200  CA        11.5070   80.3220   36.4270 C.3   360  PHE360      0.1605
    201  C         12.2710   78.9980   36.2930 C.2   360  PHE360      0.2264
    202  O         13.4550   78.9230   36.6450 O.2   360  PHE360     -0.2867
    203  CB        10.8740   80.4560   37.8140 C.3   360  PHE360      0.0534
    204  CG        10.5860   81.8750   38.2030 C.ar  360  PHE360     -0.0203
    205  CD1       11.6100   82.8110   38.2460 C.ar  360  PHE360     -0.0042
    206  CD2        9.2890   82.2810   38.5150 C.ar  360  PHE360     -0.0042
    207  CE1       11.3540   84.1340   38.5950 C.ar  360  PHE360     -0.0003
    208  CE2        9.0170   83.6000   38.8680 C.ar  360  PHE360     -0.0003
    209  CZ        10.0530   84.5300   38.9090 C.ar  360  PHE360     -0.0000
@<TRIPOS>BOND
     1     1     2    1
     2     4     3    2
     3     2     3    1
     4     2     5    1
     5     3     9   am
     6     5     6    1
     7     6     7    1
     8     9    10    1
     9    53    52    2
    10    10    13    1
    11    10    11    1
    12     7     8    1
    13    52    51    1
    14    45    44    2
    15    13    14    1
    16    14    15    1
    17    11    12    2
    18    44    43    1
    19    15    16    1
    20    50    51    1
    21    51    54    1
    22    55    54    1
    23    55    56    1
    24    57    56    1
    25    46    43    1
    26    46    47    1
    27    43    42    1
    28    16    17    2
    29    20    21    1
    30   190   189    2
    31    47    49   am
    32    47    48    2
    33   189   188    1
    34    42    37   am
    35    18    17    1
    36    17    19    1
    37    38    37    2
    38    37    36    1
    39   194   195    1
    40   188   187    1
    41   188   191    1
    42   199   200    1
    43    64    58    1
    44    64    63    1
    45    27    25    1
    46    21    22    1
    47    21    24    1
    48    58    59    1
    49    35    36    1
    50    63    62    1
    51    22    23    2
    52    36    39    1
    53   197   196    2
    54   195   196    1
    55   195   198    1
    56    31    30    2
    57   201   200    1
    58   201   202    2
    59    59    62    1
    60    59    60    1
    61   200   203    1
    62    30    29    1
    63    72    71    1
    64   191   192    1
    65   191   193    1
    66    25    24    1
    67    24    26    1
    68    71    70    1
    69    70    69    1
    70    39    40    1
    71    39    41    1
    72    60    65   am
    73    60    61    2
    74    33    32    1
    75   203   204    1
    76    29    32    1
    77    29    28    1
    78    65    66    1
    79   204   205   ar
    80   204   206   ar
    81    32    34    1
    82   205   207   ar
    83   206   208   ar
    84   207   209   ar
    85    69    66    1
    86   208   209   ar
    87    66    67    1
    88    68    67    2
    89    67    73   am
    90   146   145    1
    91   131   130    2
    92   135   134    2
    93   105   104    1
    94   134   133    1
    95   134   139   am
    96   130   132   am
    97   130   129    1
    98   133   132    1
    99   133   136    1
   100    73    74    1
   101   137   136    1
   102   106   104    1
   103   181   180    2
   104   145   144    1
   105   129   128    1
   106    74    77    1
   107    74    75    1
   108   136   138    1
   109   143   144    1
   110   143   140    1
   111   104   103    1
   112   102   101    2
   113   140   139    1
   114   140   141    1
   115    79    78   ar
   116    79    81   ar
   117    77    78    1
   118    83    75   am
   119    83    84    1
   120   180   179    1
   121    87    84    1
   122   101   100    1
   123   163   162    2
   124    75    76    2
   125   165   164    1
   126   103   100    1
   127    78    80   ar
   128    81    82   ar
   129   128   125   am
   130   185   184   ar
   131   147   141   am
   132   147   148    1
   133   164   166    1
   134   164   161    1
   135    84    85    1
   136   141   142    2
   137   100    99    1
   138   162   161    1
   139   162   167   am
   140   184   186   ar
   141   184   183    1
   142   126   125    2
   143   178   179    1
   144   179   182    1
   145   168   169    1
   146   168   167    1
   147   168   171    1
   148   159   157   ar
   149   169   170    2
   150   125   124    1
   151   161   160    1
   152    82    80   ar
   153   183   182    1
   154    86    85    2
   155   118   117    2
   156   160   153   am
   157   148   149    1
   158    85    88   am
   159   157   158   ar
   160   157   156    1
   161   150   149    2
   162   172   171    1
   163   172   173    1
   164   155   156    1
   165   155   152    1
   166   121   120    1
   167   153   152    1
   168   153   154    2
   169   124   123    1
   170   124   127    1
   171   152   151    1
   172   117   123   am
   173   117   116    1
   174   173   174    1
   175    88    89    1
   176   119   120    1
   177   119   116    1
   178   120   122    1
   179   174   175    2
   180   116   115    1
   181    97    95   ar
   182    97    98   ar
   183    95    93   ar
   184    98    96   ar
   185    89    90    1
   186    89    92    1
   187   175   176    1
   188   175   177    1
   189    93    94   ar
   190    93    92    1
   191    96    94   ar
   192   112   114    1
   193   112   111    1
   194    90    91    2
   195   111   113    1
   196   111   108    1
   197   107   108    1
   198   108   109    1
   199   110   109    2
