@<TRIPOS>MOLECULE
tmp/4tvbA01.pdb
 172 163 0 0 0
SMALL
GASTEIGER

@<TRIPOS>ATOM
      1  N          2.4330   46.3910   28.1170 N.3    20  ILE20      -0.1245
      2  CA         1.5450   45.7740   29.1060 C.3    20  ILE20       0.1561
      3  C          0.7540   46.8250   29.8940 C.2    20  ILE20       0.2260
      4  O         -0.4400   46.6600   30.1220 O.2    20  ILE20      -0.2867
      5  CB         2.3240   44.8730   30.0810 C.3    20  ILE20       0.0252
      6  CG1        3.0740   43.7860   29.3060 C.3    20  ILE20       0.0019
      7  CG2        1.3900   44.2370   31.1070 C.3    20  ILE20       0.0019
      8  CD1        2.2070   42.9890   28.3470 C.3    20  ILE20       0.0001
      9  N          4.7770   41.2180   37.1840 N.3   112  THR112     -0.1203
     10  CA         4.7560   40.1350   36.2100 C.3   112  THR112      0.1994
     11  C          6.1450   39.5430   36.0040 C.2   112  THR112      0.2617
     12  O          6.3570   38.7560   35.0990 O.2   112  THR112     -0.2717
     13  CB         4.2220   40.6160   34.8470 C.3   112  THR112      0.1784
     14  OG1        5.2030   41.4430   34.2090 O.3   112  THR112     -0.2211
     15  CG2        2.9040   41.3760   35.0180 C.3   112  THR112      0.0376
     16  N          7.0860   39.9250   36.8530 N.am  113  VAL113     -0.1979
     17  CA         8.4780   39.5380   36.6930 C.3   113  VAL113      0.1595
     18  C          9.2230   39.9360   37.9570 C.2   113  VAL113      0.2287
     19  O          8.8480   40.9150   38.5940 O.2   113  VAL113     -0.2864
     20  CB         9.1210   40.2170   35.4600 C.3   113  VAL113      0.0276
     21  CG1        9.0330   41.7420   35.5620 C.3   113  VAL113      0.0022
     22  CG2       10.5740   39.7860   35.2850 C.3   113  VAL113      0.0022
     23  N         12.0400   41.6830   38.5290 N.3   115  GLU115     -0.1245
     24  CA        12.9890   42.5590   37.8510 C.3   115  GLU115      0.1567
     25  C         13.9770   43.1180   38.8720 C.2   115  GLU115      0.2260
     26  O         13.6000   43.3540   40.0170 O.2   115  GLU115     -0.2867
     27  CB        12.2420   43.6930   37.1500 C.3   115  GLU115      0.0388
     28  CG        13.1020   44.6140   36.3000 C.3   115  GLU115      0.1160
     29  CD        13.4450   44.0380   34.9410 C.2   115  GLU115      0.3649
     30  OE1       13.1580   42.8440   34.6940 O.co2 115  GLU115     -0.2457
     31  OE2       14.0020   44.7930   34.1200 O.co2 115  GLU115     -0.2457
     32  N         21.2700   42.6250   34.7070 N.3   121  TYR121     -0.1241
     33  CA        21.1980   41.6130   33.6580 C.3   121  TYR121      0.1605
     34  C         22.4620   41.4620   32.8120 C.2   121  TYR121      0.2264
     35  O         22.7900   40.3580   32.3860 O.2   121  TYR121     -0.2867
     36  CB        20.0270   41.9190   32.7260 C.3   121  TYR121      0.0534
     37  CG        18.6660   41.6140   33.3030 C.ar  121  TYR121     -0.0201
     38  CD1       18.3590   40.3460   33.7670 C.ar  121  TYR121     -0.0009
     39  CD2       17.6780   42.5850   33.3540 C.ar  121  TYR121     -0.0009
     40  CE1       17.1150   40.0540   34.2890 C.ar  121  TYR121      0.0417
     41  CE2       16.4230   42.3020   33.8720 C.ar  121  TYR121      0.0417
     42  CZ        16.1490   41.0330   34.3370 C.ar  121  TYR121      0.1957
     43  OH        14.9150   40.7280   34.8490 O.3   121  TYR121     -0.2866
     44  N          1.0180   36.5060   31.9980 N.3   159  ALA159     -0.1231
     45  CA         0.5890   35.3350   31.2360 C.3   159  ALA159      0.1694
     46  C          1.4870   34.1520   31.5770 C.2   159  ALA159      0.2592
     47  O          1.0180   33.0570   31.8630 O.2   159  ALA159     -0.2718
     48  CB         0.6270   35.6170   29.7410 C.3   159  ALA159      0.0304
     49  N          2.7910   34.3920   31.5540 N.am  160  ASN160     -0.1961
     50  CA         3.7590   33.3540   31.8570 C.3   160  ASN160      0.1804
     51  C          5.0890   34.0060   32.1910 C.2   160  ASN160      0.2463
     52  O          5.7750   34.4520   31.2950 O.2   160  ASN160     -0.2730
     53  CB         3.9110   32.3570   30.6860 C.3   160  ASN160      0.1195
     54  CG         4.3220   33.0140   29.3630 C.2   160  ASN160      0.2630
     55  OD1        3.7580   34.0160   28.9450 O.2   160  ASN160     -0.2716
     56  ND2        5.3070   32.4250   28.6980 N.am  160  ASN160     -0.0877
     57  N          5.4530   34.0680   33.4830 N.am  161  PRO161     -0.2727
     58  CA         4.7840   33.5140   34.6690 C.3   161  PRO161      0.1402
     59  C          3.4230   34.1360   34.9790 C.2   161  PRO161      0.2269
     60  O          3.1650   35.2930   34.6300 O.2   161  PRO161     -0.2865
     61  CB         5.7640   33.8280   35.7980 C.3   161  PRO161      0.0296
     62  CG         6.4900   35.0440   35.3340 C.3   161  PRO161      0.0237
     63  CD         6.6450   34.8550   33.8540 C.3   161  PRO161      0.0939
     64  N          4.6210   27.4710   23.8780 N.3   208  GLU208     -0.1245
     65  CA         4.0490   28.6580   23.2580 C.3   208  GLU208      0.1567
     66  C          4.4620   28.8270   21.7940 C.2   208  GLU208      0.2260
     67  O          5.6100   28.5930   21.4260 O.2   208  GLU208     -0.2867
     68  CB         4.4580   29.9030   24.0540 C.3   208  GLU208      0.0388
     69  CG         3.8910   31.1930   23.4990 C.3   208  GLU208      0.1160
     70  CD         4.1240   32.3910   24.4020 C.2   208  GLU208      0.3649
     71  OE1        4.9400   32.3080   25.3420 O.co2 208  GLU208     -0.2457
     72  OE2        3.4920   33.4380   24.1510 O.co2 208  GLU208     -0.2457
     73  N          5.9500   41.9700   22.4710 N.3   227  TRP227     -0.1241
     74  CA         5.9770   42.5270   23.8170 C.3   227  TRP227      0.1605
     75  C          7.3900   43.0350   24.0470 C.2   227  TRP227      0.2264
     76  O          8.2060   42.9850   23.1360 O.2   227  TRP227     -0.2867
     77  CB         5.5820   41.4910   24.8780 C.3   227  TRP227      0.0550
     78  CG         6.4600   40.2760   24.9050 C.ar  227  TRP227      0.0003
     79  CD1        6.4610   39.2510   24.0050 C.ar  227  TRP227      0.0946
     80  CD2        7.4500   39.9460   25.8880 C.ar  227  TRP227      0.0152
     81  NE1        7.3960   38.3130   24.3570 N.ar  227  TRP227     -0.2442
     82  CE2        8.0180   38.7140   25.5090 C.ar  227  TRP227      0.0810
     83  CE3        7.9180   40.5750   27.0440 C.ar  227  TRP227      0.0012
     84  CZ2        9.0240   38.0970   26.2490 C.ar  227  TRP227      0.0191
     85  CZ3        8.9150   39.9670   27.7730 C.ar  227  TRP227      0.0001
     86  CH2        9.4580   38.7350   27.3750 C.ar  227  TRP227      0.0015
     87  N         12.8390   43.6100   27.7280 N.3   231  GLY231     -0.1225
     88  CA        12.5520   42.5130   28.6350 C.3   231  GLY231      0.1811
     89  C         12.8850   41.1470   28.0550 C.2   231  GLY231      0.2280
     90  O         13.4200   40.2810   28.7510 O.2   231  GLY231     -0.2866
     91  N         15.9280   38.5080   29.4540 N.3   235  GLU235     -0.1245
     92  CA        15.7880   37.1290   29.8930 C.3   235  GLU235      0.1567
     93  C         16.4070   36.1840   28.8750 C.2   235  GLU235      0.2260
     94  O         16.8310   35.0890   29.2240 O.2   235  GLU235     -0.2867
     95  CB        14.3220   36.7750   30.1320 C.3   235  GLU235      0.0388
     96  CG        13.4480   36.8230   28.8960 C.3   235  GLU235      0.1160
     97  CD        12.0050   36.4900   29.2180 C.2   235  GLU235      0.3649
     98  OE1       11.6460   36.6430   30.3940 O.co2 235  GLU235     -0.2457
     99  OE2       11.2370   36.0920   28.3190 O.co2 235  GLU235     -0.2457
    100  N         12.5260   31.5470   32.9230 N.3   294  HIS294     -0.1241
    101  CA        11.2650   32.1230   33.3440 C.3   294  HIS294      0.1621
    102  C         11.0170   31.7290   34.7910 C.2   294  HIS294      0.2264
    103  O         11.3810   30.6310   35.2100 O.2   294  HIS294     -0.2867
    104  CB        10.1190   31.6260   32.4610 C.3   294  HIS294      0.0745
    105  CG         9.6570   32.6140   31.4330 C.ar  294  HIS294      0.0817
    106  ND1        8.3830   32.5880   30.9070 N.ar  294  HIS294     -0.2268
    107  CD2       10.2930   33.6470   30.8310 C.ar  294  HIS294      0.1154
    108  CE1        8.2570   33.5640   30.0240 C.ar  294  HIS294      0.1986
    109  NE2        9.3980   34.2230   29.9620 N.ar  294  HIS294     -0.2212
    110  N         10.3490   26.7090   29.8610 N.3   321  TYR321     -0.1241
    111  CA         9.8340   27.4120   28.7080 C.3   321  TYR321      0.1605
    112  C         10.2690   26.7040   27.4320 C.2   321  TYR321      0.2264
    113  O         11.4090   26.2640   27.3190 O.2   321  TYR321     -0.2867
    114  CB        10.3640   28.8470   28.7290 C.3   321  TYR321      0.0534
    115  CG         9.5160   29.9310   28.0850 C.ar  321  TYR321     -0.0201
    116  CD1        8.2380   29.6840   27.5970 C.ar  321  TYR321     -0.0009
    117  CD2       10.0170   31.2180   27.9780 C.ar  321  TYR321     -0.0009
    118  CE1        7.4870   30.7010   27.0160 C.ar  321  TYR321      0.0417
    119  CE2        9.2910   32.2230   27.4070 C.ar  321  TYR321      0.0417
    120  CZ         8.0270   31.9740   26.9330 C.ar  321  TYR321      0.1957
    121  OH         7.3250   33.0040   26.3680 O.3   321  TYR321     -0.2866
    122  N          9.7250   28.3090   23.9610 N.3   323  TYR323     -0.1241
    123  CA         9.1280   29.4980   23.3740 C.3   323  TYR323      0.1605
    124  C          9.4180   29.6070   21.8910 C.2   323  TYR323      0.2264
    125  O         10.5740   29.6790   21.4880 O.2   323  TYR323     -0.2867
    126  CB         9.6660   30.7420   24.0940 C.3   323  TYR323      0.0534
    127  CG         8.9980   32.0680   23.7620 C.ar  323  TYR323     -0.0201
    128  CD1        7.7010   32.1340   23.2700 C.ar  323  TYR323     -0.0009
    129  CD2        9.6760   33.2590   23.9690 C.ar  323  TYR323     -0.0009
    130  CE1        7.1000   33.3660   22.9890 C.ar  323  TYR323      0.0417
    131  CE2        9.0900   34.4790   23.7010 C.ar  323  TYR323      0.0417
    132  CZ         7.8040   34.5310   23.2050 C.ar  323  TYR323      0.1957
    133  OH         7.2330   35.7610   22.9420 O.3   323  TYR323     -0.2866
    134  N         -1.5940   34.1350   19.7840 N.3   359  ASP359     -0.1239
    135  CA        -0.5550   33.7830   20.7330 C.3   359  ASP359      0.1674
    136  C         -1.0420   32.5280   21.4160 C.2   359  ASP359      0.2266
    137  O         -1.8560   32.5760   22.3270 O.2   359  ASP359     -0.2867
    138  CB        -0.2690   34.8960   21.7320 C.3   359  ASP359      0.1410
    139  CG         1.0260   34.6680   22.4880 C.2   359  ASP359      0.3668
    140  OD1        1.3670   33.4910   22.7250 O.co2 359  ASP359     -0.2456
    141  OD2        1.7080   35.6550   22.8250 O.co2 359  ASP359     -0.2456
    142  N         -0.6350   29.8560   23.8290 N.3   361  LEU361     -0.1245
    143  CA         0.1420   29.7760   25.0530 C.3   361  LEU361      0.1561
    144  C         -0.5050   28.8170   26.0240 C.2   361  LEU361      0.2260
    145  O         -1.6290   29.0260   26.4480 O.2   361  LEU361     -0.2867
    146  CB         0.2760   31.1610   25.6880 C.3   361  LEU361      0.0270
    147  CG         0.8600   31.2030   27.0960 C.3   361  LEU361      0.0019
    148  CD1        2.2180   30.5310   27.1510 C.3   361  LEU361      0.0001
    149  CD2        0.9600   32.6450   27.5710 C.3   361  LEU361      0.0001
    150  N         -0.7530   38.9730   22.5700 N.3   394  THR394     -0.1218
    151  CA         0.2610   38.7230   23.5710 C.3   394  THR394      0.1862
    152  C         -0.0240   39.5860   24.7880 C.2   394  THR394      0.2287
    153  O         -0.0290   39.1110   25.9130 O.2   394  THR394     -0.2866
    154  CB         1.6670   39.0340   23.0530 C.3   394  THR394      0.1770
    155  OG1        1.9150   38.3050   21.8480 O.3   394  THR394     -0.2211
    156  CG2        2.7050   38.6710   24.0900 C.3   394  THR394      0.0375
    157  N         -3.2010   38.5750   27.0190 N.3   397  GLN397     -0.1231
    158  CA        -3.0690   37.4370   27.9230 C.3   397  GLN397      0.1698
    159  C         -2.4050   37.8800   29.2170 C.2   397  GLN397      0.2592
    160  O         -2.7360   37.4070   30.2860 O.2   397  GLN397     -0.2718
    161  CB        -2.2740   36.3140   27.2720 C.3   397  GLN397      0.0381
    162  CG        -2.9970   35.6670   26.1170 C.3   397  GLN397      0.0905
    163  CD        -2.1020   34.7420   25.3250 C.2   397  GLN397      0.2608
    164  OE1       -0.9050   34.9780   25.2020 O.2   397  GLN397     -0.2717
    165  NE2       -2.6810   33.6720   24.7930 N.am  397  GLN397     -0.0878
    166  N         -1.4820   38.8220   29.1020 N.am  398  VAL398     -0.1980
    167  CA        -0.7720   39.3530   30.2550 C.3   398  VAL398      0.1595
    168  C         -1.6410   40.2980   31.0690 C.2   398  VAL398      0.2287
    169  O         -1.7750   40.1420   32.2770 O.2   398  VAL398     -0.2864
    170  CB         0.4870   40.1040   29.8210 C.3   398  VAL398      0.0276
    171  CG1        1.3280   40.5090   31.0340 C.3   398  VAL398      0.0022
    172  CG2        1.2900   39.2490   28.8480 C.3   398  VAL398      0.0022
@<TRIPOS>BOND
     1   134   135    1
     2   135   136    1
     3   135   138    1
     4   136   137    2
     5    67    66    2
     6   125   124    2
     7   138   139    1
     8    66    65    1
     9   155   154    1
    10   124   123    1
    11    73    74    1
    12   139   140   ar
    13   139   141   ar
    14   150   151    1
    15   133   132    1
    16   130   132   ar
    17   130   128   ar
    18   154   151    1
    19   154   156    1
    20    76    75    2
    21   132   131   ar
    22    65    64    1
    23    65    68    1
    24   128   127   ar
    25   123   122    1
    26   123   126    1
    27    69    68    1
    28    69    70    1
    29   151   152    1
    30   131   129   ar
    31   127   129   ar
    32   127   126    1
    33    74    75    1
    34    74    77    1
    35   142   143    1
    36    79    81   ar
    37    79    78   ar
    38    72    70   ar
    39    81    82   ar
    40    70    71   ar
    41   152   153    2
    42   165   163   am
    43    77    78    1
    44    78    80   ar
    45   143   146    1
    46   143   144    1
    47   164   163    2
    48   163   162    1
    49    82    80   ar
    50    82    84   ar
    51   146   147    1
    52    80    83   ar
    53   144   145    2
    54   162   161    1
    55    84    86   ar
    56   121   120    1
    57   120   118   ar
    58   120   119   ar
    59   118   116   ar
    60   157   158    1
    61    83    85   ar
    62   147   148    1
    63   147   149    1
    64   161   158    1
    65   113   112    2
    66    86    85   ar
    67   119   117   ar
    68   112   111    1
    69   116   115   ar
    70    87    88    1
    71   158   159    1
    72   117   115   ar
    73    89    88    1
    74    89    90    2
    75   115   114    1
    76     1     2    1
    77    99    97   ar
    78     8     6    1
    79    56    54   am
    80   111   114    1
    81   111   110    1
    82   172   170    1
    83    93    94    2
    84    93    92    1
    85    96    97    1
    86    96    95    1
    87    55    54    2
    88   166   159   am
    89   166   167    1
    90     2     3    1
    91     2     5    1
    92   159   160    2
    93    97    98   ar
    94     6     5    1
    95    54    53    1
    96    91    92    1
    97    48    45    1
    98   170   167    1
    99   170   171    1
   100    92    95    1
   101     3     4    2
   102   109   108   ar
   103   109   107   ar
   104   108   106   ar
   105     5     7    1
   106   167   168    1
   107    53    50    1
   108   107   105   ar
   109   106   105   ar
   110   168   169    2
   111    45    46    1
   112    45    44    1
   113    52    51    2
   114   105   104    1
   115    49    46   am
   116    49    50    1
   117    46    47    2
   118    50    51    1
   119    51    57   am
   120    35    34    2
   121   104   101    1
   122    36    37    1
   123    36    33    1
   124    34    33    1
   125   100   101    1
   126    37    39   ar
   127    37    38   ar
   128   101   102    1
   129    39    41   ar
   130    57    63    1
   131    57    58    1
   132    33    32    1
   133    38    40   ar
   134    63    62    1
   135    41    42   ar
   136    31    29   ar
   137    14    13    1
   138    40    42   ar
   139    42    43    1
   140    60    59    2
   141    58    59    1
   142    58    61    1
   143    30    29   ar
   144   102   103    2
   145    13    15    1
   146    13    10    1
   147    29    28    1
   148    12    11    2
   149    22    20    1
   150    62    61    1
   151    20    21    1
   152    20    17    1
   153    11    10    1
   154    11    16   am
   155    10     9    1
   156    28    27    1
   157    17    16    1
   158    17    18    1
   159    27    24    1
   160    24    23    1
   161    24    25    1
   162    18    19    2
   163    25    26    2
