@<TRIPOS>MOLECULE
tmp/4tvjA00.pdb
 193 189 0 0 0
SMALL
GASTEIGER

@<TRIPOS>ATOM
      1  N         23.9360   -8.7720    2.8620 N.3    57  TYR57      -0.1241
      2  CA        24.7140   -8.7440    4.1140 C.3    57  TYR57       0.1605
      3  C         26.0940   -9.3110    3.8380 C.2    57  TYR57       0.2264
      4  O         27.1010   -8.8410    4.3900 O.2    57  TYR57      -0.2867
      5  CB        24.0750   -9.5790    5.2070 C.3    57  TYR57       0.0534
      6  CG        22.9530   -8.9250    5.9850 C.ar   57  TYR57      -0.0201
      7  CD1       23.1900   -7.8280    6.8270 C.ar   57  TYR57      -0.0009
      8  CD2       21.6600   -9.4400    5.9250 C.ar   57  TYR57      -0.0009
      9  CE1       22.1360   -7.2590    7.5860 C.ar   57  TYR57       0.0417
     10  CE2       20.6080   -8.8890    6.6760 C.ar   57  TYR57       0.0417
     11  CZ        20.8490   -7.8030    7.4950 C.ar   57  TYR57       0.1957
     12  OH        19.8080   -7.2760    8.2120 O.3    57  TYR57      -0.2866
     13  N         18.2800   -3.9810    7.3580 N.3   113  GLU113     -0.1245
     14  CA        17.2980   -4.3290    8.3990 C.3   113  GLU113      0.1567
     15  C         15.9150   -3.8100    8.0400 C.2   113  GLU113      0.2260
     16  O         14.9320   -4.5370    8.1640 O.2   113  GLU113     -0.2867
     17  CB        17.7860   -3.8520    9.7670 C.3   113  GLU113      0.0388
     18  CG        18.9960   -4.6880   10.1590 C.3   113  GLU113      0.1160
     19  CD        19.6630   -4.3120   11.4460 C.2   113  GLU113      0.3649
     20  OE1       19.3950   -3.1980   11.9810 O.co2 113  GLU113     -0.2457
     21  OE2       20.4380   -5.1860   11.9280 O.co2 113  GLU113     -0.2457
     22  N         12.3850   -5.9110    7.2700 N.3   117  ASP117     -0.1239
     23  CA        11.0970   -5.6530    7.9100 C.3   117  ASP117      0.1674
     24  C          9.9950   -5.3020    6.9210 C.2   117  ASP117      0.2266
     25  O          8.8180   -5.6070    7.1450 O.2   117  ASP117     -0.2867
     26  CB        11.2680   -4.5390    8.9410 C.3   117  ASP117      0.1410
     27  CG        11.9200   -5.0310   10.2220 C.2   117  ASP117      0.3668
     28  OD1       11.8890   -6.2500   10.5100 O.co2 117  ASP117     -0.2456
     29  OD2       12.4720   -4.1980   10.9590 O.co2 117  ASP117     -0.2456
     30  N         13.0560    2.2210   23.2080 N.3   206  HIS206     -0.1226
     31  CA        13.6130    1.7900   21.9310 C.3   206  HIS206      0.1752
     32  C         12.9330    2.5210   20.8210 C.2   206  HIS206      0.2596
     33  O         11.6780    2.5200   20.7640 O.2   206  HIS206     -0.2718
     34  CB        13.4630    0.2700   21.7100 C.3   206  HIS206      0.0759
     35  CG        14.1310   -0.1960   20.4440 C.ar  206  HIS206      0.0818
     36  ND1       15.4390   -0.6460   20.4110 N.ar  206  HIS206     -0.2268
     37  CD2       13.7030   -0.1920   19.1540 C.ar  206  HIS206      0.1154
     38  CE1       15.7720   -0.9240   19.1590 C.ar  206  HIS206      0.1986
     39  NE2       14.7340   -0.6810   18.3780 N.ar  206  HIS206     -0.2212
     40  N         13.7330    3.1740   19.9610 N.am  207  GLY207     -0.1957
     41  CA        13.2200    3.8960   18.8090 C.3   207  GLY207      0.1869
     42  C         13.5990    3.1650   17.5120 C.2   207  GLY207      0.2309
     43  O         14.6720    2.6010   17.4050 O.2   207  GLY207     -0.2863
     44  N          8.8570   -5.4630   13.9740 N.3   216  ILE216     -0.1245
     45  CA         9.1890   -5.4950   15.3980 C.3   216  ILE216      0.1561
     46  C          8.0080   -6.0760   16.1840 C.2   216  ILE216      0.2260
     47  O          8.2070   -6.8070   17.1120 O.2   216  ILE216     -0.2867
     48  CB         9.6220   -4.1100   15.9250 C.3   216  ILE216      0.0252
     49  CG1       10.9590   -3.7220   15.2860 C.3   216  ILE216      0.0019
     50  CG2        9.7270   -4.0870   17.5140 C.3   216  ILE216      0.0019
     51  CD1       11.3500   -2.2040   15.4210 C.3   216  ILE216      0.0001
     52  N         11.8100   -7.6270   18.8350 N.3   221  LEU221     -0.1231
     53  CA        13.1260   -7.0720   18.6540 C.3   221  LEU221      0.1693
     54  C         14.0380   -8.2980   18.5230 C.2   221  LEU221      0.2592
     55  O         13.9310   -9.2210   19.3170 O.2   221  LEU221     -0.2718
     56  CB        13.5280   -6.2020   19.8410 C.3   221  LEU221      0.0284
     57  CG        12.7590   -4.8850   19.9020 C.3   221  LEU221      0.0019
     58  CD1       12.9760   -4.2410   21.2540 C.3   221  LEU221      0.0001
     59  CD2       13.1410   -3.8970   18.7200 C.3   221  LEU221      0.0001
     60  N         14.8760   -8.3290   17.4940 N.am  222  ARG222     -0.1966
     61  CA        15.6670   -9.5490   17.1760 C.3   222  ARG222      0.1729
     62  C         17.1560   -9.2350   17.1770 C.2   222  ARG222      0.2616
     63  O         17.5710   -8.0750   17.0020 O.2   222  ARG222     -0.2715
     64  CB        15.2810  -10.1370   15.8190 C.3   222  ARG222      0.0348
     65  CG        13.8720  -10.7580   15.6480 C.3   222  ARG222      0.0492
     66  CD        13.2880  -10.4070   14.2020 C.3   222  ARG222      0.2205
     67  NE        12.7500   -9.0240   14.1850 N.pl3 222  ARG222     -0.0865
     68  CZ        12.5060   -8.2570   13.1090 C.cat 222  ARG222      0.5346
     69  NH1       12.7220   -8.6880   11.8880 N.pl3 222  ARG222      0.1354
     70  NH2       12.0680   -7.0100   13.2620 N.pl3 222  ARG222      0.1354
     71  N         17.9310  -10.2860   17.4070 N.am  223  ILE223     -0.1963
     72  CA        19.3850  -10.3200   17.2790 C.3   223  ILE223      0.1727
     73  C         19.7630  -10.1880   15.7930 C.2   223  ILE223      0.2616
     74  O         19.1760  -10.8270   14.9670 O.2   223  ILE223     -0.2715
     75  CB        19.8850  -11.6840   17.7980 C.3   223  ILE223      0.0290
     76  CG1       19.5010  -11.8770   19.2850 C.3   223  ILE223      0.0022
     77  CG2       21.4110  -11.8790   17.6230 C.3   223  ILE223      0.0023
     78  CD1       19.9370  -10.6630   20.1900 C.3   223  ILE223      0.0001
     79  N         20.7320   -9.3340   15.4820 N.am  224  ALA224     -0.1963
     80  CA        21.0340   -8.9340   14.0840 C.3   224  ALA224      0.1728
     81  C         21.4680  -10.1730   13.2960 C.2   224  ALA224      0.2616
     82  O         21.9420  -11.1490   13.8570 O.2   224  ALA224     -0.2715
     83  CB        22.1610   -7.8300   14.0600 C.3   224  ALA224      0.0334
     84  N         21.2580  -10.1290   11.9920 N.am  225  HIS225     -0.1973
     85  CA        21.6880  -11.2060   11.0990 C.3   225  HIS225      0.1656
     86  C         23.1280  -11.6560   11.3680 C.2   225  HIS225      0.2291
     87  O         24.0150  -10.8260   11.5990 O.2   225  HIS225     -0.2864
     88  CB        21.5660  -10.7600    9.6300 C.3   225  HIS225      0.0771
     89  CG        21.5420  -11.8980    8.6730 C.ar  225  HIS225      0.0820
     90  ND1       22.6730  -12.6030    8.3310 N.ar  225  HIS225     -0.2267
     91  CD2       20.5190  -12.4820    8.0130 C.ar  225  HIS225      0.1154
     92  CE1       22.3470  -13.5850    7.5080 C.ar  225  HIS225      0.1986
     93  NE2       21.0460  -13.5260    7.2890 N.ar  225  HIS225     -0.2212
     94  N         29.2150   -2.9260   12.6150 N.3   232  GLY232     -0.1210
     95  CA        28.0130   -2.1180   12.6430 C.3   232  GLY232      0.1956
     96  C         27.4080   -1.9590   14.0530 C.2   232  GLY232      0.2612
     97  O         26.4620   -1.2100   14.2470 O.2   232  GLY232     -0.2717
     98  N         27.9470   -2.6660   15.0270 N.am  233  TYR233     -0.1962
     99  CA        27.3160   -2.8070   16.3360 C.3   233  TYR233      0.1771
    100  C         28.2620   -2.3940   17.4340 C.2   233  TYR233      0.2619
    101  O         29.1770   -3.1470   17.7790 O.2   233  TYR233     -0.2715
    102  CB        26.8500   -4.2520   16.5400 C.3   233  TYR233      0.0574
    103  CG        25.8910   -4.6140   15.4730 C.ar  233  TYR233     -0.0198
    104  CD1       24.5050   -4.4630   15.6490 C.ar  233  TYR233     -0.0009
    105  CD2       26.3570   -5.0900   14.2250 C.ar  233  TYR233     -0.0009
    106  CE1       23.6190   -4.7810   14.6120 C.ar  233  TYR233      0.0417
    107  CE2       25.4700   -5.4150   13.2230 C.ar  233  TYR233      0.0417
    108  CZ        24.1190   -5.2550   13.3950 C.ar  233  TYR233      0.1957
    109  OH        23.2810   -5.5850   12.3310 O.3   233  TYR233     -0.2866
    110  N         28.0240   -1.2030   17.9930 N.am  234  MET234     -0.1977
    111  CA        28.9020   -0.6170   19.0080 C.3   234  MET234      0.1605
    112  C         29.2070   -1.5310   20.2040 C.2   234  MET234      0.2287
    113  O         30.3250   -1.4880   20.7650 O.2   234  MET234     -0.2864
    114  CB        28.3170    0.7090   19.4970 C.3   234  MET234      0.0413
    115  CG        29.2080    1.3990   20.5530 C.3   234  MET234      0.0598
    116  SD        28.6180    3.0200   21.1260 S.3   234  MET234     -0.1393
    117  CE        28.3770    3.8880   19.5640 C.3   234  MET234      0.0692
    118  N         23.2190   -7.2070   19.9420 N.3   238  GLY238     -0.1210
    119  CA        22.1700   -7.3270   20.9600 C.3   238  GLY238      0.1956
    120  C         20.9780   -6.4420   20.6330 C.2   238  GLY238      0.2612
    121  O         20.8430   -5.9170   19.5110 O.2   238  GLY238     -0.2717
    122  N         20.1230   -6.2670   21.6430 N.am  239  ILE239     -0.1965
    123  CA        18.9640   -5.4220   21.5580 C.3   239  ILE239      0.1727
    124  C         19.2940   -4.2190   22.4360 C.2   239  ILE239      0.2616
    125  O         19.6240   -4.3640   23.6070 O.2   239  ILE239     -0.2715
    126  CB        17.7000   -6.1590   22.0260 C.3   239  ILE239      0.0290
    127  CG1       17.5260   -7.4550   21.2000 C.3   239  ILE239      0.0022
    128  CG2       16.5060   -5.2930   21.8810 C.3   239  ILE239      0.0023
    129  CD1       16.4970   -8.3980   21.7280 C.3   239  ILE239      0.0001
    130  N         19.2310   -3.0410   21.8200 N.am  240  TYR240     -0.1960
    131  CA        19.7060   -1.8080   22.4040 C.3   240  TYR240      0.1771
    132  C         18.5780   -0.9500   22.9610 C.2   240  TYR240      0.2620
    133  O         17.5030   -0.8480   22.3630 O.2   240  TYR240     -0.2715
    134  CB        20.4610   -1.0080   21.3670 C.3   240  TYR240      0.0574
    135  CG        21.8270   -1.5360   21.0340 C.ar  240  TYR240     -0.0198
    136  CD1       21.9950   -2.8220   20.5070 C.ar  240  TYR240     -0.0009
    137  CD2       22.9410   -0.7580   21.2050 C.ar  240  TYR240     -0.0009
    138  CE1       23.2360   -3.3000   20.1950 C.ar  240  TYR240      0.0417
    139  CE2       24.1920   -1.2250   20.8810 C.ar  240  TYR240      0.0417
    140  CZ        24.3480   -2.4880   20.3580 C.ar  240  TYR240      0.1957
    141  OH        25.6260   -2.9400   20.0150 O.3   240  TYR240     -0.2866
    142  N         18.8330   -0.3720   24.1300 N.am  241  PHE241     -0.1960
    143  CA        17.8480    0.4520   24.8470 C.3   241  PHE241      0.1771
    144  C         18.5060    1.7170   25.4160 C.2   241  PHE241      0.2619
    145  O         19.6990    1.7510   25.6780 O.2   241  PHE241     -0.2715
    146  CB        17.1920   -0.3700   25.9730 C.3   241  PHE241      0.0574
    147  CG        16.4310   -1.5630   25.4850 C.ar  241  PHE241     -0.0200
    148  CD1       15.1340   -1.4350   25.0160 C.ar  241  PHE241     -0.0042
    149  CD2       17.0000   -2.8070   25.4730 C.ar  241  PHE241     -0.0042
    150  CE1       14.4120   -2.5280   24.5950 C.ar  241  PHE241     -0.0003
    151  CE2       16.2870   -3.8930   25.0180 C.ar  241  PHE241     -0.0003
    152  CZ        14.9970   -3.7530   24.5830 C.ar  241  PHE241     -0.0000
    153  N         17.7150    2.7600   25.5660 N.am  242  ALA242     -0.1977
    154  CA        18.1390    3.9740   26.2680 C.3   242  ALA242      0.1597
    155  C         17.2510    4.2450   27.5020 C.2   242  ALA242      0.2287
    156  O         16.0920    3.8250   27.5670 O.2   242  ALA242     -0.2864
    157  CB        18.1120    5.1570   25.3270 C.3   242  ALA242      0.0319
    158  N         17.3320    9.9080   22.9980 N.3   247  LYS247     -0.1231
    159  CA        18.4130    9.1180   22.4170 C.3   247  LYS247      0.1693
    160  C         17.7860    8.0260   21.5380 C.2   247  LYS247      0.2592
    161  O         18.2500    7.7730   20.4020 O.2   247  LYS247     -0.2718
    162  CB        19.3020    8.5120   23.5010 C.3   247  LYS247      0.0285
    163  CG        20.3910    7.5980   22.9510 C.3   247  LYS247      0.0035
    164  CD        21.4760    7.2580   23.9580 C.3   247  LYS247      0.0206
    165  CE        22.4260    6.2170   23.3960 C.3   247  LYS247      0.1093
    166  NZ        23.5700    5.9180   24.3040 N.3   247  LYS247     -0.1314
    167  N         16.6980    7.4280   22.0350 N.am  248  SER248     -0.1952
    168  CA        15.9690    6.4240   21.2510 C.3   248  SER248      0.1924
    169  C         15.1480    7.0740   20.1530 C.2   248  SER248      0.2314
    170  O         15.0970    6.5790   19.0150 O.2   248  SER248     -0.2863
    171  CB        15.0700    5.5490   22.1580 C.3   248  SER248      0.2116
    172  OG        15.8020    4.6360   22.9740 O.3   248  SER248     -0.2180
    173  N         16.4940    7.6130   16.7150 N.3   251  TYR251     -0.1241
    174  CA        16.4290    6.4550   15.7720 C.3   251  TYR251      0.1605
    175  C         15.0930    6.2430   15.1110 C.2   251  TYR251      0.2264
    176  O         14.9370    5.2950   14.3390 O.2   251  TYR251     -0.2867
    177  CB        16.8770    5.1660   16.4780 C.3   251  TYR251      0.0534
    178  CG        18.3350    5.2430   16.8460 C.ar  251  TYR251     -0.0201
    179  CD1       19.3280    4.9430   15.9110 C.ar  251  TYR251     -0.0009
    180  CD2       18.7250    5.6670   18.0980 C.ar  251  TYR251     -0.0009
    181  CE1       20.6530    5.0310   16.2300 C.ar  251  TYR251      0.0417
    182  CE2       20.0510    5.7540   18.4340 C.ar  251  TYR251      0.0417
    183  CZ        21.0050    5.4340   17.4850 C.ar  251  TYR251      0.1957
    184  OH        22.3100    5.5040   17.8300 O.3   251  TYR251     -0.2866
    185  N         23.6160    3.4590   27.3440 N.3   336  GLU336     -0.1245
    186  CA        22.8100    2.5240   26.5650 C.3   336  GLU336      0.1567
    187  C         22.9680    1.1520   27.1690 C.2   336  GLU336      0.2260
    188  O         24.0010    0.8390   27.7660 O.2   336  GLU336     -0.2867
    189  CB        23.1600    2.5240   25.0700 C.3   336  GLU336      0.0388
    190  CG        24.6170    2.2570   24.6750 C.3   336  GLU336      0.1160
    191  CD        24.8740    2.7590   23.2390 C.2   336  GLU336      0.3649
    192  OE1       24.9890    1.9600   22.2780 O.co2 336  GLU336     -0.2457
    193  OE2       24.8610    3.9810   23.0610 O.co2 336  GLU336     -0.2457
@<TRIPOS>BOND
     1     1     2    1
     2     3     2    1
     3     3     4    2
     4     2     5    1
     5     5     6    1
     6     8     6   ar
     7     8    10   ar
     8     6     7   ar
     9    10    11   ar
    10     7     9   ar
    11    24    25    2
    12    24    23    1
    13    22    23    1
    14    93    92   ar
    15    93    91   ar
    16    13    14    1
    17    11     9   ar
    18    11    12    1
    19    92    90   ar
    20    23    26    1
    21    91    89   ar
    22    15    16    2
    23    15    14    1
    24    90    89   ar
    25    14    17    1
    26    89    88    1
    27    26    27    1
    28    88    85    1
    29    17    18    1
    30    18    19    1
    31    27    28   ar
    32    27    29   ar
    33    85    86    1
    34    85    84    1
    35    86    87    2
    36    19    21   ar
    37    19    20   ar
    38    69    68    1
    39    84    81   am
    40   109   108    1
    41    94    95    1
    42    95    96    1
    43    68    70    1
    44    68    67    2
    45   107   108   ar
    46   107   105   ar
    47    81    82    2
    48    81    80    1
    49   108   106   ar
    50    44    45    1
    51    96    97    2
    52    96    98   am
    53    83    80    1
    54    80    79    1
    55    67    66    1
    56    66    65    1
    57   105   103   ar
    58   176   175    2
    59   106   104   ar
    60    74    73    2
    61    98    99    1
    62   175   174    1
    63    49    51    1
    64    49    48    1
    65    45    48    1
    66    45    46    1
    67   103   104   ar
    68   103   102    1
    69    79    73   am
    70    65    64    1
    71   174   177    1
    72   174   173    1
    73    73    72    1
    74    64    61    1
    75   179   181   ar
    76   179   178   ar
    77    48    50    1
    78    46    47    2
    79   181   183   ar
    80    99   102    1
    81    99   100    1
    82   177   178    1
    83   178   180   ar
    84    63    62    2
    85    61    62    1
    86    61    60    1
    87    62    71   am
    88    72    71    1
    89    72    75    1
    90    43    42    2
    91   100   101    2
    92   100   110   am
    93   183   184    1
    94   183   182   ar
    95    60    54   am
    96    42    41    1
    97    77    75    1
    98    75    76    1
    99   110   111    1
   100   180   182   ar
   101    39    37   ar
   102    39    38   ar
   103    54    53    1
   104    54    55    2
   105    53    52    1
   106    53    56    1
   107    59    57    1
   108    41    40    1
   109   111   114    1
   110   111   112    1
   111   170   169    2
   112    37    35   ar
   113    38    36   ar
   114    76    78    1
   115   114   115    1
   116   121   120    2
   117   117   116    1
   118    56    57    1
   119    57    58    1
   120   118   119    1
   121    40    32   am
   122   141   140    1
   123   169   168    1
   124   138   140   ar
   125   138   136   ar
   126   112   113    2
   127   140   139   ar
   128   161   160    2
   129    36    35   ar
   130    35    34    1
   131   136   135   ar
   132   115   116    1
   133   120   119    1
   134   120   122   am
   135    33    32    2
   136    32    31    1
   137   139   137   ar
   138   135   137   ar
   139   135   134    1
   140   127   129    1
   141   127   126    1
   142   168   167    1
   143   168   171    1
   144   134   131    1
   145   160   167   am
   146   160   159    1
   147   123   122    1
   148   123   126    1
   149   123   124    1
   150    34    31    1
   151   130   131    1
   152   130   124   am
   153   128   126    1
   154    31    30    1
   155   171   172    1
   156   192   191   ar
   157   133   132    2
   158   131   132    1
   159   159   158    1
   160   159   162    1
   161   124   125    2
   162   163   162    1
   163   163   164    1
   164   132   142   am
   165   193   191   ar
   166   191   190    1
   167   165   164    1
   168   165   166    1
   169   142   143    1
   170   152   150   ar
   171   152   151   ar
   172   150   148   ar
   173   190   189    1
   174   143   144    1
   175   143   146    1
   176   148   147   ar
   177   151   149   ar
   178   189   186    1
   179   157   154    1
   180   144   153   am
   181   144   145    2
   182   149   147   ar
   183   147   146    1
   184   153   154    1
   185   154   155    1
   186   186   187    1
   187   186   185    1
   188   187   188    2
   189   155   156    2
