@<TRIPOS>MOLECULE
tmp/4tvkA00.pdb
 254 255 0 0 0
SMALL
GASTEIGER

@<TRIPOS>ATOM
      1  N        -63.6450   32.9670  -43.5840 N.3    69  TYR69      -0.1241
      2  CA       -63.1990   32.7220  -44.9470 C.3    69  TYR69       0.1605
      3  C        -62.6390   31.3410  -45.0080 C.2    69  TYR69       0.2264
      4  O        -61.8950   30.9480  -44.1220 O.2    69  TYR69      -0.2867
      5  CB       -62.1450   33.7500  -45.3710 C.3    69  TYR69       0.0534
      6  CG       -61.5460   33.5330  -46.7670 C.ar   69  TYR69      -0.0201
      7  CD1      -62.1170   34.0940  -47.9270 C.ar   69  TYR69      -0.0009
      8  CD2      -60.4240   32.7420  -46.9140 C.ar   69  TYR69      -0.0009
      9  CE1      -61.5330   33.8870  -49.1940 C.ar   69  TYR69       0.0417
     10  CE2      -59.8550   32.4960  -48.1660 C.ar   69  TYR69       0.0417
     11  CZ       -60.3830   33.0860  -49.2930 C.ar   69  TYR69       0.1957
     12  OH       -59.7340   32.7820  -50.4780 O.3    69  TYR69      -0.2866
     13  N        -60.3660   28.6530  -47.2530 N.3    71  ASP71      -0.1239
     14  CA       -59.2350   28.6200  -48.2050 C.3    71  ASP71       0.1674
     15  C        -59.6650   27.6570  -49.3220 C.2    71  ASP71       0.2266
     16  O        -59.9120   26.4730  -49.0660 O.2    71  ASP71      -0.2867
     17  CB       -57.9750   28.0610  -47.5030 C.3    71  ASP71       0.1410
     18  CG       -56.7560   27.8450  -48.4390 C.2    71  ASP71       0.3668
     19  OD1      -56.8200   28.1340  -49.6300 O.co2  71  ASP71      -0.2456
     20  OD2      -55.6860   27.4010  -47.9730 O.co2  71  ASP71      -0.2456
     21  N        -53.5000   22.3510  -47.3290 N.3    80  SER80      -0.1217
     22  CA       -54.3200   23.5570  -47.0920 C.3    80  SER80       0.1889
     23  C        -55.5940   23.2530  -46.2990 C.2    80  SER80       0.2288
     24  O        -56.0750   24.0350  -45.4780 O.2    80  SER80      -0.2866
     25  CB       -54.7430   24.1730  -48.4380 C.3    80  SER80       0.2089
     26  OG       -55.2320   23.1420  -49.2410 O.3    80  SER80      -0.2183
     27  N        -56.2550   23.1470  -42.4450 N.3    83  TRP83      -0.1227
     28  CA       -56.4550   24.4080  -41.7260 C.3    83  TRP83       0.1737
     29  C        -57.8430   24.9440  -41.7840 C.2    83  TRP83       0.2595
     30  O        -58.1500   25.8640  -41.0600 O.2    83  TRP83      -0.2718
     31  CB       -55.4620   25.5210  -42.2020 C.3    83  TRP83       0.0564
     32  CG       -54.0070   25.0620  -42.2070 C.ar   83  TRP83       0.0003
     33  CD1      -53.2410   24.7010  -43.2920 C.ar   83  TRP83       0.0946
     34  CD2      -53.1820   24.8790  -41.0780 C.ar   83  TRP83       0.0152
     35  NE1      -51.9930   24.3380  -42.8990 N.ar   83  TRP83      -0.2442
     36  CE2      -51.9240   24.4460  -41.5360 C.ar   83  TRP83       0.0810
     37  CE3      -53.3670   25.0480  -39.7180 C.ar   83  TRP83       0.0012
     38  CZ2      -50.8700   24.1740  -40.6650 C.ar   83  TRP83       0.0191
     39  CZ3      -52.2910   24.7910  -38.8570 C.ar   83  TRP83       0.0001
     40  CH2      -51.0790   24.3760  -39.3310 C.ar   83  TRP83       0.0015
     41  N        -58.6850   24.4180  -42.6550 N.am   84  ASN84      -0.1974
     42  CA       -60.0280   24.9430  -42.7900 C.3    84  ASN84       0.1688
     43  C        -60.9500   24.3010  -41.7210 C.2    84  ASN84       0.2292
     44  O        -60.6900   23.2080  -41.2470 O.2    84  ASN84      -0.2864
     45  CB       -60.5850   24.5220  -44.1520 C.3    84  ASN84       0.1181
     46  CG       -60.1160   25.3950  -45.3280 C.2    84  ASN84       0.2629
     47  OD1      -59.8730   26.6300  -45.2470 O.2    84  ASN84      -0.2716
     48  ND2      -60.0860   24.7450  -46.4790 N.am   84  ASN84      -0.0877
     49  N        -54.1350   30.0810  -34.1470 N.3   116  GLY116     -0.1210
     50  CA       -53.8730   31.0840  -35.1840 C.3   116  GLY116      0.1956
     51  C        -54.8070   31.0860  -36.3670 C.2   116  GLY116      0.2612
     52  O        -55.8920   30.4330  -36.3760 O.2   116  GLY116     -0.2717
     53  N        -54.3740   31.8360  -37.3850 N.am  117  GLY117     -0.1942
     54  CA       -55.1680   32.1270  -38.5920 C.3   117  GLY117      0.2017
     55  C        -55.4040   33.5840  -38.9210 C.2   117  GLY117      0.2678
     56  O        -56.4740   33.9550  -39.3750 O.2   117  GLY117     -0.2710
     57  N        -54.4270   34.4160  -38.6460 N.am  118  GLY118     -0.1729
     58  CA       -54.4300   35.8450  -38.9810 C.2   118  GLY118      0.1340
     59  C        -55.5540   36.6650  -38.5030 C.2   118  GLY118      0.2521
     60  O        -55.8560   37.8130  -39.0280 O.2   118  GLY118     -0.2816
     61  N        -58.5650   36.0480  -38.8550 N.3   120  TYR120     -0.1227
     62  CA       -59.7720   35.9590  -39.6910 C.3   120  TYR120      0.1736
     63  C        -60.2050   34.5560  -39.9090 C.2   120  TYR120      0.2596
     64  O        -61.2170   34.2970  -40.5820 O.2   120  TYR120     -0.2718
     65  CB       -59.5170   36.6330  -41.0950 C.3   120  TYR120      0.0548
     66  CG       -58.5550   35.8620  -41.9250 C.ar  120  TYR120     -0.0200
     67  CD1      -58.9890   34.8100  -42.7060 C.ar  120  TYR120     -0.0009
     68  CD2      -57.2040   36.1510  -41.8830 C.ar  120  TYR120     -0.0009
     69  CE1      -58.0980   34.0360  -43.4190 C.ar  120  TYR120      0.0417
     70  CE2      -56.2900   35.4240  -42.6000 C.ar  120  TYR120      0.0417
     71  CZ       -56.7730   34.3950  -43.3990 C.ar  120  TYR120      0.1957
     72  OH       -55.9400   33.6310  -44.1150 O.3   120  TYR120     -0.2866
     73  N        -59.4120   33.6190  -39.4240 N.am  121  SER121     -0.1952
     74  CA       -59.7470   32.2260  -39.5360 C.3   121  SER121      0.1924
     75  C        -59.1850   31.4350  -38.3400 C.2   121  SER121      0.2314
     76  O        -58.3670   31.9300  -37.5700 O.2   121  SER121     -0.2863
     77  CB       -59.1300   31.6800  -40.8260 C.3   121  SER121      0.2116
     78  OG       -57.7000   31.6470  -40.7620 O.3   121  SER121     -0.2180
     79  N        -54.6290   20.0010  -33.9860 N.3   129  TYR129     -0.1241
     80  CA       -54.7900   20.5430  -32.6110 C.3   129  TYR129      0.1605
     81  C        -55.4830   19.5300  -31.6540 C.2   129  TYR129      0.2264
     82  O        -56.0340   19.9180  -30.6230 O.2   129  TYR129     -0.2867
     83  CB       -55.6330   21.8290  -32.6290 C.3   129  TYR129      0.0534
     84  CG       -55.2090   22.9720  -33.5140 C.ar  129  TYR129     -0.0201
     85  CD1      -53.8860   23.1980  -33.8450 C.ar  129  TYR129     -0.0009
     86  CD2      -56.1490   23.8450  -34.0000 C.ar  129  TYR129     -0.0009
     87  CE1      -53.5320   24.2590  -34.6650 C.ar  129  TYR129      0.0417
     88  CE2      -55.7950   24.9380  -34.7410 C.ar  129  TYR129      0.0417
     89  CZ       -54.4900   25.1060  -35.1240 C.ar  129  TYR129      0.1957
     90  OH       -54.1920   26.2280  -35.8910 O.3   129  TYR129     -0.2866
     91  N        -49.9870   29.6890  -31.6350 N.3   198  GLU198     -0.1231
     92  CA       -49.1900   29.9100  -32.8570 C.3   198  GLU198      0.1699
     93  C        -49.7600   30.9480  -33.7770 C.2   198  GLU198      0.2592
     94  O        -50.9910   31.1160  -33.9190 O.2   198  GLU198     -0.2718
     95  CB       -49.0080   28.5830  -33.5940 C.3   198  GLU198      0.0402
     96  CG       -47.9690   28.6180  -34.7130 C.3   198  GLU198      0.1161
     97  CD       -48.5880   28.8930  -36.0800 C.2   198  GLU198      0.3649
     98  OE1      -49.8430   29.0390  -36.1810 O.co2 198  GLU198     -0.2457
     99  OE2      -47.7860   28.9800  -37.0220 O.co2 198  GLU198     -0.2457
    100  N        -48.8630   31.7140  -34.3660 N.am  199  SER199     -0.1952
    101  CA       -49.2620   32.7090  -35.3370 C.3   199  SER199      0.1924
    102  C        -50.1320   33.7690  -34.6230 C.2   199  SER199      0.2314
    103  O        -49.7220   34.2940  -33.6500 O.2   199  SER199     -0.2863
    104  CB       -49.9380   32.0880  -36.5950 C.3   199  SER199      0.2116
    105  OG       -49.8180   33.0310  -37.7090 O.3   199  SER199     -0.2180
    106  N        -62.0380   41.1940  -47.7740 N.3   278  TRP278     -0.1241
    107  CA       -60.6620   41.3170  -48.2640 C.3   278  TRP278      0.1605
    108  C        -60.5520   42.5750  -49.0860 C.2   278  TRP278      0.2264
    109  O        -59.4610   43.0290  -49.3080 O.2   278  TRP278     -0.2867
    110  CB       -60.2040   40.0620  -49.0300 C.3   278  TRP278      0.0550
    111  CG       -59.9740   38.8550  -48.1120 C.ar  278  TRP278      0.0003
    112  CD1      -60.8210   37.8050  -47.9120 C.ar  278  TRP278      0.0946
    113  CD2      -58.8400   38.6290  -47.2570 C.ar  278  TRP278      0.0152
    114  NE1      -60.2860   36.9400  -46.9990 N.ar  278  TRP278     -0.2442
    115  CE2      -59.0640   37.4110  -46.5870 C.ar  278  TRP278      0.0810
    116  CE3      -57.6430   39.3330  -47.0040 C.ar  278  TRP278      0.0012
    117  CZ2      -58.1340   36.8700  -45.6780 C.ar  278  TRP278      0.0191
    118  CZ3      -56.7120   38.7910  -46.0900 C.ar  278  TRP278      0.0001
    119  CH2      -56.9700   37.5730  -45.4470 C.ar  278  TRP278      0.0015
    120  N        -49.1090   41.3220  -49.0700 N.3   286  ILE286     -0.1231
    121  CA       -49.2710   40.0600  -48.3610 C.3   286  ILE286      0.1692
    122  C        -48.9010   40.1310  -46.7900 C.2   286  ILE286      0.2592
    123  O        -48.3150   41.1270  -46.2080 O.2   286  ILE286     -0.2718
    124  CB       -48.3320   39.0630  -49.0230 C.3   286  ILE286      0.0266
    125  CG1      -46.9250   39.3820  -48.5970 C.3   286  ILE286      0.0019
    126  CG2      -48.4450   39.1640  -50.5410 C.3   286  ILE286      0.0020
    127  CD1      -45.8720   38.4710  -49.1330 C.3   286  ILE286      0.0001
    128  N        -49.1920   39.0180  -46.1240 N.am  287  PHE287     -0.1962
    129  CA       -49.1290   38.9310  -44.6710 C.3   287  PHE287      0.1771
    130  C        -49.8490   40.1240  -44.0700 C.2   287  PHE287      0.2619
    131  O        -49.3670   40.6810  -43.0640 O.2   287  PHE287     -0.2715
    132  CB       -47.6950   38.8420  -44.1480 C.3   287  PHE287      0.0574
    133  CG       -47.5520   37.9560  -42.8810 C.ar  287  PHE287     -0.0200
    134  CD1      -48.4700   38.0570  -41.7560 C.ar  287  PHE287     -0.0042
    135  CD2      -46.4890   37.0250  -42.7760 C.ar  287  PHE287     -0.0042
    136  CE1      -48.3230   37.2500  -40.6430 C.ar  287  PHE287     -0.0003
    137  CE2      -46.3580   36.2280  -41.6190 C.ar  287  PHE287     -0.0003
    138  CZ       -47.2740   36.3470  -40.5600 C.ar  287  PHE287     -0.0000
    139  N        -50.9690   40.5610  -44.6700 N.am  288  ARG288     -0.1963
    140  CA       -51.8670   41.5450  -43.9270 C.3   288  ARG288      0.1729
    141  C        -53.3520   41.1360  -43.9340 C.2   288  ARG288      0.2616
    142  O        -53.8890   40.6050  -44.9290 O.2   288  ARG288     -0.2715
    143  CB       -51.7180   43.0400  -44.3320 C.3   288  ARG288      0.0348
    144  CG       -50.3220   43.6400  -44.1650 C.3   288  ARG288      0.0492
    145  CD       -50.0140   44.2290  -42.7780 C.3   288  ARG288      0.2205
    146  NE       -48.6850   44.8400  -42.7960 N.pl3 288  ARG288     -0.0865
    147  CZ       -47.5350   44.1600  -42.7440 C.cat 288  ARG288      0.5346
    148  NH1      -47.5410   42.8450  -42.6230 N.pl3 288  ARG288      0.1354
    149  NH2      -46.3500   44.7980  -42.7990 N.pl3 288  ARG288      0.1354
    150  N        -53.9820   41.3530  -42.7880 N.am  289  PHE289     -0.1974
    151  CA       -55.2990   40.8230  -42.5520 C.3   289  PHE289      0.1639
    152  C        -56.1840   41.9480  -42.2890 C.2   289  PHE289      0.2290
    153  O        -55.7060   42.9830  -41.8380 O.2   289  PHE289     -0.2864
    154  CB       -55.2760   39.8910  -41.4050 C.3   289  PHE289      0.0560
    155  CG       -54.1420   38.9280  -41.4810 C.ar  289  PHE289     -0.0200
    156  CD1      -54.0370   38.0830  -42.6080 C.ar  289  PHE289     -0.0042
    157  CD2      -53.1100   38.9350  -40.5150 C.ar  289  PHE289     -0.0042
    158  CE1      -52.9380   37.2070  -42.7220 C.ar  289  PHE289     -0.0003
    159  CE2      -52.0230   38.0330  -40.6140 C.ar  289  PHE289     -0.0003
    160  CZ       -51.9340   37.1520  -41.7150 C.ar  289  PHE289     -0.0000
    161  N        -45.1100   30.5290  -46.9640 N.3   329  PHE329     -0.1227
    162  CA       -46.5730   30.3610  -47.0890 C.3   329  PHE329      0.1736
    163  C        -47.2590   31.5550  -47.7500 C.2   329  PHE329      0.2595
    164  O        -48.0720   31.4250  -48.6960 O.2   329  PHE329     -0.2718
    165  CB       -47.1570   29.9720  -45.7110 C.3   329  PHE329      0.0547
    166  CG       -48.5780   30.4360  -45.4240 C.ar  329  PHE329     -0.0202
    167  CD1      -49.6210   30.1600  -46.2850 C.ar  329  PHE329     -0.0042
    168  CD2      -48.8640   31.0860  -44.2040 C.ar  329  PHE329     -0.0042
    169  CE1      -50.9290   30.5580  -45.9980 C.ar  329  PHE329     -0.0003
    170  CE2      -50.1550   31.4760  -43.8960 C.ar  329  PHE329     -0.0003
    171  CZ       -51.1920   31.2240  -44.8070 C.ar  329  PHE329     -0.0000
    172  N        -46.8980   32.7250  -47.2630 N.am  330  PHE330     -0.1976
    173  CA       -47.4980   33.9410  -47.6850 C.3   330  PHE330      0.1639
    174  C        -47.0720   34.2870  -49.1170 C.2   330  PHE330      0.2290
    175  O        -47.8200   34.9490  -49.7760 O.2   330  PHE330     -0.2864
    176  CB       -47.0870   35.0860  -46.7300 C.3   330  PHE330      0.0560
    177  CG       -47.3810   34.7910  -45.3150 C.ar  330  PHE330     -0.0200
    178  CD1      -48.6370   34.9870  -44.8200 C.ar  330  PHE330     -0.0042
    179  CD2      -46.4300   34.1720  -44.5220 C.ar  330  PHE330     -0.0042
    180  CE1      -48.9200   34.6620  -43.4930 C.ar  330  PHE330     -0.0003
    181  CE2      -46.6980   33.8550  -43.2190 C.ar  330  PHE330     -0.0003
    182  CZ       -47.9570   34.0990  -42.6930 C.ar  330  PHE330     -0.0000
    183  N        -49.2210   31.9460  -51.5680 N.3   333  TYR333     -0.1227
    184  CA       -50.5970   32.3880  -51.6320 C.3   333  TYR333      0.1736
    185  C        -50.7490   33.8070  -52.2180 C.2   333  TYR333      0.2596
    186  O        -51.7210   34.1050  -52.8980 O.2   333  TYR333     -0.2718
    187  CB       -51.1970   32.3430  -50.2130 C.3   333  TYR333      0.0548
    188  CG       -51.7580   30.9650  -49.8340 C.ar  333  TYR333     -0.0200
    189  CD1      -50.9170   29.8610  -49.6510 C.ar  333  TYR333     -0.0009
    190  CD2      -53.1260   30.7690  -49.6420 C.ar  333  TYR333     -0.0009
    191  CE1      -51.4130   28.6080  -49.3390 C.ar  333  TYR333      0.0417
    192  CE2      -53.6380   29.4970  -49.3070 C.ar  333  TYR333      0.0417
    193  CZ       -52.7770   28.4160  -49.1260 C.ar  333  TYR333      0.1957
    194  OH       -53.2660   27.1590  -48.7950 O.3   333  TYR333     -0.2866
    195  N        -49.7960   34.6900  -51.9760 N.am  334  GLY334     -0.1957
    196  CA       -50.0370   36.0980  -52.2520 C.3   334  GLY334      0.1869
    197  C        -49.1140   36.7720  -53.2900 C.2   334  GLY334      0.2309
    198  O        -49.3480   37.8860  -53.6080 O.2   334  GLY334     -0.2863
    199  N        -46.1600   19.9300  -49.0820 N.3   431  TRP431     -0.1241
    200  CA       -45.7970   21.1750  -49.7680 C.3   431  TRP431      0.1605
    201  C        -44.4380   21.0190  -50.4080 C.2   431  TRP431      0.2264
    202  O        -43.6170   20.2210  -49.9710 O.2   431  TRP431     -0.2867
    203  CB       -45.7550   22.3650  -48.7500 C.3   431  TRP431      0.0550
    204  CG       -47.0870   22.6730  -48.1310 C.ar  431  TRP431      0.0003
    205  CD1      -47.5510   22.2900  -46.8910 C.ar  431  TRP431      0.0946
    206  CD2      -48.1870   23.3330  -48.7690 C.ar  431  TRP431      0.0152
    207  NE1      -48.8650   22.7240  -46.7110 N.ar  431  TRP431     -0.2442
    208  CE2      -49.2780   23.3430  -47.8500 C.ar  431  TRP431      0.0810
    209  CE3      -48.3810   23.8650  -50.0320 C.ar  431  TRP431      0.0012
    210  CZ2      -50.4770   23.9340  -48.1450 C.ar  431  TRP431      0.0191
    211  CZ3      -49.6170   24.4290  -50.3420 C.ar  431  TRP431      0.0001
    212  CH2      -50.6260   24.4810  -49.3910 C.ar  431  TRP431      0.0015
    213  N        -40.3830   25.7310  -50.0980 N.3   435  MET435     -0.1245
    214  CA       -41.0710   26.3900  -48.9640 C.3   435  MET435      0.1570
    215  C        -40.3650   26.1110  -47.6350 C.2   435  MET435      0.2261
    216  O        -40.5200   26.9200  -46.7100 O.2   435  MET435     -0.2867
    217  CB       -42.5210   25.9480  -48.8940 C.3   435  MET435      0.0387
    218  CG       -43.3340   26.4920  -50.0730 C.3   435  MET435      0.0595
    219  SD       -45.0190   25.8890  -50.1790 S.3   435  MET435     -0.1393
    220  CE       -45.7940   27.1740  -49.1780 C.3   435  MET435      0.0692
    221  N        -42.0950   25.4800  -42.9360 N.3   438  ILE438     -0.1231
    222  CA       -43.2120   26.3620  -43.1970 C.3   438  ILE438      0.1692
    223  C        -43.9080   26.8770  -41.8970 C.2   438  ILE438      0.2592
    224  O        -43.9170   26.2090  -40.9050 O.2   438  ILE438     -0.2718
    225  CB       -44.2340   25.6300  -44.0410 C.3   438  ILE438      0.0266
    226  CG1      -43.5860   25.2180  -45.4000 C.3   438  ILE438      0.0019
    227  CG2      -45.4810   26.5090  -44.3020 C.3   438  ILE438      0.0020
    228  CD1      -44.4760   24.3640  -46.2280 C.3   438  ILE438      0.0001
    229  N        -44.5000   28.0580  -41.9720 N.am  439  HIS439     -0.1962
    230  CA       -45.2300   28.6600  -40.9260 C.3   439  HIS439      0.1787
    231  C        -46.3340   27.6810  -40.6060 C.2   439  HIS439      0.2621
    232  O        -47.1250   27.3570  -41.4790 O.2   439  HIS439     -0.2715
    233  CB       -45.7610   29.9510  -41.4260 C.3   439  HIS439      0.0785
    234  CG       -46.4970   30.7970  -40.4240 C.ar  439  HIS439      0.0821
    235  ND1      -45.8520   31.4770  -39.3940 N.ar  439  HIS439     -0.2267
    236  CD2      -47.8010   31.1740  -40.3750 C.ar  439  HIS439      0.1154
    237  CE1      -46.7320   32.2370  -38.7690 C.ar  439  HIS439      0.1986
    238  NE2      -47.9170   32.0720  -39.3390 N.ar  439  HIS439     -0.2212
    239  N        -46.3540   27.2000  -39.3570 N.am  440  GLY440     -0.1940
    240  CA       -47.4400   26.3620  -38.8420 C.3   440  GLY440      0.2014
    241  C        -47.0500   24.9040  -38.7170 C.2   440  GLY440      0.2638
    242  O        -47.7800   24.1110  -38.1180 O.2   440  GLY440     -0.2714
    243  N        -45.9040   24.5320  -39.2640 N.am  441  TYR441     -0.1973
    244  CA       -45.5520   23.0980  -39.3710 C.3   441  TYR441      0.1639
    245  C        -44.7080   22.6100  -38.1770 C.2   441  TYR441      0.2290
    246  O        -44.3290   21.4340  -38.1040 O.2   441  TYR441     -0.2864
    247  CB       -44.9690   22.7270  -40.8260 C.3   441  TYR441      0.0560
    248  CG       -46.1890   22.6440  -41.7510 C.ar  441  TYR441     -0.0198
    249  CD1      -46.7720   23.7850  -42.2700 C.ar  441  TYR441     -0.0009
    250  CD2      -46.8810   21.4500  -41.9560 C.ar  441  TYR441     -0.0009
    251  CE1      -47.9280   23.7390  -43.0340 C.ar  441  TYR441      0.0417
    252  CE2      -48.0500   21.4240  -42.7640 C.ar  441  TYR441      0.0417
    253  CZ       -48.5310   22.5650  -43.2730 C.ar  441  TYR441      0.1957
    254  OH       -49.7650   22.5600  -43.9110 O.3   441  TYR441     -0.2866
@<TRIPOS>BOND
     1   198   197    2
     2   197   196    1
     3   186   185    2
     4   196   195    1
     5   185   195   am
     6   185   184    1
     7   184   183    1
     8   184   187    1
     9   126   124    1
    10    12    11    1
    11   201   202    2
    12   201   200    1
    13   211   209   ar
    14   211   212   ar
    15   187   188    1
    16   219   218    1
    17   219   220    1
    18   213   214    1
    19   218   217    1
    20   209   206   ar
    21   188   189   ar
    22   188   190   ar
    23   175   174    2
    24   200   199    1
    25   200   203    1
    26   189   191   ar
    27   190   192   ar
    28    19    18   ar
    29   212   210   ar
    30   191   193   ar
    31    15    16    2
    32    15    14    1
    33   109   108    2
    34   192   193   ar
    35    11     9   ar
    36    11    10   ar
    37    26    25    1
    38     9     7   ar
    39   127   125    1
    40   193   194    1
    41   174   173    1
    42   108   107    1
    43   120   121    1
    44   110   107    1
    45   110   111    1
    46   124   125    1
    47   124   121    1
    48   214   217    1
    49   214   215    1
    50   206   204   ar
    51   206   208   ar
    52   203   204    1
    53   164   163    2
    54    18    20   ar
    55    18    17    1
    56    25    22    1
    57   121   122    1
    58   107   106    1
    59    14    17    1
    60    14    13    1
    61    10     8   ar
    62   210   208   ar
    63   204   205   ar
    64   111   112   ar
    65   111   113   ar
    66     7     6   ar
    67   112   114   ar
    68   208   207   ar
    69   163   172   am
    70   163   162    1
    71   173   172    1
    72   173   176    1
    73   215   216    2
    74    21    22    1
    75   113   116   ar
    76   113   115   ar
    77    22    23    1
    78   162   161    1
    79   162   165    1
    80   116   118   ar
    81   114   115   ar
    82     8     6   ar
    83   205   207   ar
    84   122   123    2
    85   122   128   am
    86     6     5    1
    87   176   177    1
    88   115   117   ar
    89    48    46   am
    90    23    24    2
    91   167   169   ar
    92   167   166   ar
    93   228   226    1
    94   128   129    1
    95   118   119   ar
    96   169   171   ar
    97   165   166    1
    98   117   119   ar
    99   166   168   ar
   100   226   225    1
   101     5     2    1
   102    46    47    2
   103    46    45    1
   104   177   178   ar
   105   177   179   ar
   106     3     2    1
   107     3     4    2
   108     2     1    1
   109   142   141    2
   110   178   180   ar
   111   171   170   ar
   112   129   132    1
   113   129   130    1
   114   139   130   am
   115   139   140    1
   116   179   181   ar
   117   143   144    1
   118   143   140    1
   119   227   225    1
   120   168   170   ar
   121   144   145    1
   122    45    42    1
   123   132   133    1
   124    72    71    1
   125   130   131    2
   126   225   222    1
   127   141   140    1
   128   141   150   am
   129   254   253    1
   130   180   182   ar
   131    69    71   ar
   132    69    67   ar
   133    71    70   ar
   134    33    35   ar
   135    33    32   ar
   136   253   251   ar
   137   253   252   ar
   138   181   182   ar
   139   222   221    1
   140   222   223    1
   141   251   249   ar
   142    35    36   ar
   143   133   135   ar
   144   133   134   ar
   145   149   147    1
   146   146   145    1
   147   146   147    2
   148    42    41    1
   149    42    43    1
   150   150   151    1
   151   135   137   ar
   152   252   250   ar
   153   147   148    1
   154   158   156   ar
   155   158   160   ar
   156    67    66   ar
   157    41    29   am
   158   156   155   ar
   159    70    68   ar
   160   151   152    1
   161   151   154    1
   162    27    28    1
   163   152   153    2
   164   249   248   ar
   165    32    31    1
   166    32    34   ar
   167    31    28    1
   168   229   223   am
   169   229   230    1
   170   250   248   ar
   171    66    68   ar
   172    66    65    1
   173   223   224    2
   174    29    28    1
   175    29    30    2
   176   134   136   ar
   177   248   247    1
   178    43    44    2
   179   160   159   ar
   180   137   138   ar
   181    36    34   ar
   182    36    38   ar
   183   155   154    1
   184   155   157   ar
   185   232   231    2
   186   233   230    1
   187   233   234    1
   188    65    62    1
   189    34    37   ar
   190   230   231    1
   191   247   244    1
   192    77    78    1
   193    77    74    1
   194    38    40   ar
   195   136   138   ar
   196   159   157   ar
   197   231   239   am
   198    64    63    2
   199   234   236   ar
   200   234   235   ar
   201   236   238   ar
   202    63    62    1
   203    63    73   am
   204    37    39   ar
   205    62    61    1
   206    74    73    1
   207    74    75    1
   208   235   237   ar
   209    56    55    2
   210   244   243    1
   211   244   245    1
   212   239   240    1
   213   238   237   ar
   214    40    39   ar
   215   243   241   am
   216    60    59    1
   217    58    57    1
   218    58    59    2
   219    55    57   am
   220    55    54    1
   221   240   241    1
   222   241   242    2
   223    54    53    1
   224    75    76    2
   225   245   246    2
   226   105   104    1
   227    53    51   am
   228    99    97   ar
   229   104   101    1
   230    52    51    2
   231    51    50    1
   232    98    97   ar
   233    97    96    1
   234    90    89    1
   235   101   102    1
   236   101   100    1
   237    50    49    1
   238    89    88   ar
   239    89    87   ar
   240    88    86   ar
   241    96    95    1
   242    87    85   ar
   243   102   103    2
   244   100    93   am
   245    86    84   ar
   246    79    80    1
   247    94    93    2
   248    85    84   ar
   249    93    92    1
   250    95    92    1
   251    84    83    1
   252    92    91    1
   253    83    80    1
   254    80    81    1
   255    81    82    2
