@<TRIPOS>MOLECULE
tmp/4tvpA02.pdb
 179 171 0 0 0
SMALL
GASTEIGER

@<TRIPOS>ATOM
      1  N       -282.8820 -157.3730   -5.0130 N.3    33  THR33      -0.1218
      2  CA      -283.2270 -156.9480   -6.3650 C.3    33  THR33       0.1862
      3  C       -282.1490 -157.4050   -7.3450 C.2    33  THR33       0.2287
      4  O       -282.4070 -157.5510   -8.5420 O.2    33  THR33      -0.2866
      5  CB      -283.3960 -155.4170   -6.4490 C.3    33  THR33       0.1770
      6  OG1     -284.1730 -154.9570   -5.3370 O.3    33  THR33      -0.2211
      7  CG2     -284.0880 -155.0170   -7.7460 C.3    33  THR33       0.0375
      8  N       -279.7950 -158.3450   -9.9670 N.3    35  LYS35      -0.1245
      9  CA      -279.6220 -157.9630  -11.3670 C.3    35  LYS35       0.1561
     10  C       -278.2320 -157.3840  -11.6020 C.2    35  LYS35       0.2260
     11  O       -278.0820 -156.3260  -12.2170 O.2    35  LYS35      -0.2867
     12  CB      -280.7040 -156.9700  -11.8030 C.3    35  LYS35       0.0271
     13  CG      -282.0930 -157.5790  -11.8600 C.3    35  LYS35       0.0035
     14  CD      -282.0910 -158.8420  -12.7070 C.3    35  LYS35       0.0206
     15  CE      -283.4170 -159.5760  -12.6210 C.3    35  LYS35       0.1093
     16  NZ      -283.3810 -160.8620  -13.3710 N.3    35  LYS35      -0.1314
     17  N       -277.5420 -153.3070   -9.2040 N.3    38  VAL38      -0.1245
     18  CA      -278.2160 -152.1600   -9.7940 C.3    38  VAL38       0.1561
     19  C       -277.8610 -150.8840   -9.0340 C.2    38  VAL38       0.2260
     20  O       -277.8800 -150.8540   -7.8020 O.2    38  VAL38      -0.2867
     21  CB      -279.7460 -152.3520   -9.8200 C.3    38  VAL38       0.0252
     22  CG1     -280.1320 -153.3400  -10.9110 C.3    38  VAL38       0.0019
     23  CG2     -280.2550 -152.8180   -8.4630 C.3    38  VAL38       0.0019
     24  N       -276.5780 -152.9910  -20.2480 N.3   167  PRO167     -0.2116
     25  CA      -277.9970 -153.3460  -20.1490 C.3   167  PRO167      0.1372
     26  C       -278.3150 -154.1300  -18.8800 C.2   167  PRO167      0.2244
     27  O       -279.4860 -154.3410  -18.5640 O.2   167  PRO167     -0.2868
     28  CB      -278.2260 -154.2040  -21.3930 C.3   167  PRO167      0.0268
     29  CG      -276.9040 -154.8360  -21.6450 C.3   167  PRO167      0.0207
     30  CD      -275.8740 -153.8100  -21.2510 C.3   167  PRO167      0.0892
     31  N       -279.5810 -150.8930  -13.9850 N.3   170  SER170     -0.1217
     32  CA      -280.7720 -150.0800  -14.1880 C.3   170  SER170      0.1889
     33  C       -280.6270 -148.7300  -13.4960 C.2   170  SER170      0.2288
     34  O       -279.9170 -148.6060  -12.4980 O.2   170  SER170     -0.2866
     35  CB      -282.0170 -150.8050  -13.6730 C.3   170  SER170      0.2089
     36  OG      -281.9880 -150.9330  -12.2620 O.3   170  SER170     -0.2183
     37  N       -282.9130 -147.1480  -11.8810 N.3   172  GLU172     -0.1231
     38  CA      -284.0670 -147.0300  -10.9990 C.3   172  GLU172      0.1684
     39  C       -283.6430 -146.5500   -9.6150 C.2   172  GLU172      0.2434
     40  O       -282.9170 -147.2470   -8.9060 O.2   172  GLU172     -0.2733
     41  CB      -284.8010 -148.3690  -10.8930 C.3   172  GLU172      0.0402
     42  CG      -286.1950 -148.2690  -10.2930 C.3   172  GLU172      0.1161
     43  CD      -287.1890 -147.6000  -11.2270 C.2   172  GLU172      0.3649
     44  OE1     -286.9160 -147.5310  -12.4450 O.co2 172  GLU172     -0.2457
     45  OE2     -288.2450 -147.1430  -10.7420 O.co2 172  GLU172     -0.2457
     46  N       -284.0980 -145.3490   -9.2280 N.am  173  PRO173     -0.2729
     47  CA      -283.7490 -144.7370   -7.9410 C.3   173  PRO173      0.1401
     48  C       -284.2750 -145.5300   -6.7470 C.2   173  PRO173      0.2269
     49  O       -285.4880 -145.6390   -6.5660 O.2   173  PRO173     -0.2865
     50  CB      -284.4190 -143.3590   -8.0120 C.3   173  PRO173      0.0296
     51  CG      -284.6730 -143.1200   -9.4660 C.3   173  PRO173      0.0237
     52  CD      -284.9580 -144.4700  -10.0360 C.3   173  PRO173      0.0939
     53  N       -284.3060 -141.3960   -2.1140 N.3   213  LYS213     -0.1245
     54  CA      -284.0650 -141.8420   -3.4800 C.3   213  LYS213      0.1561
     55  C       -283.3970 -140.7480   -4.3030 C.2   213  LYS213      0.2260
     56  O       -283.9250 -139.6430   -4.4180 O.2   213  LYS213     -0.2867
     57  CB      -285.3770 -142.2710   -4.1400 C.3   213  LYS213      0.0271
     58  CG      -286.0250 -143.4880   -3.5010 C.3   213  LYS213      0.0035
     59  CD      -287.3740 -143.7940   -4.1310 C.3   213  LYS213      0.0206
     60  CE      -288.3840 -142.7010   -3.8250 C.3   213  LYS213      0.1093
     61  NZ      -288.6190 -142.5620   -2.3600 N.3   213  LYS213     -0.1314
     62  N       -283.2530 -139.2380   -7.1480 N.3   215  VAL215     -0.1245
     63  CA      -283.9380 -138.9950   -8.4120 C.3   215  VAL215      0.1561
     64  C       -283.3910 -137.7490   -9.0990 C.2   215  VAL215      0.2260
     65  O       -283.5790 -136.6310   -8.6170 O.2   215  VAL215     -0.2867
     66  CB      -285.4560 -138.8340   -8.2130 C.3   215  VAL215      0.0252
     67  CG1     -286.1310 -138.5030   -9.5350 C.3   215  VAL215      0.0019
     68  CG2     -286.0490 -140.0960   -7.6080 C.3   215  VAL215      0.0019
     69  N       -289.4850 -134.9410   -8.4680 N.3   222  LEU222     -0.1231
     70  CA      -290.2390 -136.1870   -8.5590 C.3   222  LEU222      0.1693
     71  C       -289.9420 -137.1580   -7.4190 C.2   222  LEU222      0.2592
     72  O       -288.8010 -137.2740   -6.9710 O.2   222  LEU222     -0.2718
     73  CB      -289.9610 -136.8700   -9.8990 C.3   222  LEU222      0.0284
     74  CG      -290.2870 -136.0330  -11.1350 C.3   222  LEU222      0.0019
     75  CD1     -290.0700 -136.8400  -12.4060 C.3   222  LEU222      0.0001
     76  CD2     -291.7110 -135.5070  -11.0610 C.3   222  LEU222      0.0001
     77  N       -290.9870 -137.8500   -6.9670 N.am  223  ASN223     -0.1974
     78  CA      -290.8860 -138.8650   -5.9200 C.3   223  ASN223      0.1688
     79  C       -290.1620 -138.3900   -4.6620 C.2   223  ASN223      0.2292
     80  O       -289.3000 -139.0920   -4.1330 O.2   223  ASN223     -0.2864
     81  CB      -290.1890 -140.1140   -6.4640 C.3   223  ASN223      0.1181
     82  CG      -291.1070 -140.9720   -7.3170 C.2   223  ASN223      0.2629
     83  OD1     -292.3310 -140.8650   -7.2380 O.2   223  ASN223     -0.2716
     84  ND2     -290.5130 -141.8360   -8.1350 N.am  223  ASN223     -0.0877
     85  N       -284.5110 -153.9000  -30.4420 N.3   265  ARG265     -0.1245
     86  CA      -283.0930 -153.8280  -30.1210 C.3   265  ARG265      0.1563
     87  C       -282.2490 -154.6800  -31.0650 C.2   265  ARG265      0.2260
     88  O       -282.2360 -155.9080  -30.9670 O.2   265  ARG265     -0.2867
     89  CB      -282.8490 -154.2610  -28.6720 C.3   265  ARG265      0.0307
     90  CG      -281.3770 -154.3420  -28.2950 C.3   265  ARG265      0.0489
     91  CD      -281.1820 -154.9130  -26.9010 C.3   265  ARG265      0.2205
     92  NE      -281.4860 -153.9420  -25.8560 N.pl3 265  ARG265     -0.0865
     93  CZ      -281.3220 -154.1700  -24.5570 C.cat 265  ARG265      0.5346
     94  NH1     -280.8560 -155.3410  -24.1430 N.pl3 265  ARG265      0.1354
     95  NH2     -281.6220 -153.2300  -23.6720 N.pl3 265  ARG265      0.1354
     96  N       -285.8930 -136.1260  -16.9680 N.3   336  PHE336     -0.1227
     97  CA      -286.0200 -137.2050  -15.9920 C.3   336  PHE336      0.1736
     98  C       -285.8070 -138.5660  -16.6460 C.2   336  PHE336      0.2595
     99  O       -285.6620 -138.6660  -17.8640 O.2   336  PHE336     -0.2718
    100  CB      -287.3870 -137.1590  -15.3000 C.3   336  PHE336      0.0547
    101  CG      -288.5360 -137.5430  -16.1880 C.ar  336  PHE336     -0.0202
    102  CD1     -289.1290 -136.6090  -17.0200 C.ar  336  PHE336     -0.0042
    103  CD2     -289.0350 -138.8360  -16.1780 C.ar  336  PHE336     -0.0042
    104  CE1     -290.1900 -136.9600  -17.8330 C.ar  336  PHE336     -0.0003
    105  CE2     -290.0940 -139.1930  -16.9890 C.ar  336  PHE336     -0.0003
    106  CZ      -290.6720 -138.2540  -17.8180 C.ar  336  PHE336     -0.0000
    107  N       -285.7930 -139.6120  -15.8260 N.am  337  ASN337     -0.1960
    108  CA      -285.5850 -140.9690  -16.3150 C.3   337  ASN337      0.1819
    109  C       -286.7770 -141.8640  -15.9970 C.2   337  ASN337      0.2621
    110  O       -287.2870 -141.8600  -14.8780 O.2   337  ASN337     -0.2715
    111  CB      -284.3060 -141.5600  -15.7120 C.3   337  ASN337      0.1195
    112  CG      -283.8280 -142.8010  -16.4450 C.2   337  ASN337      0.2630
    113  OD1     -284.6260 -143.5880  -16.9540 O.2   337  ASN337     -0.2716
    114  ND2     -282.5140 -142.9810  -16.5000 N.am  337  ASN337     -0.0877
    115  N       -287.2170 -142.6320  -16.9890 N.am  338  CYS338     -0.1954
    116  CA      -288.3310 -143.5530  -16.8050 C.3   338  CYS338      0.1835
    117  C       -288.2010 -144.7600  -17.7270 C.2   338  CYS338      0.2625
    118  O       -288.3870 -144.6500  -18.9390 O.2   338  CYS338     -0.2714
    119  CB      -289.6650 -142.8450  -17.0540 C.3   338  CYS338      0.0902
    120  SG      -291.1190 -143.8900  -16.8020 S.3   338  CYS338     -0.1157
    121  N       -287.8760 -145.9100  -17.1450 N.am  339  GLY339     -0.1954
    122  CA      -287.7410 -147.1390  -17.9040 C.3   339  GLY339      0.1869
    123  C       -286.4110 -147.2650  -18.6220 C.2   339  GLY339      0.2309
    124  O       -286.2440 -148.1240  -19.4880 O.2   339  GLY339     -0.2863
    125  N       -284.9130 -149.4640  -25.3470 N.3   387  ILE387     -0.1231
    126  CA      -285.7210 -150.3390  -24.5070 C.3   387  ILE387      0.1692
    127  C       -286.8760 -150.9400  -25.3010 C.2   387  ILE387      0.2591
    128  O       -287.6270 -150.2210  -25.9590 O.2   387  ILE387     -0.2718
    129  CB      -286.2820 -149.5890  -23.2860 C.3   387  ILE387      0.0266
    130  CG1     -285.1760 -148.7980  -22.5860 C.3   387  ILE387      0.0019
    131  CG2     -286.9480 -150.5600  -22.3230 C.3   387  ILE387      0.0020
    132  CD1     -284.0610 -149.6600  -22.0370 C.3   387  ILE387      0.0001
    133  N       -287.0130 -152.2600  -25.2350 N.am  388  GLN388     -0.1979
    134  CA      -288.0680 -152.9550  -25.9630 C.3   388  GLN388      0.1601
    135  C       -289.4330 -152.7020  -25.3320 C.2   388  GLN388      0.2287
    136  O       -289.5610 -152.6430  -24.1090 O.2   388  GLN388     -0.2864
    137  CB      -287.7970 -154.4620  -26.0120 C.3   388  GLN388      0.0394
    138  CG      -286.3490 -154.8480  -26.2790 C.3   388  GLN388      0.0908
    139  CD      -285.5340 -154.9780  -25.0050 C.2   388  GLN388      0.2608
    140  OE1     -285.6800 -154.1840  -24.0750 O.2   388  GLN388     -0.2717
    141  NE2     -284.6760 -155.9910  -24.9530 N.am  388  GLN388     -0.0878
    142  N       -293.0150 -148.0820  -22.8480 N.3   391  ILE391     -0.1231
    143  CA      -292.6380 -147.7780  -21.4730 C.3   391  ILE391      0.1692
    144  C       -293.6670 -146.8860  -20.7880 C.2   391  ILE391      0.2592
    145  O       -294.0500 -145.8480  -21.3230 O.2   391  ILE391     -0.2718
    146  CB      -291.2680 -147.0850  -21.4090 C.3   391  ILE391      0.0266
    147  CG1     -290.2300 -147.8860  -22.1950 C.3   391  ILE391      0.0019
    148  CG2     -290.8290 -146.8990  -19.9650 C.3   391  ILE391      0.0020
    149  CD1     -288.8530 -147.2760  -22.1630 C.3   391  ILE391      0.0001
    150  N       -294.1100 -147.2950  -19.6030 N.am  392  ARG392     -0.1966
    151  CA      -295.0530 -146.5030  -18.8200 C.3   392  ARG392      0.1729
    152  C       -294.5260 -146.2850  -17.4060 C.2   392  ARG392      0.2617
    153  O       -293.9610 -147.1950  -16.7990 O.2   392  ARG392     -0.2715
    154  CB      -296.4230 -147.1840  -18.7670 C.3   392  ARG392      0.0348
    155  CG      -297.4970 -146.3520  -18.0780 C.3   392  ARG392      0.0492
    156  CD      -298.6730 -147.2050  -17.6340 C.3   392  ARG392      0.2205
    157  NE      -298.2990 -148.1300  -16.5670 N.pl3 392  ARG392     -0.0865
    158  CZ      -299.1600 -148.8950  -15.9040 C.cat 392  ARG392      0.5346
    159  NH1     -300.4540 -148.8480  -16.1940 N.pl3 392  ARG392      0.1354
    160  NH2     -298.7290 -149.7070  -14.9490 N.pl3 392  ARG392      0.1354
    161  N       -294.7090 -145.0760  -16.8840 N.am  393  CYS393     -0.1945
    162  CA      -294.2770 -144.7660  -15.5270 C.3   393  CYS393      0.1934
    163  C       -295.2110 -143.7600  -14.8610 C.2   393  CYS393      0.2634
    164  O       -295.6740 -142.8090  -15.4920 O.2   393  CYS393     -0.2714
    165  CB      -292.8430 -144.2310  -15.5260 C.3   393  CYS393      0.1338
    166  SG      -292.6320 -142.6230  -16.3240 S.3   393  CYS393     -0.0785
    167  N       -295.4880 -143.9870  -13.5820 N.am  394  VAL394     -0.1963
    168  CA      -296.3240 -143.0870  -12.8000 C.3   394  VAL394      0.1727
    169  C       -295.5220 -142.5290  -11.6310 C.2   394  VAL394      0.2616
    170  O       -295.0440 -143.2820  -10.7830 O.2   394  VAL394     -0.2715
    171  CB      -297.5810 -143.7950  -12.2680 C.3   394  VAL394      0.0290
    172  CG1     -298.4280 -142.8270  -11.4610 C.3   394  VAL394      0.0023
    173  CG2     -298.3810 -144.3890  -13.4180 C.3   394  VAL394      0.0023
    174  N       -295.3720 -141.2100  -11.5880 N.am  395  SER395     -0.1950
    175  CA      -294.5540 -140.5810  -10.5580 C.3   395  SER395      0.1924
    176  C       -295.3230 -139.5510   -9.7390 C.2   395  SER395      0.2314
    177  O       -296.4810 -139.2420  -10.0250 O.2   395  SER395     -0.2863
    178  CB      -293.3250 -139.9240  -11.1900 C.3   395  SER395      0.2116
    179  OG      -292.5150 -140.8820  -11.8470 O.3   395  SER395     -0.2180
@<TRIPOS>BOND
     1    87    88    2
     2    87    86    1
     3    85    86    1
     4    86    89    1
     5    89    90    1
     6    90    91    1
     7    91    92    1
     8   138   137    1
     9   138   139    1
    10   137   134    1
    11   134   135    1
    12   134   133    1
    13   128   127    2
    14    92    93    2
    15   125   126    1
    16   135   136    2
    17   127   133   am
    18   127   126    1
    19   139   141   am
    20   139   140    2
    21    93    94    1
    22    93    95    1
    23   126   129    1
    24   129   130    1
    25   129   131    1
    26   142   143    1
    27   130   132    1
    28   147   149    1
    29   147   146    1
    30    29    28    1
    31    29    30    1
    32   143   146    1
    33   143   144    1
    34   146   148    1
    35    28    25    1
    36   145   144    2
    37    30    24    1
    38   144   150   am
    39    24    25    1
    40    25    26    1
    41   150   151    1
    42   124   123    2
    43   118   117    2
    44    26    27    2
    45   151   154    1
    46   151   152    1
    47   154   155    1
    48   123   122    1
    49   155   156    1
    50   122   121    1
    51    99    98    2
    52   104   106   ar
    53   104   102   ar
    54   106   105   ar
    55   117   121   am
    56   117   116    1
    57   156   157    1
    58   152   161   am
    59   152   153    2
    60   119   116    1
    61   119   120    1
    62   102   101   ar
    63   115   116    1
    64   115   109   am
    65   105   103   ar
    66    96    97    1
    67   113   112    2
    68   161   162    1
    69   120   166    1
    70   120   165    1
    71    98    97    1
    72    98   107   am
    73   157   158    2
    74   114   112   am
    75   112   111    1
    76   166   165    1
    77   108   109    1
    78   108   107    1
    79   108   111    1
    80   159   158    1
    81   101   103   ar
    82   101   100    1
    83   109   110    2
    84    97   100    1
    85   158   160    1
    86   162   165    1
    87   162   163    1
    88   164   163    2
    89   163   167   am
    90    32    31    1
    91    32    35    1
    92    32    33    1
    93    35    36    1
    94   167   168    1
    95    33    34    2
    96   173   171    1
    97    16    15    1
    98   168   171    1
    99   168   169    1
   100    14    15    1
   101    14    13    1
   102    44    43   ar
   103    75    74    1
   104   171   172    1
   105    11    10    2
   106    37    38    1
   107    13    12    1
   108   179   178    1
   109    12     9    1
   110   169   174   am
   111   169   170    2
   112    10     9    1
   113   174   175    1
   114     9     8    1
   115    43    45   ar
   116    43    42    1
   117   178   175    1
   118    74    76    1
   119    74    73    1
   120    38    41    1
   121    38    39    1
   122    22    21    1
   123    41    42    1
   124   175   176    1
   125    52    51    1
   126    52    46    1
   127   177   176    2
   128    73    70    1
   129    21    18    1
   130    21    23    1
   131    18    17    1
   132    18    19    1
   133    39    46   am
   134    39    40    2
   135    67    66    1
   136    51    50    1
   137    46    47    1
   138    64    65    2
   139    64    63    1
   140    19    20    2
   141    70    69    1
   142    70    71    1
   143     4     3    2
   144    63    66    1
   145    63    62    1
   146    66    68    1
   147    84    82   am
   148    50    47    1
   149    47    48    1
   150     7     5    1
   151    71    72    2
   152    71    77   am
   153     3     2    1
   154    82    83    2
   155    82    81    1
   156    77    78    1
   157    48    49    2
   158    81    78    1
   159     5     2    1
   160     5     6    1
   161     2     1    1
   162    78    79    1
   163    79    80    2
   164    56    55    2
   165    55    54    1
   166    57    58    1
   167    57    54    1
   168    59    60    1
   169    59    58    1
   170    60    61    1
   171    54    53    1
