@<TRIPOS>MOLECULE
tmp/4tvpA08.pdb
 88 82 0 0 0
SMALL
GASTEIGER

@<TRIPOS>ATOM
      1  N       -281.8290 -141.1650  -43.1680 N.3   102  THR102     -0.1203
      2  CA      -283.0310 -140.7560  -43.8820 C.3   102  THR102      0.1994
      3  C       -284.2120 -140.7350  -42.9190 C.2   102  THR102      0.2618
      4  O       -284.0940 -141.1820  -41.7780 O.2   102  THR102     -0.2717
      5  CB      -283.3440 -141.6950  -45.0570 C.3   102  THR102      0.1784
      6  OG1     -284.5740 -141.2950  -45.6740 O.3   102  THR102     -0.2211
      7  CG2     -283.4720 -143.1290  -44.5670 C.3   102  THR102      0.0376
      8  N       -285.3480 -140.2170  -43.3740 N.am  103  ASN103     -0.1960
      9  CA      -286.5410 -140.1610  -42.5370 C.3   103  ASN103      0.1819
     10  C       -287.0710 -141.5490  -42.1940 C.2   103  ASN103      0.2621
     11  O       -286.8980 -142.4970  -42.9590 O.2   103  ASN103     -0.2715
     12  CB      -287.6420 -139.3490  -43.2210 C.3   103  ASN103      0.1195
     13  CG      -287.3560 -137.8620  -43.2230 C.2   103  ASN103      0.2630
     14  OD1     -286.5560 -137.3670  -42.4290 O.2   103  ASN103     -0.2716
     15  ND2     -288.0180 -137.1390  -44.1180 N.am  103  ASN103     -0.0877
     16  N       -287.7160 -141.6600  -41.0370 N.am  104  VAL104     -0.1963
     17  CA      -288.3200 -142.9170  -40.6160 C.3   104  VAL104      0.1727
     18  C       -289.5340 -143.2000  -41.5000 C.2   104  VAL104      0.2616
     19  O       -290.1330 -142.2770  -42.0520 O.2   104  VAL104     -0.2715
     20  CB      -288.7240 -142.8790  -39.1230 C.3   104  VAL104      0.0290
     21  CG1     -289.9170 -141.9560  -38.9090 C.3   104  VAL104      0.0023
     22  CG2     -289.0180 -144.2810  -38.6010 C.3   104  VAL104      0.0023
     23  N       -289.8840 -144.4730  -41.6510 N.am  105  THR105     -0.1951
     24  CA      -290.9910 -144.8590  -42.5180 C.3   105  THR105      0.1897
     25  C       -292.3420 -144.4090  -41.9660 C.2   105  THR105      0.2313
     26  O       -292.8630 -144.9920  -41.0160 O.2   105  THR105     -0.2863
     27  CB      -291.0290 -146.3830  -42.7390 C.3   105  THR105      0.1794
     28  OG1     -289.7600 -146.8300  -43.2330 O.3   105  THR105     -0.2208
     29  CG2     -292.1130 -146.7470  -43.7400 C.3   105  THR105      0.0378
     30  N       -283.2490 -142.7640  -39.8530 N.3   118  ASN118     -0.1240
     31  CA      -282.8400 -144.1170  -40.2060 C.3   118  ASN118      0.1653
     32  C       -281.4280 -144.1110  -40.7790 C.2   118  ASN118      0.2266
     33  O       -281.2370 -143.9950  -41.9890 O.2   118  ASN118     -0.2867
     34  CB      -283.8240 -144.7300  -41.2030 C.3   118  ASN118      0.1155
     35  CG      -283.6030 -146.2140  -41.4030 C.2   118  ASN118      0.2627
     36  OD1     -282.8070 -146.8360  -40.7000 O.2   118  ASN118     -0.2716
     37  ND2     -284.3120 -146.7930  -42.3640 N.am  118  ASN118     -0.0877
     38  N       -277.7360 -145.4350  -41.8410 N.3   120  SER120     -0.1217
     39  CA      -276.9740 -146.5890  -42.3040 C.3   120  SER120      0.1889
     40  C       -275.4920 -146.2310  -42.3180 C.2   120  SER120      0.2288
     41  O       -275.1250 -145.1220  -42.7040 O.2   120  SER120     -0.2866
     42  CB      -277.4350 -147.0310  -43.6940 C.3   120  SER120      0.2089
     43  OG      -278.7880 -147.4510  -43.6750 O.3   120  SER120     -0.2183
     44  N       -272.0710 -153.4460  -43.1120 N.3   133  LYS133     -0.1245
     45  CA      -273.0410 -152.4360  -43.5150 C.3   133  LYS133      0.1561
     46  C       -274.3600 -152.6270  -42.7720 C.2   133  LYS133      0.2260
     47  O       -275.3090 -153.1980  -43.3090 O.2   133  LYS133     -0.2867
     48  CB      -273.2710 -152.4850  -45.0270 C.3   133  LYS133      0.0271
     49  CG      -274.0720 -151.3160  -45.5790 C.3   133  LYS133      0.0035
     50  CD      -273.3530 -149.9960  -45.3490 C.3   133  LYS133      0.0206
     51  CE      -274.0980 -148.8400  -45.9950 C.3   133  LYS133      0.1093
     52  NZ      -274.2190 -149.0130  -47.4700 N.3   133  LYS133     -0.1314
     53  N       -277.5550 -150.8980  -40.2190 N.3   135  TYR135     -0.1241
     54  CA      -278.2930 -149.6600  -40.0080 C.3   135  TYR135      0.1605
     55  C       -278.8520 -149.5810  -38.5940 C.2   135  TYR135      0.2264
     56  O       -279.0900 -150.6020  -37.9510 O.2   135  TYR135     -0.2867
     57  CB      -279.4300 -149.5330  -41.0260 C.3   135  TYR135      0.0534
     58  CG      -280.6090 -150.4410  -40.7470 C.ar  135  TYR135     -0.0201
     59  CD1     -280.5770 -151.7830  -41.1020 C.ar  135  TYR135     -0.0009
     60  CD2     -281.7560 -149.9530  -40.1330 C.ar  135  TYR135     -0.0009
     61  CE1     -281.6520 -152.6150  -40.8490 C.ar  135  TYR135      0.0417
     62  CE2     -282.8350 -150.7770  -39.8760 C.ar  135  TYR135      0.0417
     63  CZ      -282.7790 -152.1060  -40.2370 C.ar  135  TYR135      0.1957
     64  OH      -283.8520 -152.9300  -39.9840 O.3   135  TYR135     -0.2866
     65  N       -281.2450 -146.6670  -35.7200 N.3   137  LEU137     -0.1245
     66  CA      -282.2880 -145.6510  -35.6650 C.3   137  LEU137      0.1561
     67  C       -282.0100 -144.6670  -34.5360 C.2   137  LEU137      0.2260
     68  O       -282.2320 -144.9760  -33.3670 O.2   137  LEU137     -0.2867
     69  CB      -283.6590 -146.3040  -35.4780 C.3   137  LEU137      0.0270
     70  CG      -284.8880 -145.5380  -35.9690 C.3   137  LEU137      0.0019
     71  CD1     -284.9050 -145.4770  -37.4870 C.3   137  LEU137      0.0001
     72  CD2     -286.1610 -146.1790  -35.4410 C.3   137  LEU137      0.0001
     73  N       -286.3490 -151.4740  -36.3950 N.3   281  ASP281     -0.1225
     74  CA      -287.5610 -150.8490  -36.9090 C.3   281  ASP281      0.1805
     75  C       -288.6050 -150.7440  -35.8040 C.2   281  ASP281      0.2597
     76  O       -288.5590 -151.4850  -34.8220 O.2   281  ASP281     -0.2718
     77  CB      -288.1160 -151.6340  -38.1000 C.3   281  ASP281      0.1424
     78  CG      -288.5350 -153.0410  -37.7270 C.2   281  ASP281      0.3668
     79  OD1     -287.6750 -153.9460  -37.7520 O.co2 281  ASP281     -0.2456
     80  OD2     -289.7270 -153.2440  -37.4120 O.co2 281  ASP281     -0.2456
     81  N       -289.5420 -149.8160  -35.9650 N.am  282  ILE282     -0.1980
     82  CA      -290.5800 -149.5990  -34.9650 C.3   282  ILE282      0.1595
     83  C       -291.8600 -150.3480  -35.3150 C.2   282  ILE282      0.2287
     84  O       -292.3990 -150.1990  -36.4120 O.2   282  ILE282     -0.2864
     85  CB      -290.9000 -148.1040  -34.8110 C.3   282  ILE282      0.0276
     86  CG1     -289.6300 -147.3260  -34.4630 C.3   282  ILE282      0.0022
     87  CG2     -291.9690 -147.8930  -33.7520 C.3   282  ILE282      0.0022
     88  CD1     -289.8600 -145.8490  -34.2600 C.3   282  ILE282      0.0001
@<TRIPOS>BOND
     1    52    51    1
     2    51    50    1
     3     6     5    1
     4    49    50    1
     5    49    48    1
     6     5     7    1
     7     5     2    1
     8    48    45    1
     9    15    13   am
    10     2     1    1
    11     2     3    1
    12    29    27    1
    13    42    43    1
    14    42    39    1
    15    45    44    1
    16    45    46    1
    17     8     3   am
    18     8     9    1
    19    47    46    2
    20    28    27    1
    21    13    12    1
    22    13    14    2
    23    12     9    1
    24    11    10    2
    25     3     4    2
    26    27    24    1
    27    41    40    2
    28     9    10    1
    29    24    25    1
    30    24    23    1
    31    37    35   am
    32    40    39    1
    33    39    38    1
    34    10    16   am
    35    19    18    2
    36    33    32    2
    37    25    26    2
    38    23    18   am
    39    18    17    1
    40    35    34    1
    41    35    36    2
    42    34    31    1
    43    59    61   ar
    44    59    58   ar
    45    16    17    1
    46    57    58    1
    47    57    54    1
    48    61    63   ar
    49    32    31    1
    50    58    60   ar
    51    17    20    1
    52    63    64    1
    53    63    62   ar
    54    53    54    1
    55    31    30    1
    56    60    62   ar
    57    54    55    1
    58    20    21    1
    59    20    22    1
    60    55    56    2
    61    77    78    1
    62    77    74    1
    63    79    78   ar
    64    78    80   ar
    65    71    70    1
    66    74    73    1
    67    74    75    1
    68    84    83    2
    69    70    69    1
    70    70    72    1
    71    81    75   am
    72    81    82    1
    73    75    76    2
    74    65    66    1
    75    66    69    1
    76    66    67    1
    77    83    82    1
    78    82    85    1
    79    85    86    1
    80    85    87    1
    81    67    68    2
    82    86    88    1
