@<TRIPOS>MOLECULE
tmp/4tvpD00.pdb
 121 121 0 0 0
SMALL
GASTEIGER

@<TRIPOS>ATOM
      1  N       -319.5790 -135.5240  -50.7260 N.3    33  TYR33      -0.1241
      2  CA      -318.3070 -135.6510  -51.4280 C.3    33  TYR33       0.1605
      3  C       -318.5150 -136.4780  -52.6930 C.2    33  TYR33       0.2264
      4  O       -319.3930 -137.3390  -52.7390 O.2    33  TYR33      -0.2867
      5  CB      -317.2460 -136.3000  -50.5370 C.3    33  TYR33       0.0534
      6  CG      -316.7020 -135.4000  -49.4500 C.ar   33  TYR33      -0.0201
      7  CD1     -317.4200 -135.1720  -48.2830 C.ar   33  TYR33      -0.0009
      8  CD2     -315.4620 -134.7910  -49.5860 C.ar   33  TYR33      -0.0009
      9  CE1     -316.9210 -134.3530  -47.2860 C.ar   33  TYR33       0.0417
     10  CE2     -314.9560 -133.9710  -48.5960 C.ar   33  TYR33       0.0417
     11  CZ      -315.6880 -133.7560  -47.4490 C.ar   33  TYR33       0.1957
     12  OH      -315.1850 -132.9400  -46.4610 O.3    33  TYR33      -0.2866
     13  N       -311.1470 -137.0460  -55.5670 N.3    50  TYR50      -0.1241
     14  CA      -312.4070 -136.6290  -54.9660 C.3    50  TYR50       0.1605
     15  C       -312.5870 -135.1180  -55.0530 C.2    50  TYR50       0.2264
     16  O       -311.6210 -134.3600  -54.9580 O.2    50  TYR50      -0.2867
     17  CB      -312.4870 -137.0890  -53.5070 C.3    50  TYR50       0.0534
     18  CG      -311.4160 -136.5100  -52.6080 C.ar   50  TYR50      -0.0201
     19  CD1     -310.1770 -137.1250  -52.4860 C.ar   50  TYR50      -0.0009
     20  CD2     -311.6490 -135.3550  -51.8720 C.ar   50  TYR50      -0.0009
     21  CE1     -309.1970 -136.6020  -51.6620 C.ar   50  TYR50       0.0417
     22  CE2     -310.6760 -134.8240  -51.0470 C.ar   50  TYR50       0.0417
     23  CZ      -309.4520 -135.4520  -50.9450 C.ar   50  TYR50       0.1957
     24  OH      -308.4800 -134.9270  -50.1250 O.3    50  TYR50      -0.2866
     25  N       -316.3890 -125.7570  -51.1570 N.3    54  SER54      -0.1202
     26  CA      -315.4770 -124.9820  -50.3130 C.3    54  SER54       0.2020
     27  C       -314.0090 -125.1890  -50.6910 C.2    54  SER54       0.2619
     28  O       -313.1140 -124.9570  -49.8780 O.2    54  SER54      -0.2717
     29  CB      -315.6850 -125.3190  -48.8320 C.3    54  SER54       0.2103
     30  OG      -315.2000 -126.6150  -48.5240 O.3    54  SER54      -0.2182
     31  N       -313.7690 -125.6240  -51.9240 N.am   55  GLY55      -0.1942
     32  CA      -312.4170 -125.7710  -52.4350 C.3    55  GLY55       0.2014
     33  C       -311.7030 -127.0570  -52.0600 C.2    55  GLY55       0.2639
     34  O       -310.5560 -127.2670  -52.4560 O.2    55  GLY55      -0.2714
     35  N       -312.3690 -127.9190  -51.3000 N.am   56  ASP56      -0.1957
     36  CA      -311.7670 -129.1830  -50.8870 C.3    56  ASP56       0.1840
     37  C       -311.7350 -130.1780  -52.0440 C.2    56  ASP56       0.2623
     38  O       -312.6920 -130.9210  -52.2610 O.2    56  ASP56      -0.2715
     39  CB      -312.5240 -129.7800  -49.6990 C.3    56  ASP56       0.1450
     40  CG      -311.8740 -131.0450  -49.1690 C.2    56  ASP56       0.3671
     41  OD1     -310.6370 -131.1730  -49.2820 O.co2  56  ASP56      -0.2456
     42  OD2     -312.6000 -131.9110  -48.6390 O.co2  56  ASP56      -0.2456
     43  N       -310.6300 -130.1890  -52.7820 N.am   57  THR57      -0.1937
     44  CA      -310.4890 -131.0750  -53.9330 C.3    57  THR57       0.2028
     45  C       -309.0450 -131.5360  -54.1170 C.2    57  THR57       0.2642
     46  O       -308.1300 -130.7190  -54.2090 O.2    57  THR57      -0.2714
     47  CB      -310.9660 -130.3890  -55.2290 C.3    57  THR57       0.1808
     48  OG1     -312.3180 -129.9420  -55.0680 O.3    57  THR57      -0.2208
     49  CG2     -310.8920 -131.3530  -56.4020 C.3    57  THR57       0.0379
     50  N       -308.8510 -132.8510  -54.1700 N.am   58  ASN58      -0.1971
     51  CA      -307.5250 -133.4290  -54.3660 C.3    58  ASN58       0.1688
     52  C       -307.5290 -134.4430  -55.5080 C.2    58  ASN58       0.2292
     53  O       -308.5530 -135.0670  -55.7890 O.2    58  ASN58      -0.2864
     54  CB      -307.0330 -134.0830  -53.0730 C.3    58  ASN58       0.1181
     55  CG      -305.5650 -134.4600  -53.1310 C.2    58  ASN58       0.2629
     56  OD1     -304.8180 -133.9630  -53.9730 O.2    58  ASN58      -0.2716
     57  ND2     -305.1440 -135.3400  -52.2300 N.am   58  ASN58      -0.0877
     58  N       -316.7350 -139.5630  -45.4780 N.3   100  HIS100     -0.1241
     59  CA      -315.4360 -139.4890  -44.8220 C.3   100  HIS100      0.1621
     60  C       -315.4650 -140.0920  -43.4220 C.2   100  HIS100      0.2264
     61  O       -316.5170 -140.1740  -42.7880 O.2   100  HIS100     -0.2867
     62  CB      -314.9580 -138.0370  -44.7530 C.3   100  HIS100      0.0745
     63  CG      -315.8670 -137.1390  -43.9740 C.ar  100  HIS100      0.0817
     64  ND1     -316.9200 -136.4620  -44.5520 N.ar  100  HIS100     -0.2268
     65  CD2     -315.8820 -136.8050  -42.6620 C.ar  100  HIS100      0.1154
     66  CE1     -317.5430 -135.7500  -43.6300 C.ar  100  HIS100      0.1986
     67  NE2     -316.9330 -135.9410  -42.4740 N.ar  100  HIS100     -0.2212
     68  N       -312.6860 -140.7520  -39.7160 N.3   102  ARG102     -0.1245
     69  CA      -311.4400 -140.3880  -39.0520 C.3   102  ARG102      0.1563
     70  C       -310.9180 -141.5140  -38.1650 C.2   102  ARG102      0.2260
     71  O       -311.5570 -141.8960  -37.1840 O.2   102  ARG102     -0.2867
     72  CB      -311.6310 -139.1130  -38.2280 C.3   102  ARG102      0.0307
     73  CG      -311.9850 -137.8960  -39.0680 C.3   102  ARG102      0.0489
     74  CD      -312.2420 -136.6710  -38.2080 C.3   102  ARG102      0.2205
     75  NE      -312.5160 -135.4900  -39.0210 N.pl3 102  ARG102     -0.0865
     76  CZ      -313.7150 -135.1730  -39.4980 C.cat 102  ARG102      0.5346
     77  NH1     -314.7590 -135.9500  -39.2440 N.pl3 102  ARG102      0.1354
     78  NH2     -313.8720 -134.0780  -40.2300 N.pl3 102  ARG102      0.1354
     79  N       -303.5740 -138.9470  -36.2620 N.3   113  TRP113     -0.1227
     80  CA      -304.7330 -139.5750  -36.8820 C.3   113  TRP113      0.1737
     81  C       -304.6990 -139.3570  -38.3900 C.2   113  TRP113      0.2595
     82  O       -303.8330 -138.6480  -38.9010 O.2   113  TRP113     -0.2718
     83  CB      -306.0350 -139.0250  -36.2870 C.3   113  TRP113      0.0564
     84  CG      -306.2750 -137.5530  -36.5340 C.ar  113  TRP113      0.0003
     85  CD1     -305.3800 -136.6370  -37.0110 C.ar  113  TRP113      0.0946
     86  CD2     -307.4980 -136.8380  -36.3170 C.ar  113  TRP113      0.0152
     87  NE1     -305.9680 -135.4010  -37.1020 N.ar  113  TRP113     -0.2442
     88  CE2     -307.2680 -135.4960  -36.6810 C.ar  113  TRP113      0.0810
     89  CE3     -308.7640 -137.2020  -35.8470 C.ar  113  TRP113      0.0012
     90  CZ2     -308.2570 -134.5180  -36.5920 C.ar  113  TRP113      0.0191
     91  CZ3     -309.7440 -136.2290  -35.7590 C.ar  113  TRP113      0.0001
     92  CH2     -309.4850 -134.9040  -36.1290 C.ar  113  TRP113      0.0015
     93  N       -305.6410 -139.9660  -39.1010 N.am  114  PHE114     -0.1962
     94  CA      -305.7390 -139.7760  -40.5430 C.3   114  PHE114      0.1771
     95  C       -307.1640 -140.0130  -41.0210 C.2   114  PHE114      0.2620
     96  O       -307.8880 -140.8350  -40.4610 O.2   114  PHE114     -0.2715
     97  CB      -304.7650 -140.7000  -41.2840 C.3   114  PHE114      0.0574
     98  CG      -305.0840 -142.1630  -41.1490 C.ar  114  PHE114     -0.0200
     99  CD1     -304.6320 -142.8870  -40.0590 C.ar  114  PHE114     -0.0042
    100  CD2     -305.8210 -142.8180  -42.1210 C.ar  114  PHE114     -0.0042
    101  CE1     -304.9190 -144.2330  -39.9360 C.ar  114  PHE114     -0.0003
    102  CE2     -306.1110 -144.1630  -42.0030 C.ar  114  PHE114     -0.0003
    103  CZ      -305.6590 -144.8720  -40.9090 C.ar  114  PHE114     -0.0000
    104  N       -307.5620 -139.2840  -42.0580 N.am  115  THR115     -0.1951
    105  CA      -308.9080 -139.4040  -42.6030 C.3   115  THR115      0.1897
    106  C       -308.9550 -140.3780  -43.7730 C.2   115  THR115      0.2313
    107  O       -308.1510 -140.2910  -44.7000 O.2   115  THR115     -0.2863
    108  CB      -309.4520 -138.0400  -43.0640 C.3   115  THR115      0.1794
    109  OG1     -308.4810 -137.3930  -43.8960 O.3   115  THR115     -0.2208
    110  CG2     -309.7520 -137.1580  -41.8660 C.3   115  THR115      0.0378
    111  N       -311.3950 -142.3040  -46.8150 N.3   117  PHE117     -0.1241
    112  CA      -312.6020 -142.1530  -47.6180 C.3   117  PHE117      0.1605
    113  C       -313.0900 -143.5000  -48.1360 C.2   117  PHE117      0.2264
    114  O       -312.2950 -144.4100  -48.3690 O.2   117  PHE117     -0.2867
    115  CB      -312.3540 -141.2010  -48.7900 C.3   117  PHE117      0.0534
    116  CG      -312.0220 -139.7980  -48.3720 C.ar  117  PHE117     -0.0203
    117  CD1     -313.0280 -138.8890  -48.0900 C.ar  117  PHE117     -0.0042
    118  CD2     -310.7050 -139.3850  -48.2670 C.ar  117  PHE117     -0.0042
    119  CE1     -312.7270 -137.5960  -47.7070 C.ar  117  PHE117     -0.0003
    120  CE2     -310.3970 -138.0930  -47.8840 C.ar  117  PHE117     -0.0003
    121  CZ      -311.4100 -137.1980  -47.6040 C.ar  117  PHE117     -0.0000
@<TRIPOS>BOND
     1    49    47    1
     2    53    52    2
     3    13    14    1
     4    52    51    1
     5    47    48    1
     6    47    44    1
     7    15    14    1
     8    15    16    2
     9    14    17    1
    10    51    50    1
    11    51    54    1
    12    46    45    2
    13    50    45   am
    14    45    44    1
    15    56    55    2
    16    44    43    1
    17    17    18    1
    18    55    54    1
    19    55    57   am
    20    43    37   am
    21     4     3    2
    22     3     2    1
    23    18    19   ar
    24    18    20   ar
    25    19    21   ar
    26    34    33    2
    27    32    33    1
    28    32    31    1
    29    38    37    2
    30    33    35   am
    31    37    36    1
    32    31    27   am
    33    20    22   ar
    34    21    23   ar
    35     2     1    1
    36     2     5    1
    37    35    36    1
    38    25    26    1
    39    22    23   ar
    40    23    24    1
    41    36    39    1
    42    27    26    1
    43    27    28    2
    44     5     6    1
    45    26    29    1
    46    39    40    1
    47     8     6   ar
    48     8    10   ar
    49     6     7   ar
    50    41    40   ar
    51    40    42   ar
    52    29    30    1
    53   115   116    1
    54   115   112    1
    55    10    11   ar
    56   116   118   ar
    57   116   117   ar
    58   114   113    2
    59     7     9   ar
    60   118   120   ar
    61   113   112    1
    62   117   119   ar
    63   120   121   ar
    64   119   121   ar
    65   112   111    1
    66    11     9   ar
    67    11    12    1
    68    58    59    1
    69    59    62    1
    70    59    60    1
    71    62    63    1
    72   107   106    2
    73    64    63   ar
    74    64    66   ar
    75    63    65   ar
    76   109   108    1
    77   106   105    1
    78    66    67   ar
    79    60    61    2
    80   108   105    1
    81   108   110    1
    82    65    67   ar
    83   105   104    1
    84   100   102   ar
    85   100    98   ar
    86   104    95   am
    87   102   103   ar
    88    97    98    1
    89    97    94    1
    90    98    99   ar
    91    95    94    1
    92    95    96    2
    93   103   101   ar
    94    94    93    1
    95    78    76    1
    96    99   101   ar
    97    68    69    1
    98    76    77    1
    99    76    75    2
   100    93    81   am
   101    73    72    1
   102    73    74    1
   103    69    72    1
   104    69    70    1
   105    75    74    1
   106    82    81    2
   107    81    80    1
   108    70    71    2
   109    87    85   ar
   110    87    88   ar
   111    85    84   ar
   112    80    83    1
   113    80    79    1
   114    88    90   ar
   115    88    86   ar
   116    90    92   ar
   117    84    86   ar
   118    84    83    1
   119    86    89   ar
   120    92    91   ar
   121    89    91   ar
