@<TRIPOS>MOLECULE
tmp/4tvuE00.pdb
 141 133 0 0 0
SMALL
GASTEIGER

@<TRIPOS>ATOM
      1  N         50.4950    8.5970   76.8410 N.3    58  ASP58      -0.1239
      2  CA        49.2470    9.3440   76.8640 C.3    58  ASP58       0.1674
      3  C         48.3410    8.9120   75.6860 C.2    58  ASP58       0.2266
      4  O         47.7380    9.7500   75.0030 O.2    58  ASP58      -0.2867
      5  CB        49.5040   10.8570   76.8460 C.3    58  ASP58       0.1410
      6  CG        48.2250   11.6910   77.1400 C.2    58  ASP58       0.3668
      7  OD1       47.2250   11.1210   77.6550 O.co2  58  ASP58      -0.2456
      8  OD2       48.2120   12.8990   76.8290 O.co2  58  ASP58      -0.2456
      9  N         48.8960   10.6300   72.1750 N.3    61  TYR61      -0.1241
     10  CA        49.1730   12.0670   72.2140 C.3    61  TYR61       0.1605
     11  C         50.6290   12.3490   72.6150 C.2    61  TYR61       0.2264
     12  O         51.0630   13.5060   72.6330 O.2    61  TYR61      -0.2867
     13  CB        48.2030   12.7660   73.1600 C.3    61  TYR61       0.0534
     14  CG        46.8200   12.9670   72.5850 C.ar   61  TYR61      -0.0201
     15  CD1       46.5540   14.0290   71.7210 C.ar   61  TYR61      -0.0009
     16  CD2       45.7750   12.1200   72.9080 C.ar   61  TYR61      -0.0009
     17  CE1       45.2820   14.2340   71.1890 C.ar   61  TYR61       0.0417
     18  CE2       44.4910   12.3070   72.3710 C.ar   61  TYR61       0.0417
     19  CZ        44.2500   13.3590   71.5080 C.ar   61  TYR61       0.1957
     20  OH        43.0020   13.5580   70.9750 O.3    61  TYR61      -0.2866
     21  N         49.4240   17.0140   66.9460 N.3    98  VAL98      -0.1245
     22  CA        49.9760   17.2560   68.2810 C.3    98  VAL98       0.1561
     23  C         51.2100   18.1610   68.1950 C.2    98  VAL98       0.2260
     24  O         52.3320   17.7050   68.0230 O.2    98  VAL98      -0.2867
     25  CB        50.3010   15.9510   68.9940 C.3    98  VAL98       0.0252
     26  CG1       50.7550   16.2180   70.4210 C.3    98  VAL98       0.0019
     27  CG2       49.0840   15.0540   69.0010 C.3    98  VAL98       0.0019
     28  N         54.0760   19.3470   71.8040 N.3   101  HIS101     -0.1241
     29  CA        55.0300   18.4260   72.3870 C.3   101  HIS101      0.1621
     30  C         55.0870   17.1090   71.6150 C.2   101  HIS101      0.2264
     31  O         54.2050   16.8030   70.7950 O.2   101  HIS101     -0.2867
     32  CB        54.6030   18.1150   73.8040 C.3   101  HIS101      0.0745
     33  CG        53.1770   17.6880   73.9010 C.ar  101  HIS101      0.0817
     34  ND1       52.1520   18.5760   74.1270 N.ar  101  HIS101     -0.2268
     35  CD2       52.5960   16.4750   73.7640 C.ar  101  HIS101      0.1154
     36  CE1       51.0020   17.9280   74.1440 C.ar  101  HIS101      0.1986
     37  NE2       51.2430   16.6540   73.9170 N.ar  101  HIS101     -0.2212
     38  N         48.0940   18.1910   84.5590 N.3   146  PHE146     -0.1241
     39  CA        47.8930   16.8640   85.1400 C.3   146  PHE146      0.1605
     40  C         48.1900   16.8280   86.6460 C.2   146  PHE146      0.2264
     41  O         49.1800   16.2430   87.0950 O.2   146  PHE146     -0.2867
     42  CB        48.7440   15.8250   84.4160 C.3   146  PHE146      0.0534
     43  CG        48.3040   15.5260   83.0020 C.ar  146  PHE146     -0.0203
     44  CD1       47.0210   15.8130   82.5550 C.ar  146  PHE146     -0.0042
     45  CD2       49.1830   14.9170   82.1280 C.ar  146  PHE146     -0.0042
     46  CE1       46.6410   15.5170   81.2590 C.ar  146  PHE146     -0.0003
     47  CE2       48.8000   14.6060   80.8360 C.ar  146  PHE146     -0.0003
     48  CZ        47.5250   14.9030   80.4050 C.ar  146  PHE146     -0.0000
     49  N         52.3880   18.6390   79.8950 N.3   168  PHE168     -0.1241
     50  CA        51.6680   17.3900   80.1640 C.3   168  PHE168      0.1605
     51  C         52.5550   16.3930   80.8880 C.2   168  PHE168      0.2264
     52  O         53.2590   16.8110   81.7990 O.2   168  PHE168     -0.2867
     53  CB        50.9990   16.9160   78.8650 C.3   168  PHE168      0.0534
     54  CG        50.0580   17.9560   78.3140 C.ar  168  PHE168     -0.0203
     55  CD1       48.8060   18.1180   78.8650 C.ar  168  PHE168     -0.0042
     56  CD2       50.4780   18.8610   77.3640 C.ar  168  PHE168     -0.0042
     57  CE1       47.9650   19.1260   78.4400 C.ar  168  PHE168     -0.0003
     58  CE2       49.6330   19.8530   76.9240 C.ar  168  PHE168     -0.0003
     59  CZ        48.3770   19.9930   77.4660 C.ar  168  PHE168     -0.0000
     60  N         56.2790   13.6970   77.7300 N.3   172  GLN172     -0.1245
     61  CA        55.7830   14.5430   76.6500 C.3   172  GLN172      0.1566
     62  C         56.4620   15.9270   76.7070 C.2   172  GLN172      0.2260
     63  O         55.7920   16.9250   77.0120 O.2   172  GLN172     -0.2867
     64  CB        54.2700   14.7270   76.7660 C.3   172  GLN172      0.0367
     65  CG        53.4370   13.4800   76.5180 C.3   172  GLN172      0.0905
     66  CD        51.9940   13.6580   76.9610 C.2   172  GLN172      0.2608
     67  OE1       51.7170   13.8520   78.1420 O.2   172  GLN172     -0.2717
     68  NE2       51.0700   13.6580   76.0000 N.am  172  GLN172     -0.0878
     69  N         42.3090   18.4390   63.7420 N.3   202  ARG202     -0.1245
     70  CA        42.0780   18.9120   65.0730 C.3   202  ARG202      0.1563
     71  C         43.4590   19.2160   65.6460 C.2   202  ARG202      0.2260
     72  O         44.3640   18.3650   65.5970 O.2   202  ARG202     -0.2867
     73  CB        41.4170   17.8550   65.9380 C.3   202  ARG202      0.0307
     74  CG        40.8080   18.5000   67.1510 C.3   202  ARG202      0.0489
     75  CD        40.8490   17.8100   68.4940 C.3   202  ARG202      0.2205
     76  NE        42.1420   17.5290   69.0710 N.pl3 202  ARG202     -0.0865
     77  CZ        42.3560   17.3860   70.3880 C.cat 202  ARG202      0.5346
     78  NH1       41.3850   17.5290   71.3030 N.pl3 202  ARG202      0.1354
     79  NH2       43.5870   17.1370   70.8220 N.pl3 202  ARG202      0.1354
     80  N         45.8810   20.1970   68.7330 N.3   204  ASP204     -0.1225
     81  CA        45.8990   19.8220   70.1300 C.3   204  ASP204      0.1805
     82  C         46.6290   20.8440   70.9860 C.2   204  ASP204      0.2597
     83  O         47.7640   21.2690   70.6720 O.2   204  ASP204     -0.2718
     84  CB        46.6160   18.4820   70.2480 C.3   204  ASP204      0.1424
     85  CG        46.7320   17.9910   71.6890 C.2   204  ASP204      0.3668
     86  OD1       45.7210   17.5430   72.2410 O.co2 204  ASP204     -0.2456
     87  OD2       47.8700   18.0050   72.2280 O.co2 204  ASP204     -0.2456
     88  N         45.9900   21.2210   72.0790 N.am  205  ALA205     -0.1979
     89  CA        46.6280   22.0090   73.1320 C.3   205  ALA205      0.1597
     90  C         47.2520   23.3000   72.6140 C.2   205  ALA205      0.2287
     91  O         48.3780   23.6410   72.9680 O.2   205  ALA205     -0.2864
     92  CB        47.6810   21.1650   73.8350 C.3   205  ALA205      0.0319
     93  N         41.6140   22.8020   69.7720 N.3   246  GLU246     -0.1245
     94  CA        41.3800   22.4700   71.1820 C.3   246  GLU246      0.1567
     95  C         41.9040   23.6120   72.0200 C.2   246  GLU246      0.2260
     96  O         43.1050   23.6840   72.3280 O.2   246  GLU246     -0.2867
     97  CB        42.0500   21.1580   71.6040 C.3   246  GLU246      0.0388
     98  CG        41.6870   20.7330   73.0350 C.3   246  GLU246      0.1160
     99  CD        42.6680   19.7310   73.7080 C.2   246  GLU246      0.3649
    100  OE1       43.8380   19.6270   73.3070 O.co2 246  GLU246     -0.2457
    101  OE2       42.2560   19.0520   74.6590 O.co2 246  GLU246     -0.2457
    102  N         36.9570   12.2020   74.6070 N.3   313  HIS313     -0.1226
    103  CA        37.8820   11.1870   75.1010 C.3   313  HIS313      0.1752
    104  C         38.5530   11.5590   76.4260 C.2   313  HIS313      0.2596
    105  O         39.2030   10.7250   77.0520 O.2   313  HIS313     -0.2718
    106  CB        38.9350   10.8930   74.0260 C.3   313  HIS313      0.0759
    107  CG        39.9070   12.0120   73.8080 C.ar  313  HIS313      0.0818
    108  ND1       39.6370   13.1060   73.0120 N.ar  313  HIS313     -0.2268
    109  CD2       41.1520   12.2130   74.3030 C.ar  313  HIS313      0.1154
    110  CE1       40.6630   13.9320   73.0320 C.ar  313  HIS313      0.1986
    111  NE2       41.6060   13.4050   73.7920 N.ar  313  HIS313     -0.2212
    112  N         38.4400   12.8160   76.8300 N.am  314  ASP314     -0.1974
    113  CA        39.0240   13.2850   78.0760 C.3   314  ASP314      0.1709
    114  C         37.9830   13.2640   79.1930 C.2   314  ASP314      0.2293
    115  O         36.8450   12.8160   79.0210 O.2   314  ASP314     -0.2864
    116  CB        39.5930   14.7070   77.8930 C.3   314  ASP314      0.1436
    117  CG        40.8780   14.7350   77.0230 C.2   314  ASP314      0.3671
    118  OD1       41.7620   13.8640   77.2160 O.co2 314  ASP314     -0.2456
    119  OD2       41.0000   15.6560   76.1640 O.co2 314  ASP314     -0.2456
    120  N         42.1710    8.6590   81.9050 N.3   393  ARG393     -0.1245
    121  CA        40.8770    8.8890   81.2760 C.3   393  ARG393      0.1563
    122  C         40.4830    7.7270   80.3950 C.2   393  ARG393      0.2260
    123  O         39.5880    7.8580   79.5670 O.2   393  ARG393     -0.2867
    124  CB        40.9170   10.1940   80.4620 C.3   393  ARG393      0.0307
    125  CG        41.1150   11.4230   81.3310 C.3   393  ARG393      0.0489
    126  CD        42.0190   12.4230   80.6600 C.3   393  ARG393      0.2205
    127  NE        43.3850   11.9430   80.6320 N.pl3 393  ARG393     -0.0865
    128  CZ        44.3130   12.3390   79.7780 C.cat 393  ARG393      0.5346
    129  NH1       44.0270   13.2140   78.8410 N.pl3 393  ARG393      0.1354
    130  NH2       45.5420   11.8560   79.8550 N.pl3 393  ARG393      0.1354
    131  N         37.1120    5.2770   77.1650 N.3   397  ARG397     -0.1245
    132  CA        37.6610    4.9220   75.8650 C.3   397  ARG397      0.1563
    133  C         37.5690    3.4160   75.6330 C.2   397  ARG397      0.2260
    134  O         38.3980    2.8510   74.9180 O.2   397  ARG397     -0.2867
    135  CB        39.1210    5.3780   75.7670 C.3   397  ARG397      0.0307
    136  CG        39.2870    6.8540   76.0050 C.3   397  ARG397      0.0489
    137  CD        40.7310    7.2910   75.8740 C.3   397  ARG397      0.2205
    138  NE        40.9340    8.6420   76.4160 N.pl3 397  ARG397     -0.0865
    139  CZ        42.1060    9.2730   76.4840 C.cat 397  ARG397      0.5346
    140  NH1       43.2090    8.6880   76.0650 N.pl3 397  ARG397      0.1354
    141  NH2       42.1650   10.4740   76.9810 N.pl3 397  ARG397      0.1354
@<TRIPOS>BOND
     1    69    70    1
     2    70    71    1
     3    70    73    1
     4    72    71    2
     5    73    74    1
     6    21    22    1
     7    74    75    1
     8    24    23    2
     9    23    22    1
    10    22    25    1
    11    75    76    1
    12    80    81    1
    13    25    27    1
    14    25    26    1
    15    76    77    2
    16    93    94    1
    17    81    84    1
    18    81    82    1
    19    84    85    1
    20    77    79    1
    21    77    78    1
    22    83    82    2
    23    31    30    2
    24    20    19    1
    25    82    88   am
    26    94    97    1
    27    94    95    1
    28    17    19   ar
    29    17    15   ar
    30    19    18   ar
    31    97    98    1
    32    30    29    1
    33    85    87   ar
    34    85    86   ar
    35    15    14   ar
    36    28    29    1
    37    95    96    2
    38    88    89    1
    39     9    10    1
    40    10    11    1
    41    10    13    1
    42    18    16   ar
    43    29    32    1
    44    14    16   ar
    45    14    13    1
    46    90    91    2
    47    90    89    1
    48    11    12    2
    49   108   110   ar
    50   108   107   ar
    51   110   111   ar
    52    98    99    1
    53    89    92    1
    54   100    99   ar
    55    99   101   ar
    56    35    33   ar
    57    35    37   ar
    58   111   109   ar
    59    32    33    1
    60   107   106    1
    61   107   109   ar
    62    33    34   ar
    63    37    36   ar
    64   106   103    1
    65    34    36   ar
    66   102   103    1
    67   134   133    2
    68     4     3    2
    69   103   104    1
    70   133   132    1
    71     3     2    1
    72   135   132    1
    73   135   136    1
    74   132   131    1
    75   137   136    1
    76   137   138    1
    77    68    66   am
    78   140   139    1
    79   119   117   ar
    80   138   139    2
    81   104   112   am
    82   104   105    2
    83   139   141    1
    84    65    64    1
    85    65    66    1
    86    61    62    1
    87    61    64    1
    88    61    60    1
    89    62    63    2
    90     8     6   ar
    91   112   113    1
    92     1     2    1
    93     5     2    1
    94     5     6    1
    95    58    56   ar
    96    58    59   ar
    97    66    67    2
    98   117   118   ar
    99   117   116    1
   100     6     7   ar
   101    56    54   ar
   102    59    57   ar
   103   116   113    1
   104   113   114    1
   105    54    55   ar
   106    54    53    1
   107    57    55   ar
   108   129   128    1
   109    53    50    1
   110   115   114    2
   111   123   122    2
   112   128   130    1
   113   128   127    2
   114    49    50    1
   115    50    51    1
   116   122   121    1
   117    48    47   ar
   118    48    46   ar
   119   124   121    1
   120   124   125    1
   121   127   126    1
   122   126   125    1
   123    47    45   ar
   124    51    52    2
   125    46    44   ar
   126   121   120    1
   127    45    43   ar
   128    44    43   ar
   129    43    42    1
   130    42    39    1
   131    38    39    1
   132    39    40    1
   133    40    41    2
