@<TRIPOS>MOLECULE
tmp/4tvyB00.pdb
 167 162 0 0 0
SMALL
GASTEIGER

@<TRIPOS>ATOM
      1  N         15.3240   -3.5520  -13.1730 N.3    20  ALA20      -0.1245
      2  CA        16.1880   -4.7220  -13.0890 C.3    20  ALA20       0.1562
      3  C         16.2170   -5.4630  -14.4230 C.2    20  ALA20       0.2260
      4  O         17.2520   -5.9810  -14.8350 O.2    20  ALA20      -0.2867
      5  CB        15.7310   -5.6350  -11.9780 C.3    20  ALA20       0.0290
      6  N         19.6590   -6.0310  -17.1470 N.3    24  PHE24      -0.1241
      7  CA        20.0710   -7.3260  -17.6630 C.3    24  PHE24       0.1605
      8  C         19.8510   -7.4780  -19.1720 C.2    24  PHE24       0.2264
      9  O         20.6550   -8.1130  -19.8560 O.2    24  PHE24      -0.2867
     10  CB        19.3430   -8.4410  -16.9110 C.3    24  PHE24       0.0534
     11  CG        19.7700   -9.8200  -17.3170 C.ar   24  PHE24      -0.0203
     12  CD1       21.0950  -10.2200  -17.1900 C.ar   24  PHE24      -0.0042
     13  CD2       18.8470  -10.7220  -17.8160 C.ar   24  PHE24      -0.0042
     14  CE1       21.4870  -11.4990  -17.5650 C.ar   24  PHE24      -0.0003
     15  CE2       19.2300  -11.9980  -18.1910 C.ar   24  PHE24      -0.0003
     16  CZ        20.5480  -12.3880  -18.0670 C.ar   24  PHE24      -0.0000
     17  N         16.9810   -0.8800   -4.3480 N.3    37  TRP37      -0.1241
     18  CA        15.5670   -0.5340   -4.2620 C.3    37  TRP37       0.1605
     19  C         14.8670   -1.3400   -3.1890 C.2    37  TRP37       0.2264
     20  O         15.4540   -2.2420   -2.5780 O.2    37  TRP37      -0.2867
     21  CB        14.8730   -0.7680   -5.6080 C.3    37  TRP37       0.0550
     22  CG        14.5670   -2.2280   -5.9040 C.ar   37  TRP37       0.0003
     23  CD1       13.3640   -2.8640   -5.7540 C.ar   37  TRP37       0.0946
     24  CD2       15.4790   -3.2100   -6.4150 C.ar   37  TRP37       0.0152
     25  NE1       13.4760   -4.1820   -6.1390 N.ar   37  TRP37      -0.2442
     26  CE2       14.7630   -4.4160   -6.5480 C.ar   37  TRP37       0.0810
     27  CE3       16.8290   -3.1820   -6.7770 C.ar   37  TRP37       0.0012
     28  CZ2       15.3600   -5.5890   -7.0250 C.ar   37  TRP37       0.0191
     29  CZ3       17.4170   -4.3380   -7.2430 C.ar   37  TRP37       0.0001
     30  CH2       16.6840   -5.5270   -7.3680 C.ar   37  TRP37       0.0015
     31  N          8.1620  -12.0840  -12.8430 N.3    70  ARG70      -0.1245
     32  CA         9.4870  -11.8690  -13.4200 C.3    70  ARG70       0.1563
     33  C          9.6670  -12.7050  -14.6840 C.2    70  ARG70       0.2260
     34  O          8.8110  -13.5300  -15.0180 O.2    70  ARG70      -0.2867
     35  CB        10.5890  -12.1640  -12.3920 C.3    70  ARG70       0.0307
     36  CG        10.3950  -13.4590  -11.5950 C.3    70  ARG70       0.0489
     37  CD        11.5610  -13.7390  -10.6480 C.3    70  ARG70       0.2205
     38  NE        11.5500  -15.1350  -10.2150 N.pl3  70  ARG70      -0.0865
     39  CZ        10.8910  -15.5840   -9.1500 C.cat  70  ARG70       0.5346
     40  NH1       10.1970  -14.7440   -8.3950 N.pl3  70  ARG70       0.1354
     41  NH2       10.9200  -16.8750   -8.8390 N.pl3  70  ARG70       0.1354
     42  N         12.4240  -14.5710  -15.2280 N.3    72  SER72      -0.1217
     43  CA        13.1450  -15.7820  -14.8590 C.3    72  SER72       0.1889
     44  C         12.1740  -16.8460  -14.3490 C.2    72  SER72       0.2288
     45  O         11.0540  -16.5290  -13.9180 O.2    72  SER72      -0.2866
     46  CB        14.1860  -15.4720  -13.7830 C.3    72  SER72       0.2089
     47  OG        13.5690  -15.0410  -12.5840 O.3    72  SER72      -0.2183
     48  N          8.0500  -15.2740   -4.4250 N.3    77  VAL77      -0.1245
     49  CA         8.6700  -14.5580   -3.3100 C.3    77  VAL77       0.1561
     50  C          7.7310  -13.4730   -2.7680 C.2    77  VAL77       0.2260
     51  O          6.9320  -12.9070   -3.5210 O.2    77  VAL77      -0.2867
     52  CB         9.9820  -13.8960   -3.7600 C.3    77  VAL77       0.0252
     53  CG1       10.5770  -13.0750   -2.6360 C.3    77  VAL77       0.0019
     54  CG2       10.9690  -14.9490   -4.2150 C.3    77  VAL77       0.0019
     55  N          7.7660   -9.7110   -0.9220 N.3    79  HIS79      -0.1241
     56  CA         8.5230   -8.5330   -0.4900 C.3    79  HIS79       0.1621
     57  C          7.6330   -7.5770    0.3030 C.2    79  HIS79       0.2264
     58  O          6.4340   -7.4480    0.0240 O.2    79  HIS79      -0.2867
     59  CB         9.0670   -7.7540   -1.6940 C.3    79  HIS79       0.0745
     60  CG        10.0250   -8.5200   -2.5510 C.ar   79  HIS79       0.0817
     61  ND1       11.1820   -9.0950   -2.0580 N.ar   79  HIS79      -0.2268
     62  CD2       10.0220   -8.7730   -3.8830 C.ar   79  HIS79       0.1154
     63  CE1       11.8370   -9.6760   -3.0450 C.ar   79  HIS79       0.1986
     64  NE2       11.1570   -9.4970   -4.1640 N.ar   79  HIS79      -0.2212
     65  N         12.1310   -5.5030    3.2530 N.3    83  ASN83      -0.1240
     66  CA        13.1810   -6.0440    2.3870 C.3    83  ASN83       0.1653
     67  C         13.9210   -4.9210    1.6710 C.2    83  ASN83       0.2266
     68  O         13.2950   -3.9830    1.1730 O.2    83  ASN83      -0.2867
     69  CB        12.5970   -6.9820    1.3230 C.3    83  ASN83       0.1155
     70  CG        11.8050   -8.1310    1.9110 C.2    83  ASN83       0.2627
     71  OD1       11.0820   -7.9700    2.8980 O.2    83  ASN83      -0.2716
     72  ND2       11.9200   -9.3020    1.2870 N.am   83  ASN83      -0.0877
     73  N         18.9320   -5.5930   -4.0160 N.3    86  PHE86      -0.1227
     74  CA        20.1020   -5.1780   -4.7820 C.3    86  PHE86       0.1736
     75  C         20.1940   -6.0140   -6.0510 C.2    86  PHE86       0.2596
     76  O         19.6130   -7.1030   -6.1280 O.2    86  PHE86      -0.2718
     77  CB        21.3830   -5.3630   -3.9570 C.3    86  PHE86       0.0547
     78  CG        21.7290   -6.8030   -3.6920 C.ar   86  PHE86      -0.0202
     79  CD1       22.3100   -7.5860   -4.6810 C.ar   86  PHE86      -0.0042
     80  CD2       21.4740   -7.3740   -2.4540 C.ar   86  PHE86      -0.0042
     81  CE1       22.6240   -8.9150   -4.4420 C.ar   86  PHE86      -0.0003
     82  CE2       21.7920   -8.7060   -2.2060 C.ar   86  PHE86      -0.0003
     83  CZ        22.3650   -9.4750   -3.2030 C.ar   86  PHE86      -0.0000
     84  N         20.9110   -5.4920   -7.0440 N.am   87  THR87      -0.1953
     85  CA        21.2830   -6.2550   -8.2330 C.3    87  THR87       0.1897
     86  C         22.5850   -5.6960   -8.7850 C.2    87  THR87       0.2313
     87  O         22.7180   -4.4770   -8.9560 O.2    87  THR87      -0.2863
     88  CB        20.1980   -6.2010   -9.3400 C.3    87  THR87       0.1794
     89  OG1       20.5450   -7.0970  -10.4050 O.3    87  THR87      -0.2208
     90  CG2       20.0950   -4.8080   -9.9070 C.3    87  THR87       0.0378
     91  N         20.2110  -16.9480    8.4700 N.3   133  LYS133     -0.1245
     92  CA        20.2200  -16.4080    7.1130 C.3   133  LYS133      0.1561
     93  C         19.5150  -15.0540    7.0590 C.2   133  LYS133      0.2260
     94  O         18.4060  -14.8980    7.5800 O.2   133  LYS133     -0.2867
     95  CB        19.5510  -17.3950    6.1500 C.3   133  LYS133      0.0271
     96  CG        19.0700  -16.7910    4.8410 C.3   133  LYS133      0.0035
     97  CD        18.3910  -17.8500    3.9760 C.3   133  LYS133      0.0206
     98  CE        17.6250  -17.2200    2.8170 C.3   133  LYS133      0.1093
     99  NZ        16.8340  -18.2290    2.0430 N.3   133  LYS133     -0.1314
    100  N         18.7410  -13.8820    0.6200 N.3   136  GLY136     -0.1210
    101  CA        18.6780  -14.8840   -0.4260 C.3   136  GLY136      0.1956
    102  C         18.9510  -14.1450   -1.7180 C.2   136  GLY136      0.2613
    103  O         18.8300  -12.9170   -1.7570 O.2   136  GLY136     -0.2717
    104  N         19.3300  -14.8680   -2.7660 N.am  137  SER137     -0.1938
    105  CA        19.6400  -14.2310   -4.0400 C.3   137  SER137      0.2055
    106  C         19.5970  -15.2270   -5.1890 C.2   137  SER137      0.2643
    107  O         19.3310  -16.4150   -4.9900 O.2   137  SER137     -0.2714
    108  CB        21.0010  -13.5320   -3.9850 C.3   137  SER137      0.2130
    109  OG        22.0630  -14.4560   -3.7800 O.3   137  SER137     -0.2179
    110  N         19.8450  -14.7300   -6.3950 N.am  138  ALA138     -0.1963
    111  CA        19.8320  -15.5740   -7.5800 C.3   138  ALA138      0.1728
    112  C         20.7700  -15.0100   -8.6410 C.2   138  ALA138      0.2616
    113  O         21.0110  -13.8000   -8.6950 O.2   138  ALA138     -0.2715
    114  CB        18.4270  -15.7040   -8.1260 C.3   138  ALA138      0.0334
    115  N         21.2980  -15.8880   -9.4830 N.am  139  TYR139     -0.1960
    116  CA        22.1940  -15.4570  -10.5380 C.3   139  TYR139      0.1771
    117  C         21.5470  -15.6610  -11.8920 C.2   139  TYR139      0.2619
    118  O         20.7690  -16.5940  -12.0830 O.2   139  TYR139     -0.2715
    119  CB        23.5180  -16.2140  -10.4530 C.3   139  TYR139      0.0574
    120  CG        24.1990  -16.0370   -9.1220 C.ar  139  TYR139     -0.0198
    121  CD1       23.8300  -16.8070   -8.0320 C.ar  139  TYR139     -0.0009
    122  CD2       25.2070  -15.0940   -8.9520 C.ar  139  TYR139     -0.0009
    123  CE1       24.4460  -16.6530   -6.8060 C.ar  139  TYR139      0.0417
    124  CE2       25.8350  -14.9340   -7.7250 C.ar  139  TYR139      0.0417
    125  CZ        25.4440  -15.7200   -6.6550 C.ar  139  TYR139      0.1957
    126  OH        26.0480  -15.5830   -5.4240 O.3   139  TYR139     -0.2866
    127  N         21.8720  -14.7750  -12.8230 N.am  140  ARG140     -0.1977
    128  CA        21.3350  -14.8380  -14.1700 C.3   140  ARG140      0.1597
    129  C         22.4730  -14.5310  -15.1290 C.2   140  ARG140      0.2287
    130  O         23.1830  -13.5390  -14.9550 O.2   140  ARG140     -0.2864
    131  CB        20.2150  -13.8090  -14.3290 C.3   140  ARG140      0.0334
    132  CG        19.2830  -14.0690  -15.4980 C.3   140  ARG140      0.0492
    133  CD        17.8410  -13.7600  -15.1200 C.3   140  ARG140      0.2205
    134  NE        17.6420  -12.3640  -14.7270 N.pl3 140  ARG140     -0.0865
    135  CZ        16.7750  -11.5380  -15.3110 C.cat 140  ARG140      0.5346
    136  NH1       16.6580  -10.2840  -14.8880 N.pl3 140  ARG140      0.1354
    137  NH2       16.0250  -11.9650  -16.3230 N.pl3 140  ARG140      0.1354
    138  N         24.4960  -11.2890  -13.9620 N.3   147  ALA147     -0.1231
    139  CA        23.7700  -10.4700  -13.0010 C.3   147  ALA147      0.1694
    140  C         23.5440  -11.2180  -11.6950 C.2   147  ALA147      0.2592
    141  O         23.1120  -12.3750  -11.6940 O.2   147  ALA147     -0.2718
    142  CB        22.4360  -10.0060  -13.5870 C.3   147  ALA147      0.0304
    143  N         23.8390  -10.5510  -10.5840 N.am  148  HIS148     -0.1962
    144  CA        23.5620  -11.0990   -9.2640 C.3   148  HIS148      0.1787
    145  C         22.5750  -10.1930   -8.5260 C.2   148  HIS148      0.2621
    146  O         22.8630   -9.0210   -8.2700 O.2   148  HIS148     -0.2715
    147  CB        24.8540  -11.2330   -8.4540 C.3   148  HIS148      0.0785
    148  CG        24.6640  -11.8760   -7.1140 C.ar  148  HIS148      0.0821
    149  ND1       25.4660  -11.5890   -6.0280 N.ar  148  HIS148     -0.2267
    150  CD2       23.7670  -12.7940   -6.6840 C.ar  148  HIS148      0.1154
    151  CE1       25.0670  -12.2980   -4.9880 C.ar  148  HIS148      0.1986
    152  NE2       24.0390  -13.0400   -5.3590 N.ar  148  HIS148     -0.2212
    153  N         21.4160  -10.7360   -8.1760 N.am  149  GLY149     -0.1940
    154  CA        20.4240   -9.9650   -7.4510 C.3   149  GLY149      0.2014
    155  C         19.9520  -10.6760   -6.2030 C.2   149  GLY149      0.2639
    156  O         20.0730  -11.9000   -6.0920 O.2   149  GLY149     -0.2714
    157  N         19.4040   -9.9120   -5.2620 N.am  150  GLY150     -0.1939
    158  CA        18.9160  -10.4890   -4.0240 C.3   150  GLY150      0.2014
    159  C         18.2840   -9.4860   -3.0790 C.2   150  GLY150      0.2639
    160  O         18.1950   -8.2910   -3.3780 O.2   150  GLY150     -0.2714
    161  N         17.8420   -9.9790   -1.9270 N.am  151  THR151     -0.1950
    162  CA        17.2380   -9.1200   -0.9230 C.3   151  THR151      0.1897
    163  C         17.8690   -9.3510    0.4360 C.2   151  THR151      0.2313
    164  O         18.2610  -10.4680    0.7790 O.2   151  THR151     -0.2863
    165  CB        15.7290   -9.3670   -0.7880 C.3   151  THR151      0.1794
    166  OG1       15.5100  -10.5470   -0.0070 O.3   151  THR151     -0.2208
    167  CG2       15.0920   -9.5260   -2.1540 C.3   151  THR151      0.0378
@<TRIPOS>BOND
     1     9     8    2
     2     8     7    1
     3    15    16   ar
     4    15    13   ar
     5    16    14   ar
     6    13    11   ar
     7     7     6    1
     8     7    10    1
     9    14    12   ar
    10    11    12   ar
    11    11    10    1
    12   137   135    1
    13   132   133    1
    14   132   131    1
    15   135   136    1
    16   135   134    2
    17    42    43    1
    18   129   130    2
    19   129   128    1
    20   133   134    1
    21    34    33    2
    22    43    44    1
    23    43    46    1
    24     4     3    2
    25    33    32    1
    26     3     2    1
    27    44    45    2
    28   131   128    1
    29   128   127    1
    30   138   139    1
    31    46    47    1
    32   142   139    1
    33    32    31    1
    34    32    35    1
    35     1     2    1
    36     2     5    1
    37   139   140    1
    38   127   117   am
    39    35    36    1
    40   118   117    2
    41   117   116    1
    42   140   141    2
    43   140   143   am
    44    36    37    1
    45    37    38    1
    46   143   144    1
    47   116   119    1
    48   116   115    1
    49   119   120    1
    50    89    88    1
    51    38    39    2
    52    90    88    1
    53   115   112   am
    54    88    85    1
    55   144   145    1
    56   144   147    1
    57    39    41    1
    58    39    40    1
    59   120   122   ar
    60   120   121   ar
    61    87    86    2
    62   122   124   ar
    63    86    85    1
    64   113   112    2
    65   112   111    1
    66   145   146    2
    67   145   153   am
    68   147   148    1
    69    85    84    1
    70   153   154    1
    71   114   111    1
    72   121   123   ar
    73   124   125   ar
    74   111   110    1
    75   154   155    1
    76    30    29   ar
    77    30    28   ar
    78    29    27   ar
    79   148   150   ar
    80   148   149   ar
    81    84    75   am
    82    28    26   ar
    83   123   125   ar
    84    27    24   ar
    85   150   152   ar
    86   125   126    1
    87    26    24   ar
    88    26    25   ar
    89    24    22   ar
    90   110   106   am
    91   155   156    2
    92   155   157   am
    93    25    23   ar
    94    76    75    2
    95    75    74    1
    96   149   151   ar
    97    22    23   ar
    98    22    21    1
    99    21    18    1
   100   152   151   ar
   101   157   158    1
   102   106   107    2
   103   106   105    1
   104    74    73    1
   105    74    77    1
   106    79    81   ar
   107    79    78   ar
   108    81    83   ar
   109    48    49    1
   110    17    18    1
   111    18    19    1
   112    54    52    1
   113    64    62   ar
   114    64    63   ar
   115   105   108    1
   116   105   104    1
   117   158   159    1
   118   108   109    1
   119    77    78    1
   120    62    60   ar
   121    52    49    1
   122    52    53    1
   123    78    80   ar
   124    51    50    2
   125   160   159    2
   126    49    50    1
   127    83    82   ar
   128    19    20    2
   129   159   161   am
   130    63    61   ar
   131   104   102   am
   132    60    61   ar
   133    60    59    1
   134    80    82   ar
   135   167   165    1
   136   161   162    1
   137   103   102    2
   138   102   101    1
   139    59    56    1
   140   162   165    1
   141   162   163    1
   142    55    56    1
   143   165   166    1
   144    56    57    1
   145   101   100    1
   146    58    57    2
   147   163   164    2
   148    68    67    2
   149    72    70   am
   150    69    70    1
   151    69    66    1
   152    67    66    1
   153    70    71    2
   154    99    98    1
   155    66    65    1
   156    98    97    1
   157    97    96    1
   158    96    95    1
   159    95    92    1
   160    93    92    1
   161    93    94    2
   162    92    91    1
