@<TRIPOS>MOLECULE
tmp/4tvyB01.pdb
 148 140 0 0 0
SMALL
GASTEIGER

@<TRIPOS>ATOM
      1  N         11.2190   -3.8420  -10.9060 N.3    17  LEU17      -0.1245
      2  CA        11.4900   -4.9900  -11.7760 C.3    17  LEU17       0.1561
      3  C         11.8400   -4.5680  -13.1970 C.2    17  LEU17       0.2260
      4  O         12.7240   -5.1520  -13.8280 O.2    17  LEU17      -0.2867
      5  CB        10.2990   -5.9500  -11.8370 C.3    17  LEU17       0.0270
      6  CG         9.8750   -6.7130  -10.5850 C.3    17  LEU17       0.0019
      7  CD1        8.9340   -7.8630  -10.9380 C.3    17  LEU17       0.0001
      8  CD2       11.0900   -7.2410   -9.8630 C.3    17  LEU17       0.0001
      9  N         15.3240   -3.5520  -13.1730 N.3    20  ALA20      -0.1245
     10  CA        16.1880   -4.7220  -13.0890 C.3    20  ALA20       0.1562
     11  C         16.2170   -5.4630  -14.4230 C.2    20  ALA20       0.2260
     12  O         17.2520   -5.9810  -14.8350 O.2    20  ALA20      -0.2867
     13  CB        15.7310   -5.6350  -11.9780 C.3    20  ALA20       0.0290
     14  N         16.9810   -0.8800   -4.3480 N.3    37  TRP37      -0.1241
     15  CA        15.5670   -0.5340   -4.2620 C.3    37  TRP37       0.1605
     16  C         14.8670   -1.3400   -3.1890 C.2    37  TRP37       0.2264
     17  O         15.4540   -2.2420   -2.5780 O.2    37  TRP37      -0.2867
     18  CB        14.8730   -0.7680   -5.6080 C.3    37  TRP37       0.0550
     19  CG        14.5670   -2.2280   -5.9040 C.ar   37  TRP37       0.0003
     20  CD1       13.3640   -2.8640   -5.7540 C.ar   37  TRP37       0.0946
     21  CD2       15.4790   -3.2100   -6.4150 C.ar   37  TRP37       0.0152
     22  NE1       13.4760   -4.1820   -6.1390 N.ar   37  TRP37      -0.2442
     23  CE2       14.7630   -4.4160   -6.5480 C.ar   37  TRP37       0.0810
     24  CE3       16.8290   -3.1820   -6.7770 C.ar   37  TRP37       0.0012
     25  CZ2       15.3600   -5.5890   -7.0250 C.ar   37  TRP37       0.0191
     26  CZ3       17.4170   -4.3380   -7.2430 C.ar   37  TRP37       0.0001
     27  CH2       16.6840   -5.5270   -7.3680 C.ar   37  TRP37       0.0015
     28  N         10.4970   -2.7080   -2.4000 N.3    39  ASN39      -0.1240
     29  CA         9.1270   -2.6880   -2.8640 C.3    39  ASN39       0.1653
     30  C          8.1320   -2.5650   -1.7210 C.2    39  ASN39       0.2266
     31  O          8.4270   -2.9370   -0.5820 O.2    39  ASN39      -0.2867
     32  CB         8.8240   -3.9660   -3.6510 C.3    39  ASN39       0.1155
     33  CG         9.7890   -4.1910   -4.7880 C.2    39  ASN39       0.2627
     34  OD1       10.1960   -3.2510   -5.4690 O.2    39  ASN39      -0.2716
     35  ND2       10.1650   -5.4420   -4.9990 N.am   39  ASN39      -0.0877
     36  N          6.1930  -11.7870   -5.9540 N.3    44  VAL44      -0.1245
     37  CA         6.8810  -11.9690   -7.2300 C.3    44  VAL44       0.1561
     38  C          6.8640  -13.4560   -7.5930 C.2    44  VAL44       0.2260
     39  O          7.3040  -14.2990   -6.8030 O.2    44  VAL44      -0.2867
     40  CB         8.3310  -11.4450   -7.1780 C.3    44  VAL44       0.0252
     41  CG1        8.9760  -11.5080   -8.5530 C.3    44  VAL44       0.0019
     42  CG2        8.3470  -10.0060   -6.6730 C.3    44  VAL44       0.0019
     43  N          8.1620  -12.0840  -12.8430 N.3    70  ARG70      -0.1245
     44  CA         9.4870  -11.8690  -13.4200 C.3    70  ARG70       0.1563
     45  C          9.6670  -12.7050  -14.6840 C.2    70  ARG70       0.2260
     46  O          8.8110  -13.5300  -15.0180 O.2    70  ARG70      -0.2867
     47  CB        10.5890  -12.1640  -12.3920 C.3    70  ARG70       0.0307
     48  CG        10.3950  -13.4590  -11.5950 C.3    70  ARG70       0.0489
     49  CD        11.5610  -13.7390  -10.6480 C.3    70  ARG70       0.2205
     50  NE        11.5500  -15.1350  -10.2150 N.pl3  70  ARG70      -0.0865
     51  CZ        10.8910  -15.5840   -9.1500 C.cat  70  ARG70       0.5346
     52  NH1       10.1970  -14.7440   -8.3950 N.pl3  70  ARG70       0.1354
     53  NH2       10.9200  -16.8750   -8.8390 N.pl3  70  ARG70       0.1354
     54  N         12.4240  -14.5710  -15.2280 N.3    72  SER72      -0.1202
     55  CA        13.1450  -15.7820  -14.8590 C.3    72  SER72       0.2020
     56  C         12.1740  -16.8460  -14.3490 C.2    72  SER72       0.2619
     57  O         11.0540  -16.5290  -13.9180 O.2    72  SER72      -0.2717
     58  CB        14.1860  -15.4720  -13.7830 C.3    72  SER72       0.2103
     59  OG        13.5690  -15.0410  -12.5840 O.3    72  SER72      -0.2182
     60  N         12.5940  -18.1090  -14.4100 N.am   73  GLY73      -0.1942
     61  CA        11.8260  -19.1960  -13.8250 C.3    73  GLY73       0.2014
     62  C         11.8860  -19.1420  -12.3060 C.2    73  GLY73       0.2639
     63  O         12.3560  -18.1490  -11.7410 O.2    73  GLY73      -0.2714
     64  N         11.4020  -20.1940  -11.6430 N.am   74  GLY74      -0.1939
     65  CA        11.4810  -20.2820  -10.1940 C.3    74  GLY74       0.2014
     66  C         10.1500  -20.1180   -9.4840 C.2    74  GLY74       0.2639
     67  O          9.0910  -20.0150  -10.1260 O.2    74  GLY74      -0.2714
     68  N         10.2030  -20.0900   -8.1530 N.am   75  GLY75      -0.1939
     69  CA         9.0030  -19.9870   -7.3370 C.3    75  GLY75       0.2014
     70  C          8.6380  -18.5720   -6.9140 C.2    75  GLY75       0.2639
     71  O          9.2340  -17.5960   -7.3740 O.2    75  GLY75      -0.2714
     72  N          7.6560  -18.4650   -6.0230 N.am   76  ALA76      -0.1963
     73  CA         7.1140  -17.1640   -5.6270 C.3    76  ALA76       0.1728
     74  C          7.7890  -16.5780   -4.3850 C.2    76  ALA76       0.2616
     75  O          8.0410  -17.2880   -3.4080 O.2    76  ALA76      -0.2715
     76  CB         5.6160  -17.2640   -5.4080 C.3    76  ALA76       0.0334
     77  N          8.0500  -15.2740   -4.4250 N.am   77  VAL77      -0.1977
     78  CA         8.6700  -14.5580   -3.3100 C.3    77  VAL77       0.1596
     79  C          7.7310  -13.4730   -2.7680 C.2    77  VAL77       0.2287
     80  O          6.9320  -12.9070   -3.5210 O.2    77  VAL77      -0.2864
     81  CB         9.9820  -13.8960   -3.7600 C.3    77  VAL77       0.0276
     82  CG1       10.5770  -13.0750   -2.6360 C.3    77  VAL77       0.0022
     83  CG2       10.9690  -14.9490   -4.2150 C.3    77  VAL77       0.0022
     84  N          7.7660   -9.7110   -0.9220 N.3    79  HIS79      -0.1241
     85  CA         8.5230   -8.5330   -0.4900 C.3    79  HIS79       0.1621
     86  C          7.6330   -7.5770    0.3030 C.2    79  HIS79       0.2264
     87  O          6.4340   -7.4480    0.0240 O.2    79  HIS79      -0.2867
     88  CB         9.0670   -7.7540   -1.6940 C.3    79  HIS79       0.0745
     89  CG        10.0250   -8.5200   -2.5510 C.ar   79  HIS79       0.0817
     90  ND1       11.1820   -9.0950   -2.0580 N.ar   79  HIS79      -0.2268
     91  CD2       10.0220   -8.7730   -3.8830 C.ar   79  HIS79       0.1154
     92  CE1       11.8370   -9.6760   -3.0450 C.ar   79  HIS79       0.1986
     93  NE2       11.1570   -9.4970   -4.1640 N.ar   79  HIS79      -0.2212
     94  N         16.4640   -4.5200   -1.6110 N.3    85  CYS85      -0.1235
     95  CA        16.9060   -5.3100   -2.7580 C.3    85  CYS85       0.1677
     96  C         18.1050   -4.7090   -3.4600 C.2    85  CYS85       0.2270
     97  O         18.2750   -3.4740   -3.5010 O.2    85  CYS85      -0.2867
     98  CB        15.7710   -5.5000   -3.7590 C.3    85  CYS85       0.0956
     99  SG        14.3890   -6.4360   -3.0900 S.3    85  CYS85      -0.0801
    100  N         19.3300  -14.8680   -2.7660 N.3   137  SER137     -0.1202
    101  CA        19.6400  -14.2310   -4.0400 C.3   137  SER137      0.2020
    102  C         19.5970  -15.2270   -5.1890 C.2   137  SER137      0.2619
    103  O         19.3310  -16.4150   -4.9900 O.2   137  SER137     -0.2717
    104  CB        21.0010  -13.5320   -3.9850 C.3   137  SER137      0.2103
    105  OG        22.0630  -14.4560   -3.7800 O.3   137  SER137     -0.2182
    106  N         19.8450  -14.7300   -6.3950 N.am  138  ALA138     -0.1965
    107  CA        19.8320  -15.5740   -7.5800 C.3   138  ALA138      0.1728
    108  C         20.7700  -15.0100   -8.6410 C.2   138  ALA138      0.2616
    109  O         21.0110  -13.8000   -8.6950 O.2   138  ALA138     -0.2715
    110  CB        18.4270  -15.7040   -8.1260 C.3   138  ALA138      0.0334
    111  N         21.2980  -15.8880   -9.4830 N.am  139  TYR139     -0.1960
    112  CA        22.1940  -15.4570  -10.5380 C.3   139  TYR139      0.1771
    113  C         21.5470  -15.6610  -11.8920 C.2   139  TYR139      0.2619
    114  O         20.7690  -16.5940  -12.0830 O.2   139  TYR139     -0.2715
    115  CB        23.5180  -16.2140  -10.4530 C.3   139  TYR139      0.0574
    116  CG        24.1990  -16.0370   -9.1220 C.ar  139  TYR139     -0.0198
    117  CD1       23.8300  -16.8070   -8.0320 C.ar  139  TYR139     -0.0009
    118  CD2       25.2070  -15.0940   -8.9520 C.ar  139  TYR139     -0.0009
    119  CE1       24.4460  -16.6530   -6.8060 C.ar  139  TYR139      0.0417
    120  CE2       25.8350  -14.9340   -7.7250 C.ar  139  TYR139      0.0417
    121  CZ        25.4440  -15.7200   -6.6550 C.ar  139  TYR139      0.1957
    122  OH        26.0480  -15.5830   -5.4240 O.3   139  TYR139     -0.2866
    123  N         21.8720  -14.7750  -12.8230 N.am  140  ARG140     -0.1977
    124  CA        21.3350  -14.8380  -14.1700 C.3   140  ARG140      0.1597
    125  C         22.4730  -14.5310  -15.1290 C.2   140  ARG140      0.2287
    126  O         23.1830  -13.5390  -14.9550 O.2   140  ARG140     -0.2864
    127  CB        20.2150  -13.8090  -14.3290 C.3   140  ARG140      0.0334
    128  CG        19.2830  -14.0690  -15.4980 C.3   140  ARG140      0.0492
    129  CD        17.8410  -13.7600  -15.1200 C.3   140  ARG140      0.2205
    130  NE        17.6420  -12.3640  -14.7270 N.pl3 140  ARG140     -0.0865
    131  CZ        16.7750  -11.5380  -15.3110 C.cat 140  ARG140      0.5346
    132  NH1       16.6580  -10.2840  -14.8880 N.pl3 140  ARG140      0.1354
    133  NH2       16.0250  -11.9650  -16.3230 N.pl3 140  ARG140      0.1354
    134  N         17.8420   -9.9790   -1.9270 N.3   151  THR151     -0.1218
    135  CA        17.2380   -9.1200   -0.9230 C.3   151  THR151      0.1862
    136  C         17.8690   -9.3510    0.4360 C.2   151  THR151      0.2287
    137  O         18.2610  -10.4680    0.7790 O.2   151  THR151     -0.2866
    138  CB        15.7290   -9.3670   -0.7880 C.3   151  THR151      0.1770
    139  OG1       15.5100  -10.5470   -0.0070 O.3   151  THR151     -0.2211
    140  CG2       15.0920   -9.5260   -2.1540 C.3   151  THR151      0.0375
    141  N         13.3110  -23.9050  -12.5750 N.3   269  LEU269     -0.1245
    142  CA        14.2340  -22.8420  -12.9350 C.3   269  LEU269      0.1561
    143  C         14.4820  -22.8550  -14.4390 C.2   269  LEU269      0.2260
    144  O         15.0690  -21.9210  -14.9930 O.2   269  LEU269     -0.2867
    145  CB        15.5580  -22.9980  -12.1710 C.3   269  LEU269      0.0270
    146  CG        15.4890  -22.9430  -10.6390 C.3   269  LEU269      0.0019
    147  CD1       16.8690  -23.1450  -10.0420 C.3   269  LEU269      0.0001
    148  CD2       14.9260  -21.6110  -10.1840 C.3   269  LEU269      0.0001
@<TRIPOS>BOND
     1   133   131    1
     2   128   129    1
     3   128   127    1
     4   131   132    1
     5   131   130    2
     6    54    55    1
     7   125   126    2
     8   125   124    1
     9   129   130    1
    10    46    45    2
    11   144   143    2
    12    55    56    1
    13    55    58    1
    14    12    11    2
    15    45    44    1
    16   143   142    1
    17    11    10    1
    18    60    56   am
    19    60    61    1
    20    56    57    2
    21   127   124    1
    22   124   123    1
    23     4     3    2
    24    61    62    1
    25    58    59    1
    26    44    43    1
    27    44    47    1
    28     3     2    1
    29     9    10    1
    30    10    13    1
    31   142   141    1
    32   142   145    1
    33   123   113   am
    34    47    48    1
    35    62    63    2
    36    62    64   am
    37   145   146    1
    38   114   113    2
    39   113   112    1
    40     5     2    1
    41     5     6    1
    42     2     1    1
    43    64    65    1
    44    48    49    1
    45     7     6    1
    46    49    50    1
    47   146   148    1
    48   146   147    1
    49     6     8    1
    50   112   115    1
    51   112   111    1
    52   115   116    1
    53    50    51    2
    54    65    66    1
    55    67    66    2
    56    66    68   am
    57   111   108   am
    58    51    53    1
    59    51    52    1
    60   116   118   ar
    61   116   117   ar
    62   118   120   ar
    63   109   108    2
    64   108   107    1
    65    41    40    1
    66    68    69    1
    67   110   107    1
    68   117   119   ar
    69   120   121   ar
    70    38    37    1
    71    38    39    2
    72   107   106    1
    73    71    70    2
    74    27    26   ar
    75    27    25   ar
    76    69    70    1
    77    26    24   ar
    78    37    40    1
    79    37    36    1
    80    40    42    1
    81    25    23   ar
    82    70    72   am
    83   119   121   ar
    84    24    21   ar
    85   121   122    1
    86    23    21   ar
    87    23    22   ar
    88    21    19   ar
    89   106   102   am
    90    22    20   ar
    91    72    73    1
    92    19    20   ar
    93    19    18    1
    94    73    76    1
    95    73    74    1
    96    18    15    1
    97    34    33    2
    98   102   103    2
    99   102   101    1
   100    35    33   am
   101    33    32    1
   102    77    74   am
   103    77    78    1
   104    74    75    2
   105    14    15    1
   106    15    16    1
   107    83    81    1
   108    93    91   ar
   109    93    92   ar
   110   101   104    1
   111   101   100    1
   112   104   105    1
   113    91    89   ar
   114    81    78    1
   115    81    82    1
   116    98    99    1
   117    98    95    1
   118    32    29    1
   119    80    79    2
   120    97    96    2
   121    96    95    1
   122    78    79    1
   123    16    17    2
   124    92    90   ar
   125    29    28    1
   126    29    30    1
   127    95    94    1
   128    89    90   ar
   129    89    88    1
   130   140   138    1
   131   134   135    1
   132    30    31    2
   133    88    85    1
   134   135   138    1
   135   135   136    1
   136    84    85    1
   137   138   139    1
   138    85    86    1
   139    87    86    2
   140   136   137    2
