@<TRIPOS>MOLECULE
tmp/4tvzA08.pdb
 93 88 0 0 0
SMALL
GASTEIGER

@<TRIPOS>ATOM
      1  N         -0.3430  -17.4630   29.3420 N.3    25  TYR25      -0.1241
      2  CA        -0.9740  -18.3750   28.4030 C.3    25  TYR25       0.1605
      3  C          0.0340  -19.0840   27.5220 C.2    25  TYR25       0.2264
      4  O          1.0270  -18.5000   27.0850 O.2    25  TYR25      -0.2867
      5  CB        -1.9860  -17.6200   27.5360 C.3    25  TYR25       0.0534
      6  CG        -3.2290  -17.2150   28.2940 C.ar   25  TYR25      -0.0201
      7  CD1       -3.2650  -16.0400   29.0270 C.ar   25  TYR25      -0.0009
      8  CD2       -4.3630  -18.0130   28.2840 C.ar   25  TYR25      -0.0009
      9  CE1       -4.3950  -15.6690   29.7280 C.ar   25  TYR25       0.0417
     10  CE2       -5.5000  -17.6500   28.9820 C.ar   25  TYR25       0.0417
     11  CZ        -5.5100  -16.4770   29.7010 C.ar   25  TYR25       0.1957
     12  OH        -6.6370  -16.1060   30.3990 O.3    25  TYR25      -0.2866
     13  N         -0.1720  -21.2210   23.9480 N.3    27  GLN27      -0.1245
     14  CA        -0.9710  -21.6450   22.8110 C.3    27  GLN27       0.1566
     15  C         -0.1790  -22.6550   21.9950 C.2    27  GLN27       0.2260
     16  O          1.0100  -22.4670   21.7510 O.2    27  GLN27      -0.2867
     17  CB        -1.3670  -20.4390   21.9590 C.3    27  GLN27       0.0367
     18  CG        -2.5670  -19.6670   22.4910 C.3    27  GLN27       0.0905
     19  CD        -2.3990  -18.1730   22.3460 C.2    27  GLN27       0.2608
     20  OE1       -1.3250  -17.6350   22.6170 O.2    27  GLN27      -0.2717
     21  NE2       -3.4560  -17.4930   21.9160 N.am   27  GLN27      -0.0878
     22  N          0.6010  -25.0210   18.6160 N.3    29  TYR29      -0.1241
     23  CA         0.4670  -25.0660   17.1620 C.3    29  TYR29       0.1605
     24  C          1.0810  -26.3170   16.5520 C.2    29  TYR29       0.2264
     25  O          2.2910  -26.5180   16.6190 O.2    29  TYR29      -0.2867
     26  CB         1.1050  -23.8300   16.5220 C.3    29  TYR29       0.0534
     27  CG         0.4760  -22.5220   16.9350 C.ar   29  TYR29      -0.0201
     28  CD1        1.0800  -21.7040   17.8770 C.ar   29  TYR29      -0.0009
     29  CD2       -0.7370  -22.1160   16.3970 C.ar   29  TYR29      -0.0009
     30  CE1        0.5040  -20.5060   18.2590 C.ar   29  TYR29       0.0417
     31  CE2       -1.3200  -20.9190   16.7720 C.ar   29  TYR29       0.0417
     32  CZ        -0.6970  -20.1200   17.7060 C.ar   29  TYR29       0.1957
     33  OH        -1.2770  -18.9310   18.0860 O.3    29  TYR29      -0.2866
     34  N          5.5410  -12.5870   14.0520 N.3   326  ASP326     -0.1225
     35  CA         4.8500  -13.6810   14.7340 C.3   326  ASP326      0.1805
     36  C          5.7650  -14.6650   15.4740 C.2   326  ASP326      0.2597
     37  O          5.4330  -15.1310   16.5600 O.2   326  ASP326     -0.2718
     38  CB         3.9990  -14.4610   13.7270 C.3   326  ASP326      0.1424
     39  CG         2.8790  -13.6260   13.1370 C.2   326  ASP326      0.3668
     40  OD1        2.5760  -12.5520   13.6960 O.co2 326  ASP326     -0.2456
     41  OD2        2.2990  -14.0460   12.1130 O.co2 326  ASP326     -0.2456
     42  N          6.9040  -14.9940   14.8700 N.am  327  HIS327     -0.1975
     43  CA         7.7480  -16.0810   15.3720 C.3   327  HIS327      0.1656
     44  C          8.9600  -15.6600   16.2030 C.2   327  HIS327      0.2291
     45  O          9.7140  -16.5110   16.6790 O.2   327  HIS327     -0.2864
     46  CB         8.1880  -16.9410   14.1890 C.3   327  HIS327      0.0771
     47  CG         7.0510  -17.3420   13.3030 C.ar  327  HIS327      0.0820
     48  ND1        7.2080  -17.6250   11.9630 N.ar  327  HIS327     -0.2267
     49  CD2        5.7320  -17.5000   13.5710 C.ar  327  HIS327      0.1154
     50  CE1        6.0340  -17.9450   11.4460 C.ar  327  HIS327      0.1986
     51  NE2        5.1230  -17.8750   12.4000 N.ar  327  HIS327     -0.2212
     52  N          6.3260  -12.5270   24.8300 N.3   344  ALA344     -0.1245
     53  CA         5.9220  -13.7310   24.1220 C.3   344  ALA344      0.1562
     54  C          7.1650  -14.5780   23.8840 C.2   344  ALA344      0.2260
     55  O          8.1700  -14.0930   23.3610 O.2   344  ALA344     -0.2867
     56  CB         5.2310  -13.3900   22.8090 C.3   344  ALA344      0.0290
     57  N          8.6400  -18.1330   22.2470 N.3   346  ARG346     -0.1245
     58  CA         8.2490  -19.1180   21.2490 C.3   346  ARG346      0.1563
     59  C          9.3730  -20.0460   20.8300 C.2   346  ARG346      0.2260
     60  O         10.4190  -19.6210   20.3370 O.2   346  ARG346     -0.2867
     61  CB         7.6710  -18.4120   20.0190 C.3   346  ARG346      0.0307
     62  CG         6.5530  -17.4340   20.3430 C.3   346  ARG346      0.0489
     63  CD         6.3330  -16.4330   19.2320 C.3   346  ARG346      0.2205
     64  NE         5.2430  -15.5110   19.5420 N.pl3 346  ARG346     -0.0865
     65  CZ         5.2920  -14.2000   19.3240 C.cat 346  ARG346      0.5346
     66  NH1        6.3790  -13.6590   18.7930 N.pl3 346  ARG346      0.1354
     67  NH2        4.2590  -13.4300   19.6340 N.pl3 346  ARG346      0.1354
     68  N          4.9800  -25.9280   17.4970 N.3   374  TYR374     -0.1241
     69  CA         5.5450  -24.7850   18.2100 C.3   374  TYR374      0.1605
     70  C          4.5040  -24.1260   19.1080 C.2   374  TYR374      0.2264
     71  O          3.3200  -24.4610   19.0550 O.2   374  TYR374     -0.2867
     72  CB         6.1590  -23.7580   17.2390 C.3   374  TYR374      0.0534
     73  CG         5.2110  -22.9180   16.4050 C.ar  374  TYR374     -0.0201
     74  CD1        4.8600  -23.3040   15.1210 C.ar  374  TYR374     -0.0009
     75  CD2        4.7170  -21.7070   16.8780 C.ar  374  TYR374     -0.0009
     76  CE1        4.0180  -22.5270   14.3430 C.ar  374  TYR374      0.0417
     77  CE2        3.8750  -20.9260   16.1040 C.ar  374  TYR374      0.0417
     78  CZ         3.5300  -21.3420   14.8400 C.ar  374  TYR374      0.1957
     79  OH         2.6920  -20.5690   14.0700 O.3   374  TYR374     -0.2866
     80  N          3.3640  -20.4310   21.6940 N.3   376  ASN376     -0.1240
     81  CA         3.5480  -19.0590   22.1570 C.3   376  ASN376      0.1653
     82  C          3.2560  -18.9730   23.6500 C.2   376  ASN376      0.2266
     83  O          2.1130  -19.1270   24.0840 O.2   376  ASN376     -0.2867
     84  CB         2.6570  -18.0730   21.3770 C.3   376  ASN376      0.1155
     85  CG         2.8180  -16.6220   21.8560 C.2   376  ASN376      0.2627
     86  OD1        3.6170  -16.3480   22.7520 O.2   376  ASN376     -0.2716
     87  ND2        2.0700  -15.6870   21.2580 N.am  376  ASN376     -0.0877
     88  N          2.8280  -16.5380   26.4070 N.3   378  SER378     -0.1217
     89  CA         2.5260  -15.1150   26.3330 C.3   378  SER378      0.1889
     90  C          1.9680  -14.5550   27.6270 C.2   378  SER378      0.2288
     91  O          1.2840  -15.2510   28.3780 O.2   378  SER378     -0.2866
     92  CB         1.5400  -14.8420   25.1920 C.3   378  SER378      0.2089
     93  OG         0.4510  -15.7490   25.2150 O.3   378  SER378     -0.2183
@<TRIPOS>BOND
     1    50    48   ar
     2    50    51   ar
     3    48    47   ar
     4    41    39   ar
     5    51    49   ar
     6    39    40   ar
     7    39    38    1
     8    47    49   ar
     9    47    46    1
    10    38    35    1
    11    34    35    1
    12    79    78    1
    13    46    43    1
    14    76    78   ar
    15    76    74   ar
    16    35    36    1
    17    78    77   ar
    18    42    43    1
    19    42    36   am
    20    74    73   ar
    21    43    44    1
    22    36    37    2
    23    77    75   ar
    24    44    45    2
    25    29    31   ar
    26    29    27   ar
    27    73    75   ar
    28    73    72    1
    29    26    27    1
    30    26    23    1
    31    24    25    2
    32    24    23    1
    33    31    32   ar
    34    27    28   ar
    35    23    22    1
    36    72    69    1
    37    68    69    1
    38    32    33    1
    39    32    30   ar
    40    28    30   ar
    41    69    70    1
    42    66    65    1
    43    71    70    2
    44    63    64    1
    45    63    62    1
    46    65    64    2
    47    65    67    1
    48    61    62    1
    49    61    58    1
    50    60    59    2
    51    59    58    1
    52    58    57    1
    53    87    85   am
    54    84    85    1
    55    84    81    1
    56    80    81    1
    57    16    15    2
    58    85    86    2
    59    21    19   am
    60    17    18    1
    61    17    14    1
    62    15    14    1
    63    81    82    1
    64    19    18    1
    65    19    20    2
    66    56    53    1
    67    14    13    1
    68    55    54    2
    69    82    83    2
    70    54    53    1
    71    53    52    1
    72    92    93    1
    73    92    89    1
    74    89    88    1
    75    89    90    1
    76     4     3    2
    77     3     2    1
    78     5     6    1
    79     5     2    1
    80    90    91    2
    81     8     6   ar
    82     8    10   ar
    83     6     7   ar
    84     2     1    1
    85    10    11   ar
    86     7     9   ar
    87    11     9   ar
    88    11    12    1
