@<TRIPOS>MOLECULE
tmp/4tw6A00.pdb
 204 199 0 0 0
SMALL
GASTEIGER

@<TRIPOS>ATOM
      1  N         -2.7840    9.1260   -9.9730 N.3    45  TYR45      -0.1241
      2  CA        -3.5620    8.9840  -11.2310 C.3    45  TYR45       0.1605
      3  C         -4.5110   10.1030  -11.4000 C.2    45  TYR45       0.2264
      4  O         -4.8550   10.8030  -10.4460 O.2    45  TYR45      -0.2867
      5  CB        -4.3110    7.6390  -11.3050 C.3    45  TYR45       0.0534
      6  CG        -5.5770    7.6770  -10.4800 C.ar   45  TYR45      -0.0201
      7  CD1       -6.8180    7.9180  -11.0320 C.ar   45  TYR45      -0.0009
      8  CD2       -5.5390    7.4290   -9.0910 C.ar   45  TYR45      -0.0009
      9  CE1       -7.9470    8.0540  -10.2320 C.ar   45  TYR45       0.0417
     10  CE2       -6.6370    7.5540   -8.3190 C.ar   45  TYR45       0.0417
     11  CZ        -7.8300    7.8170   -8.8760 C.ar   45  TYR45       0.1957
     12  OH        -8.9970    7.9500   -8.1120 O.3    45  TYR45      -0.2866
     13  N         -8.3280   10.3700  -13.9570 N.3    47  GLY47      -0.1210
     14  CA        -9.1440    9.7090  -14.9450 C.3    47  GLY47       0.1956
     15  C        -10.4780   10.3400  -15.1550 C.2    47  GLY47       0.2612
     16  O        -10.8500   11.3190  -14.5510 O.2    47  GLY47      -0.2717
     17  N        -11.1200    9.8190  -16.1370 N.am   48  LYS48      -0.1965
     18  CA       -12.4150   10.3610  -16.6680 C.3    48  LYS48       0.1728
     19  C        -13.1480    9.3580  -17.4420 C.2    48  LYS48       0.2616
     20  O        -12.6550    8.3300  -17.8320 O.2    48  LYS48      -0.2715
     21  CB       -12.1360   11.6050  -17.5020 C.3    48  LYS48       0.0311
     22  CG       -11.1810   11.3540  -18.5970 C.3    48  LYS48       0.0038
     23  CD       -11.2640   12.5380  -19.5500 C.3    48  LYS48       0.0206
     24  CE       -10.2210   12.5110  -20.5370 C.3    48  LYS48       0.1093
     25  NZ       -10.4200   13.6330  -21.5270 N.3    48  LYS48      -0.1314
     26  N        -14.4610    9.6410  -17.6680 N.am   49  LEU49      -0.1977
     27  CA       -15.1720    8.9260  -18.7010 C.3    49  LEU49       0.1596
     28  C        -14.5360    9.2490  -20.0480 C.2    49  LEU49       0.2287
     29  O        -13.9950   10.3670  -20.2420 O.2    49  LEU49      -0.2864
     30  CB       -16.6400    9.3270  -18.7610 C.3    49  LEU49       0.0297
     31  CG       -17.4370    9.1490  -17.5020 C.3    49  LEU49       0.0022
     32  CD1      -18.9040    9.5490  -17.8140 C.3    49  LEU49       0.0001
     33  CD2      -17.3800    7.7660  -16.8830 C.3    49  LEU49       0.0001
     34  N        -17.0030   13.5170  -15.7470 N.3    54  LYS54      -0.1245
     35  CA       -16.6940   12.8790  -14.4610 C.3    54  LYS54       0.1561
     36  C        -15.1750   12.7700  -14.1760 C.2    54  LYS54       0.2260
     37  O        -14.6670   11.6980  -13.7140 O.2    54  LYS54      -0.2867
     38  CB       -17.3700   11.4940  -14.2860 C.3    54  LYS54       0.0271
     39  CG       -18.8730   11.4850  -14.6750 C.3    54  LYS54       0.0035
     40  CD       -19.7820   11.8340  -13.4980 C.3    54  LYS54       0.0206
     41  CE       -21.3050   11.8220  -13.8350 C.3    54  LYS54       0.1093
     42  NZ       -21.8300   10.8870  -14.8980 N.3    54  LYS54      -0.1314
     43  N        -11.7070   12.6180  -12.2140 N.3    56  ASP56      -0.1239
     44  CA       -11.2650   12.2800  -10.9390 C.3    56  ASP56       0.1674
     45  C         -9.8130   12.6640  -10.7600 C.2    56  ASP56       0.2266
     46  O         -8.9560   12.0600  -11.4350 O.2    56  ASP56      -0.2867
     47  CB       -11.5430   10.7480  -10.6910 C.3    56  ASP56       0.1410
     48  CG       -10.9090   10.2140   -9.4590 C.2    56  ASP56       0.3668
     49  OD1      -10.5370   11.0410   -8.5480 O.co2  56  ASP56      -0.2456
     50  OD2      -10.7980    8.9650   -9.4500 O.co2  56  ASP56      -0.2456
     51  N         -8.6390   13.0660   -7.4340 N.3    58  SER58      -0.1202
     52  CA        -8.5200   12.8000   -6.0210 C.3    58  SER58       0.2020
     53  C         -7.1090   12.3530   -5.6620 C.2    58  SER58       0.2618
     54  O         -6.7960   12.5360   -4.4770 O.2    58  SER58      -0.2717
     55  CB        -9.5800   11.7080   -5.6100 C.3    58  SER58       0.2103
     56  OG        -9.3240   10.4840   -6.2850 O.3    58  SER58      -0.2182
     57  N         -6.3530   11.7190   -6.5520 N.am   59  HIS59      -0.1975
     58  CA        -5.0600   11.2230   -6.2370 C.3    59  HIS59       0.1656
     59  C         -4.0880   11.6660   -7.2970 C.2    59  HIS59       0.2291
     60  O         -3.1540   10.9580   -7.5420 O.2    59  HIS59      -0.2864
     61  CB        -5.0650    9.7100   -6.0370 C.3    59  HIS59       0.0771
     62  CG        -5.9760    9.2250   -4.9050 C.ar   59  HIS59       0.0820
     63  ND1       -7.3500    9.1560   -5.0670 N.ar   59  HIS59      -0.2267
     64  CD2       -5.7270    8.9080   -3.6180 C.ar   59  HIS59       0.1154
     65  CE1       -7.9060    8.7130   -3.9440 C.ar   59  HIS59       0.1986
     66  NE2       -6.9340    8.5510   -3.0590 N.ar   59  HIS59      -0.2212
     67  N         -2.5650    6.8100   -3.8910 N.3    65  PHE65      -0.1227
     68  CA        -3.6200    5.8370   -3.9410 C.3    65  PHE65       0.1736
     69  C         -3.0020    4.4800   -3.6720 C.2    65  PHE65       0.2595
     70  O         -2.0240    4.1610   -4.3250 O.2    65  PHE65      -0.2718
     71  CB        -4.2240    5.9350   -5.3580 C.3    65  PHE65       0.0547
     72  CG        -5.4100    5.0660   -5.6150 C.ar   65  PHE65      -0.0202
     73  CD1       -6.6560    5.5400   -5.3620 C.ar   65  PHE65      -0.0042
     74  CD2       -5.3120    3.8690   -6.1410 C.ar   65  PHE65      -0.0042
     75  CE1       -7.7570    4.8290   -5.6600 C.ar   65  PHE65      -0.0003
     76  CE2       -6.4440    3.0900   -6.3870 C.ar   65  PHE65      -0.0003
     77  CZ        -7.6690    3.5950   -6.1510 C.ar   65  PHE65      -0.0000
     78  N         -3.4780    3.7410   -2.6900 N.am   66  VAL66      -0.1966
     79  CA        -2.8820    2.5080   -2.2540 C.3    66  VAL66       0.1727
     80  C         -3.8440    1.3720   -2.3030 C.2    66  VAL66       0.2616
     81  O         -5.0220    1.4730   -1.9030 O.2    66  VAL66      -0.2715
     82  CB        -2.3710    2.6430   -0.7950 C.3    66  VAL66       0.0290
     83  CG1       -1.6690    1.3910   -0.3310 C.3    66  VAL66       0.0023
     84  CG2       -1.4290    3.8550   -0.6510 C.3    66  VAL66       0.0023
     85  N         -3.4180    0.2300   -2.8800 N.am   67  PHE67      -0.1974
     86  CA        -4.2290   -0.9480   -2.8690 C.3    67  PHE67       0.1639
     87  C         -3.3270   -2.1880   -3.0560 C.2    67  PHE67       0.2290
     88  O         -2.1730   -2.0630   -3.4310 O.2    67  PHE67      -0.2864
     89  CB        -5.2930   -0.8600   -3.9540 C.3    67  PHE67       0.0560
     90  CG        -4.8170   -0.9600   -5.4210 C.ar   67  PHE67      -0.0200
     91  CD1       -4.9210   -2.1470   -6.1060 C.ar   67  PHE67      -0.0042
     92  CD2       -4.3030    0.1270   -6.0820 C.ar   67  PHE67      -0.0042
     93  CE1       -4.5140   -2.2610   -7.4130 C.ar   67  PHE67      -0.0003
     94  CE2       -3.9120    0.0200   -7.3910 C.ar   67  PHE67      -0.0003
     95  CZ        -3.9920   -1.1640   -8.0280 C.ar   67  PHE67      -0.0000
     96  N         -8.9640   -7.6030   -6.3590 N.3    72  GLY72      -0.1210
     97  CA       -10.3080   -7.0990   -6.6230 C.3    72  GLY72       0.1956
     98  C        -10.6090   -5.8680   -5.6950 C.2    72  GLY72       0.2612
     99  O        -11.7710   -5.5850   -5.3450 O.2    72  GLY72      -0.2717
    100  N         -9.5920   -5.1270   -5.3080 N.am   73  GLN73      -0.1965
    101  CA        -9.8220   -3.8680   -4.6060 C.3    73  GLN73       0.1733
    102  C        -10.1330   -2.6860   -5.5140 C.2    73  GLN73       0.2616
    103  O        -10.4930   -1.5910   -5.1020 O.2    73  GLN73      -0.2715
    104  CB        -8.5930   -3.5170   -3.7690 C.3    73  GLN73       0.0408
    105  CG        -8.4430   -4.4990   -2.5600 C.3    73  GLN73       0.0908
    106  CD        -7.2730   -4.2130   -1.6800 C.2    73  GLN73       0.2608
    107  OE1       -6.6180   -3.2390   -1.7660 O.2    73  GLN73      -0.2717
    108  NE2       -7.0400   -5.1660   -0.7540 N.am   73  GLN73      -0.0878
    109  N         -9.9140   -2.8980   -6.8360 N.am   74  VAL74      -0.1963
    110  CA       -10.1510   -1.9670   -7.9020 C.3    74  VAL74       0.1727
    111  C        -10.7820   -2.7090   -9.0560 C.2    74  VAL74       0.2616
    112  O        -10.8210   -3.9190   -9.0680 O.2    74  VAL74      -0.2715
    113  CB        -8.7900   -1.2950   -8.3730 C.3    74  VAL74       0.0290
    114  CG1       -8.1790   -0.4150   -7.2570 C.3    74  VAL74       0.0023
    115  CG2       -7.8370   -2.4160   -8.8000 C.3    74  VAL74       0.0023
    116  N        -11.2040   -1.9540  -10.0480 N.am   75  ILE75      -0.1963
    117  CA       -11.8090   -2.5590  -11.2440 C.3    75  ILE75       0.1727
    118  C        -10.7990   -3.4520  -11.9220 C.2    75  ILE75       0.2616
    119  O         -9.5350   -3.3010  -11.8270 O.2    75  ILE75      -0.2715
    120  CB       -12.2760   -1.5260  -12.2090 C.3    75  ILE75       0.0290
    121  CG1      -11.2520   -0.4610  -12.6140 C.3    75  ILE75       0.0022
    122  CG2      -13.5690   -0.8830  -11.6710 C.3    75  ILE75       0.0023
    123  CD1      -11.7180    0.4030  -13.7950 C.3    75  ILE75       0.0001
    124  N        -11.2850   -4.4020  -12.7150 N.am   76  LYS76      -0.1977
    125  CA       -10.4520   -5.3930  -13.3640 C.3    76  LYS76       0.1596
    126  C         -9.3930   -4.7750  -14.2000 C.2    76  LYS76       0.2287
    127  O         -8.2370   -5.2170  -14.2270 O.2    76  LYS76      -0.2864
    128  CB       -11.2790   -6.3500  -14.2410 C.3    76  LYS76       0.0298
    129  CG       -12.1600   -7.2830  -13.4300 C.3    76  LYS76       0.0038
    130  CD       -13.0180   -8.1200  -14.4170 C.3    76  LYS76       0.0206
    131  CE       -14.0730   -9.0200  -13.6870 C.3    76  LYS76       0.1093
    132  NZ       -14.4800  -10.1800  -14.5370 N.3    76  LYS76      -0.1314
    133  N         -7.6410   -2.2010  -13.8480 N.3    78  TRP78      -0.1241
    134  CA        -6.5030   -1.7780  -13.0000 C.3    78  TRP78       0.1605
    135  C         -5.7180   -2.9430  -12.4690 C.2    78  TRP78       0.2264
    136  O         -4.4740   -2.9030  -12.4520 O.2    78  TRP78      -0.2867
    137  CB        -6.9250   -0.8870  -11.8680 C.3    78  TRP78       0.0550
    138  CG        -6.9650    0.5930  -12.2310 C.ar   78  TRP78       0.0003
    139  CD1       -7.6150    1.1650  -13.2860 C.ar   78  TRP78       0.0946
    140  CD2       -6.3670    1.6420  -11.4950 C.ar   78  TRP78       0.0152
    141  NE1       -7.4260    2.5430  -13.2880 N.ar   78  TRP78      -0.2442
    142  CE2       -6.6640    2.8750  -12.1660 C.ar   78  TRP78       0.0810
    143  CE3       -5.5980    1.7030  -10.3360 C.ar   78  TRP78       0.0012
    144  CZ2       -6.1910    4.1160  -11.6640 C.ar   78  TRP78       0.0191
    145  CZ3       -5.1790    2.9080   -9.8980 C.ar   78  TRP78       0.0001
    146  CH2       -5.4350    4.1010  -10.5350 C.ar   78  TRP78       0.0015
    147  N        -17.1610   -1.0230  -14.8930 N.3   101  TYR101     -0.1241
    148  CA       -18.4820   -1.1190  -14.1590 C.3   101  TYR101      0.1605
    149  C        -19.5470   -1.8210  -14.9430 C.2   101  TYR101      0.2264
    150  O        -20.7110   -1.8490  -14.4060 O.2   101  TYR101     -0.2867
    151  CB       -18.8680    0.2570  -13.6400 C.3   101  TYR101      0.0534
    152  CG       -17.8060    0.8700  -12.7530 C.ar  101  TYR101     -0.0201
    153  CD1      -17.7570    0.5800  -11.3900 C.ar  101  TYR101     -0.0009
    154  CD2      -16.8230    1.6760  -13.2550 C.ar  101  TYR101     -0.0009
    155  CE1      -16.7800    1.1280  -10.5880 C.ar  101  TYR101      0.0417
    156  CE2      -15.8680    2.2290  -12.4250 C.ar  101  TYR101      0.0417
    157  CZ       -15.8000    1.8970  -11.1010 C.ar  101  TYR101      0.1957
    158  OH       -14.8350    2.4160  -10.2720 O.3   101  TYR101     -0.2866
    159  N        -22.9990   -0.0820  -14.3190 N.3   105  GLY105     -0.1210
    160  CA       -22.4660    1.1790  -13.9350 C.3   105  GLY105      0.1956
    161  C        -22.1890    1.3530  -12.4290 C.2   105  GLY105      0.2612
    162  O        -22.1100    0.3220  -11.7160 O.2   105  GLY105     -0.2717
    163  N        -22.0080    2.5680  -11.9950 N.am  106  SER106     -0.1952
    164  CA       -21.9530    2.8720  -10.5710 C.3   106  SER106      0.1924
    165  C        -22.6120    4.2020  -10.4090 C.2   106  SER106      0.2314
    166  O        -21.9730    5.2120  -10.3440 O.2   106  SER106     -0.2863
    167  CB       -20.5270    2.9090  -10.0930 C.3   106  SER106      0.2116
    168  OG       -20.5140    2.9990   -8.6550 O.3   106  SER106     -0.2180
    169  N        -22.5610    8.4410  -10.5990 N.3   109  LYS109     -0.1231
    170  CA       -21.2230    8.8010  -11.0770 C.3   109  LYS109      0.1693
    171  C        -20.8290    8.1440  -12.4270 C.2   109  LYS109      0.2591
    172  O        -20.4460    8.8290  -13.3770 O.2   109  LYS109     -0.2718
    173  CB       -20.1870    8.4510  -10.0090 C.3   109  LYS109      0.0285
    174  CG       -18.7790    8.8600  -10.4620 C.3   109  LYS109      0.0035
    175  CD       -17.6030    8.1810   -9.7690 C.3   109  LYS109      0.0206
    176  CE       -17.3070    8.8510   -8.4650 C.3   109  LYS109      0.1093
    177  NZ       -16.6790   10.1690   -8.6910 N.3   109  LYS109     -0.1314
    178  N        -20.9210    6.8180  -12.5010 N.am  110  ILE110     -0.1980
    179  CA       -20.5200    6.1210  -13.7000 C.3   110  ILE110      0.1595
    180  C        -21.8010    5.5870  -14.4010 C.2   110  ILE110      0.2287
    181  O        -22.4650    4.7080  -13.8020 O.2   110  ILE110     -0.2864
    182  CB       -19.4880    5.0190  -13.3840 C.3   110  ILE110      0.0276
    183  CG1      -18.3090    5.5710  -12.5400 C.3   110  ILE110      0.0022
    184  CG2      -19.0650    4.4090  -14.6580 C.3   110  ILE110      0.0022
    185  CD1      -17.4300    6.4880  -13.3540 C.3   110  ILE110      0.0001
    186  N        -13.7780    4.1180  -19.6840 N.3   116  LEU116     -0.1245
    187  CA       -12.9800    4.9650  -18.7960 C.3   116  LEU116      0.1561
    188  C        -11.5650    5.1570  -19.3480 C.2   116  LEU116      0.2260
    189  O        -10.9850    4.2520  -19.9430 O.2   116  LEU116     -0.2867
    190  CB       -12.8650    4.3750  -17.3880 C.3   116  LEU116      0.0270
    191  CG       -14.1950    3.9800  -16.7860 C.3   116  LEU116      0.0019
    192  CD1      -13.9510    3.3640  -15.4140 C.3   116  LEU116      0.0001
    193  CD2      -15.1510    5.0890  -16.7670 C.3   116  LEU116      0.0001
    194  N         -7.6090    6.5510  -18.0040 N.3   118  PHE118     -0.1241
    195  CA        -6.7530    6.9140  -16.8920 C.3   118  PHE118      0.1605
    196  C         -5.3660    7.2330  -17.3330 C.2   118  PHE118      0.2264
    197  O         -4.8150    6.5800  -18.2580 O.2   118  PHE118     -0.2867
    198  CB        -6.6440    5.7960  -15.8670 C.3   118  PHE118      0.0534
    199  CG        -7.9650    5.3710  -15.2680 C.ar  118  PHE118     -0.0203
    200  CD1       -8.3790    5.9680  -14.0880 C.ar  118  PHE118     -0.0042
    201  CD2       -8.7100    4.3600  -15.7790 C.ar  118  PHE118     -0.0042
    202  CE1       -9.6230    5.5950  -13.5230 C.ar  118  PHE118     -0.0003
    203  CE2       -9.9280    3.9230  -15.2060 C.ar  118  PHE118     -0.0003
    204  CZ       -10.3620    4.5510  -14.0620 C.ar  118  PHE118     -0.0000
@<TRIPOS>BOND
     1    25    24    1
     2    24    23    1
     3    29    28    2
     4    28    27    1
     5   189   188    2
     6   186   187    1
     7    23    22    1
     8   188   187    1
     9   187   190    1
    10    30    27    1
    11    30    31    1
    12    27    26    1
    13    22    21    1
    14   197   196    2
    15   194   195    1
    16    20    19    2
    17    32    31    1
    18    26    19   am
    19    31    33    1
    20    21    18    1
    21    19    18    1
    22   190   191    1
    23   196   195    1
    24   195   198    1
    25   191   193    1
    26   191   192    1
    27    18    17    1
    28    17    15   am
    29   198   199    1
    30   201   199   ar
    31   201   203   ar
    32    34    35    1
    33   199   200   ar
    34   203   204   ar
    35    15    14    1
    36    15    16    2
    37    14    13    1
    38   149   150    2
    39   149   148    1
    40    42    41    1
    41   147   148    1
    42    39    38    1
    43    39    40    1
    44   184   182    1
    45   132   131    1
    46    35    38    1
    47    35    36    1
    48   130   131    1
    49   130   129    1
    50   180   181    2
    51   180   179    1
    52   159   160    1
    53   128   129    1
    54   128   125    1
    55   127   126    2
    56   126   125    1
    57    36    37    2
    58   148   151    1
    59   200   202   ar
    60   204   202   ar
    61   160   161    1
    62   133   134    1
    63    41    40    1
    64   123   121    1
    65   179   182    1
    66   179   178    1
    67   151   152    1
    68   182   183    1
    69   172   171    2
    70   125   124    1
    71   185   183    1
    72   141   139   ar
    73   141   142   ar
    74   139   138   ar
    75   154   152   ar
    76   154   156   ar
    77   134   135    1
    78   134   137    1
    79   152   153   ar
    80   124   118   am
    81   121   120    1
    82   178   171   am
    83   135   136    2
    84   161   163   am
    85   161   162    2
    86   171   170    1
    87   156   157   ar
    88   138   137    1
    89   138   140   ar
    90    43    44    1
    91   120   122    1
    92   120   117    1
    93   142   144   ar
    94   142   140   ar
    95   163   164    1
    96   118   119    2
    97   118   117    1
    98   144   146   ar
    99   140   143   ar
   100    46    45    2
   101     3     2    1
   102     3     4    2
   103   153   155   ar
   104     5     2    1
   105     5     6    1
   106   117   116    1
   107     2     1    1
   108   157   155   ar
   109   157   158    1
   110   170   169    1
   111   170   173    1
   112     7     6   ar
   113     7     9   ar
   114    44    45    1
   115    44    47    1
   116    47    48    1
   117   164   165    1
   118   164   167    1
   119   146   145   ar
   120     6     8   ar
   121   174   173    1
   122   174   175    1
   123   165   166    2
   124   143   145   ar
   125     9    11   ar
   126   167   168    1
   127   116   111   am
   128   175   176    1
   129    48    50   ar
   130    48    49   ar
   131     8    10   ar
   132   112   111    2
   133   111   110    1
   134    11    10   ar
   135    11    12    1
   136   115   113    1
   137   177   176    1
   138   113   110    1
   139   113   114    1
   140    95    93   ar
   141    95    94   ar
   142   110   109    1
   143    60    59    2
   144    51    52    1
   145    93    91   ar
   146    94    92   ar
   147    59    58    1
   148   109   102   am
   149    97    96    1
   150    97    98    1
   151    57    58    1
   152    57    53   am
   153    76    77   ar
   154    76    74   ar
   155    56    55    1
   156    58    61    1
   157    77    75   ar
   158    74    72   ar
   159    91    90   ar
   160    92    90   ar
   161    61    62    1
   162    52    53    1
   163    52    55    1
   164    98    99    2
   165    98   100   am
   166    53    54    2
   167    75    73   ar
   168    72    73   ar
   169    72    71    1
   170   102   103    2
   171   102   101    1
   172    90    89    1
   173    71    68    1
   174   100   101    1
   175    63    62   ar
   176    63    65   ar
   177    62    64   ar
   178   101   104    1
   179    70    69    2
   180    89    86    1
   181    65    66   ar
   182    68    67    1
   183    68    69    1
   184   104   105    1
   185    69    78   am
   186    64    66   ar
   187    88    87    2
   188    87    86    1
   189    85    86    1
   190    85    80   am
   191    78    79    1
   192   105   106    1
   193    80    79    1
   194    80    81    2
   195    79    82    1
   196   107   106    2
   197   106   108   am
   198    82    84    1
   199    82    83    1
