@<TRIPOS>MOLECULE
tmp/4tw7A00.pdb
 200 194 0 0 0
SMALL
GASTEIGER

@<TRIPOS>ATOM
      1  N          6.2790   10.2050   19.2220 N.3    45  TYR45      -0.1241
      2  CA         6.4190   10.5930   17.8360 C.3    45  TYR45       0.1605
      3  C          5.2290   10.1930   17.0310 C.2    45  TYR45       0.2264
      4  O          4.4880    9.2700   17.4140 O.2    45  TYR45      -0.2867
      5  CB         7.7310   10.0410   17.1960 C.3    45  TYR45       0.0534
      6  CG         7.6260    8.5730   16.8480 C.ar   45  TYR45      -0.0201
      7  CD1        7.2070    8.1650   15.6070 C.ar   45  TYR45      -0.0009
      8  CD2        7.9210    7.5590   17.7580 C.ar   45  TYR45      -0.0009
      9  CE1        7.0190    6.8340   15.2770 C.ar   45  TYR45       0.0417
     10  CE2        7.7700    6.2340   17.4210 C.ar   45  TYR45       0.0417
     11  CZ         7.2800    5.8620   16.1800 C.ar   45  TYR45       0.1957
     12  OH         7.1520    4.5390   15.8990 O.3    45  TYR45      -0.2866
     13  N          4.8730    9.6470   12.6080 N.3    47  GLY47      -0.1210
     14  CA         5.6040    9.6280   11.3880 C.3    47  GLY47       0.1956
     15  C          4.7280    9.1710   10.2480 C.2    47  GLY47       0.2612
     16  O          3.7700    8.4490   10.4100 O.2    47  GLY47      -0.2717
     17  N          5.1330    9.5880    9.0660 N.am   48  LYS48      -0.1965
     18  CA         4.4180    9.1700    7.8430 C.3    48  LYS48       0.1728
     19  C          5.3590    9.2520    6.6550 C.2    48  LYS48       0.2616
     20  O          6.3150   10.0340    6.6330 O.2    48  LYS48      -0.2715
     21  CB         3.1570   10.0070    7.6040 C.3    48  LYS48       0.0311
     22  CG         3.3710   11.5020    7.5280 C.3    48  LYS48       0.0038
     23  CD         2.0720   12.2350    7.2190 C.3    48  LYS48       0.0206
     24  CE         2.2100   13.7450    7.4110 C.3    48  LYS48       0.1093
     25  NZ         0.8740   14.3310    7.0780 N.3    48  LYS48      -0.1314
     26  N          5.0080    8.5300    5.5750 N.am   49  LEU49      -0.1977
     27  CA         5.6140    8.7720    4.3010 C.3    49  LEU49       0.1596
     28  C          5.0940   10.1100    3.8430 C.2    49  LEU49       0.2287
     29  O          3.9530   10.5050    4.0890 O.2    49  LEU49      -0.2864
     30  CB         5.1840    7.6530    3.2760 C.3    49  LEU49       0.0297
     31  CG         5.4730    6.2230    3.7500 C.3    49  LEU49       0.0022
     32  CD1        4.9320    5.2280    2.7230 C.3    49  LEU49       0.0001
     33  CD2        6.9300    6.0390    3.8790 C.3    49  LEU49       0.0001
     34  N          0.9900    5.9430    4.6990 N.3    54  LYS54      -0.1245
     35  CA         1.3590    5.0790    5.7970 C.3    54  LYS54       0.1561
     36  C          1.8110    5.9720    6.9150 C.2    54  LYS54       0.2260
     37  O          2.6440    6.8320    6.6580 O.2    54  LYS54      -0.2867
     38  CB         2.5120    4.2010    5.4190 C.3    54  LYS54       0.0271
     39  CG         2.7890    3.1430    6.4390 C.3    54  LYS54       0.0035
     40  CD         1.7520    2.0430    6.5080 C.3    54  LYS54       0.0206
     41  CE         2.2450    0.9310    7.4300 C.3    54  LYS54       0.1093
     42  NZ         1.1640    0.0750    7.9730 N.3    54  LYS54      -0.1314
     43  N          2.4150    6.1640   11.3770 N.3    56  ASP56      -0.1239
     44  CA         2.9060    5.4040   12.5230 C.3    56  ASP56       0.1674
     45  C          3.0380    6.3230   13.7240 C.2    56  ASP56       0.2266
     46  O          3.4060    7.4500   13.5510 O.2    56  ASP56      -0.2867
     47  CB         4.3120    4.8100   12.2010 C.3    56  ASP56       0.1410
     48  CG         4.9390    4.0160   13.2760 C.2    56  ASP56       0.3668
     49  OD1        4.2930    3.0980   13.7650 O.co2  56  ASP56      -0.2456
     50  OD2        6.1260    4.3000   13.5980 O.co2  56  ASP56      -0.2456
     51  N          0.7240    2.5360   20.9740 N.3    61  ARG61      -0.1245
     52  CA         1.3680    1.3400   21.5700 C.3    61  ARG61       0.1563
     53  C          1.7130    1.5810   22.9270 C.2    61  ARG61       0.2260
     54  O          2.4840    0.7940   23.5830 O.2    61  ARG61      -0.2867
     55  CB         2.6530    1.0030   20.8870 C.3    61  ARG61       0.0307
     56  CG         2.4270    0.6020   19.4260 C.3    61  ARG61       0.0489
     57  CD         3.7650    0.5040   18.7030 C.3    61  ARG61       0.2205
     58  NE         4.5170    1.7490   18.8230 N.pl3  61  ARG61      -0.0865
     59  CZ         5.5710    2.0840   18.0970 C.cat  61  ARG61       0.5346
     60  NH1        6.0320    1.2750   17.1500 N.pl3  61  ARG61       0.1354
     61  NH2        6.1730    3.2490   18.3120 N.pl3  61  ARG61       0.1354
     62  N          8.5920    5.8570   23.2330 N.3    65  PHE65      -0.1227
     63  CA         9.4970    5.1230   22.3800 C.3    65  PHE65       0.1736
     64  C         10.9150    5.4450   22.8950 C.2    65  PHE65       0.2595
     65  O         11.2640    6.6070   23.0800 O.2    65  PHE65      -0.2718
     66  CB         9.3300    5.5830   20.9360 C.3    65  PHE65       0.0547
     67  CG        10.2180    4.9300   19.9700 C.ar   65  PHE65      -0.0202
     68  CD1        9.8760    3.7310   19.3880 C.ar   65  PHE65      -0.0042
     69  CD2       11.3730    5.4960   19.5730 C.ar   65  PHE65      -0.0042
     70  CE1       10.7090    3.1200   18.4760 C.ar   65  PHE65      -0.0003
     71  CE2       12.2070    4.9030   18.6530 C.ar   65  PHE65      -0.0003
     72  CZ        11.8960    3.6810   18.1160 C.ar   65  PHE65      -0.0000
     73  N         11.7270    4.4220   23.1210 N.am   66  VAL66      -0.1966
     74  CA        13.0500    4.5300   23.7160 C.3    66  VAL66       0.1727
     75  C         14.1160    3.9770   22.7830 C.2    66  VAL66       0.2616
     76  O         13.9550    2.9130   22.1770 O.2    66  VAL66      -0.2715
     77  CB        13.0880    3.8310   25.0580 C.3    66  VAL66       0.0290
     78  CG1       14.4020    3.8580   25.7710 C.3    66  VAL66       0.0023
     79  CG2       12.0620    4.4290   25.9800 C.3    66  VAL66       0.0023
     80  N         15.2720    4.6430   22.7330 N.am   67  PHE67      -0.1974
     81  CA        16.3920    4.1430   21.9660 C.3    67  PHE67       0.1639
     82  C         17.6660    4.8080   22.4880 C.2    67  PHE67       0.2290
     83  O         17.5800    5.7960   23.2170 O.2    67  PHE67      -0.2864
     84  CB        16.2330    4.3600   20.4410 C.3    67  PHE67       0.0560
     85  CG        16.3150    5.7810   19.9870 C.ar   67  PHE67      -0.0200
     86  CD1       17.4680    6.2430   19.3620 C.ar   67  PHE67      -0.0042
     87  CD2       15.2510    6.6430   20.1340 C.ar   67  PHE67      -0.0042
     88  CE1       17.5810    7.5320   18.9290 C.ar   67  PHE67      -0.0003
     89  CE2       15.3800    7.9580   19.7370 C.ar   67  PHE67      -0.0003
     90  CZ        16.5290    8.4160   19.1280 C.ar   67  PHE67      -0.0000
     91  N         22.8790    4.0350   15.6490 N.3    72  GLY72      -0.1210
     92  CA        22.3310    3.2820   14.5700 C.3    72  GLY72       0.1956
     93  C         21.1630    2.3570   14.9450 C.2    72  GLY72       0.2612
     94  O         20.8670    1.4110   14.2040 O.2    72  GLY72      -0.2717
     95  N         20.4600    2.6500   16.0170 N.am   73  GLN73      -0.1965
     96  CA        19.2350    1.9070   16.4360 C.3    73  GLN73       0.1733
     97  C         18.0230    2.4190   15.7070 C.2    73  GLN73       0.2616
     98  O         16.9560    1.8140   15.7420 O.2    73  GLN73      -0.2715
     99  CB        19.0560    2.0580   17.9330 C.3    73  GLN73       0.0408
    100  CG        20.1530    1.3930   18.6910 C.3    73  GLN73       0.0908
    101  CD        19.9910    1.3390   20.1490 C.2    73  GLN73       0.2608
    102  OE1       19.0260    1.7980   20.7160 O.2    73  GLN73      -0.2717
    103  NE2       21.0240    0.7460   20.8390 N.am   73  GLN73      -0.0878
    104  N         18.1310    3.5970   15.1150 N.am   74  VAL74      -0.1963
    105  CA        17.0690    4.2250   14.3070 C.3    74  VAL74       0.1727
    106  C         17.7430    4.8150   13.0370 C.2    74  VAL74       0.2616
    107  O         18.9890    4.8350   12.9390 O.2    74  VAL74      -0.2715
    108  CB        16.3830    5.3660   15.1030 C.3    74  VAL74       0.0290
    109  CG1       15.6050    4.7700   16.2470 C.3    74  VAL74       0.0023
    110  CG2       17.4120    6.4060   15.6250 C.3    74  VAL74       0.0023
    111  N         16.9250    5.3020   12.1190 N.am   75  ILE75      -0.1963
    112  CA        17.4310    5.9070   10.8970 C.3    75  ILE75       0.1727
    113  C         18.3270    7.1050   11.2320 C.2    75  ILE75       0.2616
    114  O         18.1790    7.8010   12.2560 O.2    75  ILE75      -0.2715
    115  CB        16.3070    6.2710    9.9380 C.3    75  ILE75       0.0290
    116  CG1       15.2990    7.2250   10.5780 C.3    75  ILE75       0.0022
    117  CG2       15.6460    4.9960    9.3970 C.3    75  ILE75       0.0023
    118  CD1       14.3380    7.8080    9.5970 C.3    75  ILE75       0.0001
    119  N         19.2340    7.4090   10.3260 N.am   76  LYS76      -0.1977
    120  CA        20.1970    8.4810   10.5170 C.3    76  LYS76       0.1596
    121  C         19.5420    9.8110   10.8040 C.2    76  LYS76       0.2287
    122  O         20.0070   10.5480   11.6530 O.2    76  LYS76      -0.2864
    123  CB        21.1000    8.5980    9.3220 C.3    76  LYS76       0.0298
    124  CG        22.2500    9.4960    9.5450 C.3    76  LYS76       0.0038
    125  CD        23.2070    8.9640   10.5840 C.3    76  LYS76       0.0206
    126  CE        24.5060    9.7420   10.6080 C.3    76  LYS76       0.1093
    127  NZ        25.2280    9.2640   11.8160 N.3    76  LYS76      -0.1314
    128  N         16.9760   10.4940   12.5090 N.3    78  TRP78      -0.1241
    129  CA        16.6280   10.5450   13.9270 C.3    78  TRP78       0.1605
    130  C         17.8420   10.7480   14.8030 C.2    78  TRP78       0.2264
    131  O         17.8320   11.5310   15.7610 O.2    78  TRP78      -0.2867
    132  CB        15.9070    9.2710   14.3360 C.3    78  TRP78       0.0550
    133  CG        14.3990    9.4140   14.1970 C.ar   78  TRP78       0.0003
    134  CD1       13.6370    9.8030   13.1120 C.ar   78  TRP78       0.0946
    135  CD2       13.4720    9.1600   15.2650 C.ar   78  TRP78       0.0152
    136  NE1       12.3030    9.8070   13.4510 N.ar   78  TRP78      -0.2442
    137  CE2       12.1720    9.4010   14.7580 C.ar   78  TRP78       0.0810
    138  CE3       13.5970    8.7520   16.6050 C.ar   78  TRP78       0.0012
    139  CZ2       11.0300    9.2300   15.5390 C.ar   78  TRP78       0.0191
    140  CZ3       12.4850    8.5580   17.3300 C.ar   78  TRP78       0.0001
    141  CH2       11.2030    8.8320   16.8130 C.ar   78  TRP78       0.0015
    142  N         17.2970    7.9700    5.6480 N.3   100  ALA100     -0.1231
    143  CA        16.1820    7.1260    6.0410 C.3   100  ALA100      0.1694
    144  C         16.4490    5.7130    5.5110 C.2   100  ALA100      0.2592
    145  O         17.4290    5.0770    5.9380 O.2   100  ALA100     -0.2718
    146  CB        14.8510    7.7240    5.6830 C.3   100  ALA100      0.0304
    147  N         15.6700    5.2420    4.5580 N.am  101  TYR101     -0.1976
    148  CA        15.8050    3.8590    4.0590 C.3   101  TYR101      0.1639
    149  C         16.3500    3.7340    2.6480 C.2   101  TYR101      0.2290
    150  O         16.4630    2.6080    2.1270 O.2   101  TYR101     -0.2864
    151  CB        14.4780    3.1150    4.1880 C.3   101  TYR101      0.0560
    152  CG        13.9210    3.0930    5.6020 C.ar  101  TYR101     -0.0198
    153  CD1       14.2650    2.0660    6.4760 C.ar  101  TYR101     -0.0009
    154  CD2       13.1010    4.0840    6.1060 C.ar  101  TYR101     -0.0009
    155  CE1       13.7960    2.0200    7.7660 C.ar  101  TYR101      0.0417
    156  CE2       12.6660    4.0740    7.4200 C.ar  101  TYR101      0.0417
    157  CZ        13.0330    3.0470    8.2300 C.ar  101  TYR101      0.1957
    158  OH        12.6400    2.9870    9.5480 O.3   101  TYR101     -0.2866
    159  N         12.1540   -0.5350    2.9300 N.3   106  SER106     -0.1217
    160  CA        11.8680   -1.5900    3.9440 C.3   106  SER106      0.1889
    161  C         10.3390   -1.9590    3.9720 C.2   106  SER106      0.2288
    162  O          9.4910   -1.3980    4.7450 O.2   106  SER106     -0.2866
    163  CB        12.3160   -1.0700    5.2790 C.3   106  SER106      0.2089
    164  OG        12.2430   -2.1200    6.2430 O.3   106  SER106     -0.2183
    165  N          6.0940   -1.2290    4.9460 N.3   109  LYS109     -0.1231
    166  CA         5.8210    0.1040    5.3990 C.3   109  LYS109      0.1693
    167  C          6.4950    1.0890    4.4700 C.2   109  LYS109      0.2591
    168  O          5.9040    2.1540    4.1860 O.2   109  LYS109     -0.2718
    169  CB         6.3100    0.2690    6.8580 C.3   109  LYS109      0.0285
    170  CG         5.4280   -0.4410    7.9010 C.3   109  LYS109      0.0035
    171  CD         5.8790   -0.1670    9.3430 C.3   109  LYS109      0.0206
    172  CE         5.3910   -1.2100   10.3150 C.3   109  LYS109      0.1093
    173  NZ         3.9760   -0.9250   10.5350 N.3   109  LYS109     -0.1314
    174  N          7.7300    0.8110    4.0540 N.am  110  ILE110     -0.1980
    175  CA         8.6360    1.8400    3.3880 C.3   110  ILE110      0.1595
    176  C          9.0840    1.4390    1.9590 C.2   110  ILE110      0.2287
    177  O          9.9290    0.6210    1.7780 O.2   110  ILE110     -0.2864
    178  CB         9.9390    2.1560    4.1590 C.3   110  ILE110      0.0276
    179  CG1        9.7500    2.2400    5.6420 C.3   110  ILE110      0.0022
    180  CG2       10.4920    3.4310    3.5870 C.3   110  ILE110      0.0022
    181  CD1        8.7800    3.2650    6.1010 C.3   110  ILE110      0.0001
    182  N         10.3980   10.8450    4.3730 N.3   116  LEU116     -0.1245
    183  CA         9.5870   10.6490    5.5610 C.3   116  LEU116      0.1561
    184  C          9.4640   11.9510    6.3210 C.2   116  LEU116      0.2260
    185  O         10.3520   12.8130    6.3200 O.2   116  LEU116     -0.2867
    186  CB        10.2570    9.6480    6.5290 C.3   116  LEU116      0.0270
    187  CG        10.5820    8.2880    6.0050 C.3   116  LEU116      0.0019
    188  CD1       11.0420    7.3870    7.0890 C.3   116  LEU116      0.0001
    189  CD2        9.6040    7.6430    5.2130 C.3   116  LEU116      0.0001
    190  N          8.3850   13.3800   10.2600 N.3   118  PHE118     -0.1241
    191  CA         8.1110   13.0470   11.6610 C.3   118  PHE118      0.1605
    192  C          7.8060   14.2680   12.4980 C.2   118  PHE118      0.2264
    193  O          8.3730   15.3190   12.2920 O.2   118  PHE118     -0.2867
    194  CB         9.2950   12.3560   12.3390 C.3   118  PHE118      0.0534
    195  CG         9.6470   10.9980   11.7720 C.ar  118  PHE118     -0.0203
    196  CD1        9.1170    9.8500   12.2810 C.ar  118  PHE118     -0.0042
    197  CD2       10.5370   10.8820   10.7260 C.ar  118  PHE118     -0.0042
    198  CE1        9.4390    8.6090   11.7780 C.ar  118  PHE118     -0.0003
    199  CE2       10.8870    9.6300   10.2080 C.ar  118  PHE118     -0.0003
    200  CZ        10.3690    8.4970   10.7620 C.ar  118  PHE118     -0.0000
@<TRIPOS>BOND
     1   177   176    2
     2   176   175    1
     3   150   149    2
     4   149   148    1
     5    32    31    1
     6   159   160    1
     7    30    31    1
     8    30    27    1
     9   175   174    1
    10   175   178    1
    11   180   178    1
    12    31    33    1
    13    28    29    2
    14    28    27    1
    15   160   161    1
    16   160   163    1
    17   161   162    2
    18   174   167   am
    19   148   151    1
    20   148   147    1
    21   178   179    1
    22   168   167    2
    23   151   152    1
    24    27    26    1
    25   182   183    1
    26   167   166    1
    27   147   144   am
    28    34    35    1
    29   165   166    1
    30   189   187    1
    31   163   164    1
    32   166   169    1
    33    38    35    1
    34    38    39    1
    35   144   145    2
    36   144   143    1
    37   183   184    1
    38   183   186    1
    39    26    19   am
    40   152   154   ar
    41   152   153   ar
    42   179   181    1
    43   142   143    1
    44   146   143    1
    45    35    36    1
    46   187   186    1
    47   187   188    1
    48   154   156   ar
    49   185   184    2
    50    39    40    1
    51   153   155   ar
    52    40    41    1
    53    20    19    2
    54    19    18    1
    55    37    36    2
    56   169   170    1
    57    25    24    1
    58    23    24    1
    59    23    22    1
    60   156   157   ar
    61    41    42    1
    62    22    21    1
    63    21    18    1
    64   155   157   ar
    65    18    17    1
    66   170   171    1
    67   157   158    1
    68    17    15   am
    69   123   124    1
    70   123   120    1
    71   171   172    1
    72   117   115    1
    73   124   125    1
    74   118   116    1
    75   115   116    1
    76   115   112    1
    77   199   197   ar
    78   199   200   ar
    79    15    16    2
    80    15    14    1
    81   190   191    1
    82   172   173    1
    83   119   120    1
    84   119   113   am
    85   120   121    1
    86   125   126    1
    87   126   127    1
    88   197   195   ar
    89   200   198   ar
    90   121   122    2
    91   112   113    1
    92   112   111    1
    93   113   114    2
    94    43    44    1
    95    14    13    1
    96   191   194    1
    97   191   192    1
    98   195   196   ar
    99   195   194    1
   100   198   196   ar
   101   111   106   am
   102    47    44    1
   103    47    48    1
   104   193   192    2
   105   128   129    1
   106    44    45    1
   107   107   106    2
   108   106   105    1
   109   134   136   ar
   110   134   133   ar
   111    48    50   ar
   112    48    49   ar
   113   136   137   ar
   114    46    45    2
   115   129   132    1
   116   129   130    1
   117   133   132    1
   118   133   135   ar
   119    94    93    2
   120   105   108    1
   121   105   104    1
   122    92    93    1
   123    92    91    1
   124   137   135   ar
   125   137   139   ar
   126   130   131    2
   127    93    95   am
   128   108   110    1
   129   108   109    1
   130   104    97   am
   131   135   138   ar
   132     9     7   ar
   133     9    11   ar
   134   139   141   ar
   135     7     6   ar
   136    97    98    2
   137    97    96    1
   138    12    11    1
   139    95    96    1
   140    11    10   ar
   141    96    99    1
   142   138   140   ar
   143   141   140   ar
   144     6     5    1
   145     6     8   ar
   146     3     4    2
   147     3     2    1
   148    60    59    1
   149     5     2    1
   150    10     8   ar
   151     2     1    1
   152    99   100    1
   153    59    61    1
   154    59    58    2
   155    72    70   ar
   156    72    71   ar
   157    70    68   ar
   158    71    69   ar
   159   100   101    1
   160    57    58    1
   161    57    56    1
   162    88    90   ar
   163    88    86   ar
   164    90    89   ar
   165    86    85   ar
   166    68    67   ar
   167    56    55    1
   168    69    67   ar
   169    89    87   ar
   170    67    66    1
   171    85    87   ar
   172    85    84    1
   173   101   102    2
   174   101   103   am
   175    84    81    1
   176    55    52    1
   177    66    63    1
   178    51    52    1
   179    52    53    1
   180    81    82    1
   181    81    80    1
   182    76    75    2
   183    63    64    1
   184    63    62    1
   185    82    83    2
   186    80    75   am
   187    75    74    1
   188    64    65    2
   189    64    73   am
   190    53    54    2
   191    73    74    1
   192    74    77    1
   193    77    78    1
   194    77    79    1
