@<TRIPOS>MOLECULE
tmp/4tw8B00.pdb
 198 196 0 0 0
SMALL
GASTEIGER

@<TRIPOS>ATOM
      1  N          5.8320  -11.9400   33.5730 N.3    37  TYR37      -0.1241
      2  CA         4.8510  -12.9800   33.8530 C.3    37  TYR37       0.1605
      3  C          5.1770  -13.8630   35.0480 C.2    37  TYR37       0.2264
      4  O          6.3380  -14.0340   35.4170 O.2    37  TYR37      -0.2867
      5  CB         4.6730  -13.8650   32.6280 C.3    37  TYR37       0.0534
      6  CG         5.7120  -14.9470   32.5290 C.ar   37  TYR37      -0.0201
      7  CD1        5.4290  -16.2500   32.9470 C.ar   37  TYR37      -0.0009
      8  CD2        6.9870  -14.6700   32.0350 C.ar   37  TYR37      -0.0009
      9  CE1        6.3880  -17.2490   32.8650 C.ar   37  TYR37       0.0417
     10  CE2        7.9530  -15.6610   31.9410 C.ar   37  TYR37       0.0417
     11  CZ         7.6490  -16.9470   32.3600 C.ar   37  TYR37       0.1957
     12  OH         8.6050  -17.9310   32.2670 O.3    37  TYR37      -0.2866
     13  N          3.9300  -17.8870   36.1500 N.3    39  GLY39      -0.1210
     14  CA         3.2560  -19.0560   35.5850 C.3    39  GLY39       0.1956
     15  C          3.2800  -20.3020   36.4500 C.2    39  GLY39       0.2612
     16  O          4.2670  -20.5680   37.1460 O.2    39  GLY39      -0.2717
     17  N          2.1900  -21.0720   36.3880 N.am   40  TRP40      -0.1962
     18  CA         2.0210  -22.2770   37.2030 C.3    40  TRP40       0.1771
     19  C          1.0770  -23.2750   36.5460 C.2    40  TRP40       0.2619
     20  O          0.0980  -22.8810   35.9120 O.2    40  TRP40      -0.2715
     21  CB         1.4840  -21.9110   38.5890 C.3    40  TRP40       0.0590
     22  CG         0.1690  -21.1620   38.5720 C.ar   40  TRP40       0.0006
     23  CD1       -1.0840  -21.6970   38.6980 C.ar   40  TRP40       0.0946
     24  CD2       -0.0150  -19.7480   38.4260 C.ar   40  TRP40       0.0152
     25  NE1       -2.0360  -20.7060   38.6380 N.ar   40  TRP40      -0.2442
     26  CE2       -1.4100  -19.5000   38.4720 C.ar   40  TRP40       0.0810
     27  CE3        0.8620  -18.6630   38.2630 C.ar   40  TRP40       0.0012
     28  CZ2       -1.9490  -18.2130   38.3610 C.ar   40  TRP40       0.0191
     29  CZ3        0.3250  -17.3780   38.1490 C.ar   40  TRP40       0.0001
     30  CH2       -1.0700  -17.1670   38.1970 C.ar   40  TRP40       0.0015
     31  N          1.3690  -24.5660   36.7030 N.am   41  LEU41      -0.1977
     32  CA         0.4530  -25.6210   36.2650 C.3    41  LEU41       0.1596
     33  C         -0.7400  -25.6330   37.2060 C.2    41  LEU41       0.2287
     34  O         -0.5730  -25.4670   38.4120 O.2    41  LEU41      -0.2864
     35  CB         1.1290  -26.9920   36.2570 C.3    41  LEU41       0.0297
     36  CG         2.5910  -27.0900   35.8230 C.3    41  LEU41       0.0022
     37  CD1        3.4570  -27.5070   37.0010 C.3    41  LEU41       0.0001
     38  CD2        2.7530  -28.0860   34.6900 C.3    41  LEU41       0.0001
     39  N          4.7060  -26.8100   40.0880 N.3    46  LYS46      -0.1231
     40  CA         5.8360  -25.9600   39.7140 C.3    46  LYS46       0.1693
     41  C          5.4030  -24.5580   39.2890 C.2    46  LYS46       0.2592
     42  O          4.4380  -24.3800   38.5400 O.2    46  LYS46      -0.2718
     43  CB         6.6810  -26.6170   38.6130 C.3    46  LYS46       0.0285
     44  CG         7.2740  -27.9730   39.0020 C.3    46  LYS46       0.0035
     45  CD         8.2210  -28.4710   37.9020 C.3    46  LYS46       0.0206
     46  CE         8.2550  -29.9890   37.8720 C.3    46  LYS46       0.1093
     47  NZ         9.0460  -30.4580   36.6980 N.3    46  LYS46      -0.1314
     48  N          6.1310  -23.5670   39.7870 N.am   47  PHE47      -0.1962
     49  CA         5.9210  -22.1850   39.4010 C.3    47  PHE47       0.1771
     50  C          7.0780  -21.7130   38.5350 C.2    47  PHE47       0.2619
     51  O          8.1560  -22.3080   38.5370 O.2    47  PHE47      -0.2715
     52  CB         5.8230  -21.2940   40.6380 C.3    47  PHE47       0.0574
     53  CG         4.6250  -21.5690   41.4960 C.ar   47  PHE47      -0.0200
     54  CD1        3.4310  -20.8890   41.2840 C.ar   47  PHE47      -0.0042
     55  CD2        4.6920  -22.4940   42.5340 C.ar   47  PHE47      -0.0042
     56  CE1        2.3220  -21.1310   42.0830 C.ar   47  PHE47      -0.0003
     57  CE2        3.5840  -22.7430   43.3360 C.ar   47  PHE47      -0.0003
     58  CZ         2.3970  -22.0600   43.1110 C.ar   47  PHE47      -0.0000
     59  N          6.8420  -20.6350   37.7980 N.am   48  ASP48      -0.1971
     60  CA         7.8930  -19.9590   37.0520 C.3    48  ASP48       0.1709
     61  C          7.5600  -18.4780   36.8520 C.2    48  ASP48       0.2293
     62  O          6.3880  -18.0960   36.8050 O.2    48  ASP48      -0.2864
     63  CB         8.1140  -20.6440   35.7050 C.3    48  ASP48       0.1436
     64  CG         9.1950  -19.9780   34.8830 C.2    48  ASP48       0.3671
     65  OD1       10.3160  -19.7720   35.4070 O.co2  48  ASP48      -0.2456
     66  OD2        8.9110  -19.6580   33.7100 O.co2  48  ASP48      -0.2456
     67  N         10.6690  -10.0360   29.7590 N.3    57  PHE57      -0.1241
     68  CA        10.5660  -11.1800   28.8550 C.3    57  PHE57       0.1605
     69  C          9.9780  -10.6820   27.5410 C.2    57  PHE57       0.2264
     70  O          8.9780   -9.9590   27.5510 O.2    57  PHE57      -0.2867
     71  CB         9.6640  -12.2490   29.4800 C.3    57  PHE57       0.0534
     72  CG         9.5230  -13.4990   28.6510 C.ar   57  PHE57      -0.0203
     73  CD1        8.4390  -13.6620   27.7900 C.ar   57  PHE57      -0.0042
     74  CD2       10.4620  -14.5210   28.7430 C.ar   57  PHE57      -0.0042
     75  CE1        8.3060  -14.8110   27.0300 C.ar   57  PHE57      -0.0003
     76  CE2       10.3320  -15.6720   27.9870 C.ar   57  PHE57      -0.0003
     77  CZ         9.2530  -15.8180   27.1300 C.ar   57  PHE57      -0.0000
     78  N          9.2760  -11.5260   23.0860 N.3    59  PHE59      -0.1241
     79  CA         9.2320  -12.4200   21.9320 C.3    59  PHE59       0.1605
     80  C          8.5360  -11.7350   20.7560 C.2    59  PHE59       0.2264
     81  O          8.1070  -10.5850   20.8740 O.2    59  PHE59      -0.2867
     82  CB         8.4920  -13.7120   22.3020 C.3    59  PHE59       0.0534
     83  CG         7.0830  -13.4920   22.7920 C.ar   59  PHE59      -0.0203
     84  CD1        6.0040  -13.6290   21.9300 C.ar   59  PHE59      -0.0042
     85  CD2        6.8350  -13.1560   24.1210 C.ar   59  PHE59      -0.0042
     86  CE1        4.7080  -13.4290   22.3810 C.ar   59  PHE59      -0.0003
     87  CE2        5.5420  -12.9520   24.5730 C.ar   59  PHE59      -0.0003
     88  CZ         4.4770  -13.0920   23.7040 C.ar   59  PHE59      -0.0000
     89  N          4.8690  -17.8700   16.6110 N.3    64  GLY64      -0.1210
     90  CA         4.9790  -19.1610   17.2830 C.3    64  GLY64       0.1956
     91  C          6.2130  -19.3310   18.1570 C.2    64  GLY64       0.2612
     92  O          6.6820  -20.4530   18.3640 O.2    64  GLY64      -0.2717
     93  N          6.7390  -18.2230   18.6760 N.am   65  GLU65      -0.1965
     94  CA         7.9050  -18.2760   19.5590 C.3    65  GLU65       0.1733
     95  C          7.5260  -18.7330   20.9710 C.2    65  GLU65       0.2616
     96  O          8.3740  -19.2160   21.7210 O.2    65  GLU65      -0.2715
     97  CB         8.6280  -16.9290   19.6040 C.3    65  GLU65       0.0429
     98  CG         9.3530  -16.5740   18.3130 C.3    65  GLU65       0.1163
     99  CD        10.2780  -15.3710   18.4450 C.2    65  GLU65       0.3649
    100  OE1       10.8270  -14.9340   17.4040 O.co2  65  GLU65      -0.2457
    101  OE2       10.4680  -14.8640   19.5750 O.co2  65  GLU65      -0.2457
    102  N          6.2520  -18.5710   21.3240 N.am   66  VAL66      -0.1963
    103  CA         5.7120  -19.0640   22.5970 C.3    66  VAL66       0.1727
    104  C          4.5190  -19.9970   22.3290 C.2    66  VAL66       0.2616
    105  O          4.1250  -20.1740   21.1750 O.2    66  VAL66      -0.2715
    106  CB         5.3180  -17.9010   23.5400 C.3    66  VAL66       0.0290
    107  CG1        6.5420  -17.0820   23.9200 C.3    66  VAL66       0.0023
    108  CG2        4.2580  -17.0080   22.9060 C.3    66  VAL66       0.0023
    109  N          3.9480  -20.5940   23.3750 N.am   67  ILE67      -0.1963
    110  CA         2.7740  -21.4680   23.2130 C.3    67  ILE67       0.1727
    111  C          1.5870  -20.7160   22.6190 C.2    67  ILE67       0.2616
    112  O          1.4690  -19.4980   22.7740 O.2    67  ILE67      -0.2715
    113  CB         2.3270  -22.1310   24.5320 C.3    67  ILE67       0.0290
    114  CG1        2.0610  -21.0780   25.6050 C.3    67  ILE67       0.0022
    115  CG2        3.3550  -23.1520   24.9970 C.3    67  ILE67       0.0023
    116  CD1        0.9120  -21.4290   26.5160 C.3    67  ILE67       0.0001
    117  N          0.7110  -21.4540   21.9450 N.am   68  LYS68      -0.1977
    118  CA        -0.4110  -20.8680   21.2170 C.3    68  LYS68       0.1596
    119  C         -1.3260  -19.9850   22.0840 C.2    68  LYS68       0.2287
    120  O         -1.8330  -18.9700   21.6110 O.2    68  LYS68      -0.2864
    121  CB        -1.2060  -21.9710   20.5090 C.3    68  LYS68       0.0298
    122  CG        -2.3830  -21.4970   19.6650 C.3    68  LYS68       0.0038
    123  CD        -1.9720  -20.9360   18.3110 C.3    68  LYS68       0.0206
    124  CE        -3.1480  -21.0010   17.3450 C.3    68  LYS68       0.1093
    125  NZ        -2.8720  -20.2980   16.0640 N.3    68  LYS68      -0.1314
    126  N         -0.5570  -17.9770   24.6360 N.3    70  TRP70      -0.1241
    127  CA         0.0800  -16.6720   24.7750 C.3    70  TRP70       0.1605
    128  C         -0.0850  -15.8470   23.5100 C.2    70  TRP70       0.2264
    129  O         -0.5460  -14.7030   23.5690 O.2    70  TRP70      -0.2867
    130  CB         1.5600  -16.8370   25.1130 C.3    70  TRP70       0.0550
    131  CG         1.8620  -16.7560   26.5810 C.ar   70  TRP70       0.0003
    132  CD1        1.2390  -17.4350   27.5930 C.ar   70  TRP70       0.0946
    133  CD2        2.8780  -15.9590   27.2030 C.ar   70  TRP70       0.0152
    134  NE1        1.7980  -17.1030   28.8030 N.ar   70  TRP70      -0.2442
    135  CE2        2.8070  -16.1990   28.5930 C.ar   70  TRP70       0.0810
    136  CE3        3.8440  -15.0610   26.7220 C.ar   70  TRP70       0.0012
    137  CZ2        3.6630  -15.5680   29.5070 C.ar   70  TRP70       0.0191
    138  CZ3        4.6940  -14.4330   27.6340 C.ar   70  TRP70       0.0001
    139  CH2        4.5970  -14.6910   29.0060 C.ar   70  TRP70       0.0015
    140  N         -1.4670  -25.2320   24.8030 N.3    92  ALA92      -0.1231
    141  CA        -0.2670  -25.3100   25.6130 C.3    92  ALA92       0.1694
    142  C          0.6490  -26.4430   25.1420 C.2    92  ALA92       0.2592
    143  O          1.5490  -26.2080   24.3390 O.2    92  ALA92      -0.2718
    144  CB        -0.6270  -25.4650   27.0840 C.3    92  ALA92       0.0304
    145  N          0.4210  -27.6620   25.6320 N.am   93  TYR93      -0.1976
    146  CA         1.3350  -28.7820   25.3660 C.3    93  TYR93       0.1639
    147  C          0.6520  -30.1180   25.0580 C.2    93  TYR93       0.2290
    148  O          1.3260  -31.0960   24.7350 O.2    93  TYR93      -0.2864
    149  CB         2.3260  -28.9520   26.5240 C.3    93  TYR93       0.0560
    150  CG         3.2440  -27.7690   26.7290 C.ar   93  TYR93      -0.0198
    151  CD1        2.8540  -26.6900   27.5220 C.ar   93  TYR93      -0.0009
    152  CD2        4.5050  -27.7290   26.1380 C.ar   93  TYR93      -0.0009
    153  CE1        3.6890  -25.5980   27.7130 C.ar   93  TYR93       0.0417
    154  CE2        5.3500  -26.6420   26.3230 C.ar   93  TYR93       0.0417
    155  CZ         4.9370  -25.5770   27.1100 C.ar   93  TYR93       0.1957
    156  OH         5.7610  -24.4900   27.3070 O.3    93  TYR93      -0.2866
    157  N          5.6440  -31.8900   27.9800 N.3    98  SER98      -0.1217
    158  CA         7.0370  -31.4920   27.8000 C.3    98  SER98       0.1889
    159  C          7.8530  -31.9350   29.0170 C.2    98  SER98       0.2288
    160  O          7.9300  -31.2030   30.0140 O.2    98  SER98      -0.2866
    161  CB         7.1400  -29.9740   27.5910 C.3    98  SER98       0.2089
    162  OG         8.4880  -29.5610   27.4780 O.3    98  SER98      -0.2183
    163  N          9.5860  -30.9810   32.6710 N.3   101  LYS101     -0.1231
    164  CA         8.9890  -29.7340   33.1430 C.3   101  LYS101      0.1693
    165  C          7.4540  -29.7150   33.1610 C.2   101  LYS101      0.2591
    166  O          6.8490  -29.1500   34.0750 O.2   101  LYS101     -0.2718
    167  CB         9.5010  -28.5670   32.2960 C.3   101  LYS101      0.0285
    168  CG         9.6620  -27.2580   33.0500 C.3   101  LYS101      0.0035
    169  CD        11.0770  -27.1060   33.5850 C.3   101  LYS101      0.0206
    170  CE        11.4140  -25.6410   33.7990 C.3   101  LYS101      0.1093
    171  NZ        12.8790  -25.3870   33.6960 N.3   101  LYS101     -0.1314
    172  N          6.8330  -30.3200   32.1490 N.am  102  ILE102     -0.1980
    173  CA         5.3780  -30.2430   31.9670 C.3   102  ILE102      0.1595
    174  C          4.7760  -31.6270   31.7080 C.2   102  ILE102      0.2287
    175  O          5.1100  -32.2740   30.7100 O.2   102  ILE102     -0.2864
    176  CB         4.9990  -29.2570   30.8320 C.3   102  ILE102      0.0276
    177  CG1        5.4690  -27.8430   31.1770 C.3   102  ILE102      0.0022
    178  CG2        3.4950  -29.2520   30.5910 C.3   102  ILE102      0.0022
    179  CD1        6.1760  -27.1480   30.0390 C.3   102  ILE102      0.0001
    180  N         -2.3850  -24.8100   32.0760 N.3   108  LEU108     -0.1245
    181  CA        -1.4840  -23.8270   32.6720 C.3   108  LEU108      0.1561
    182  C         -2.1680  -22.4830   32.9090 C.2   108  LEU108      0.2260
    183  O         -3.1180  -22.1220   32.2160 O.2   108  LEU108     -0.2867
    184  CB        -0.2130  -23.6610   31.8290 C.3   108  LEU108      0.0270
    185  CG         0.5220  -24.9190   31.3500 C.3   108  LEU108      0.0019
    186  CD1        1.8290  -24.5290   30.6820 C.3   108  LEU108      0.0001
    187  CD2        0.7850  -25.9180   32.4660 C.3   108  LEU108      0.0001
    188  N         -1.3440  -18.2030   33.8590 N.3   110  PHE110     -0.1241
    189  CA        -0.3560  -17.1300   33.8530 C.3   110  PHE110      0.1605
    190  C         -0.9530  -15.8120   34.3070 C.2   110  PHE110      0.2264
    191  O         -2.0700  -15.4700   33.9070 O.2   110  PHE110     -0.2867
    192  CB         0.1660  -16.9030   32.4390 C.3   110  PHE110      0.0534
    193  CG         0.9090  -18.0630   31.8610 C.ar  110  PHE110     -0.0203
    194  CD1        0.2520  -18.9960   31.0700 C.ar  110  PHE110     -0.0042
    195  CD2        2.2720  -18.2020   32.0750 C.ar  110  PHE110     -0.0042
    196  CE1        0.9380  -20.0590   30.5160 C.ar  110  PHE110     -0.0003
    197  CE2        2.9650  -19.2610   31.5240 C.ar  110  PHE110     -0.0003
    198  CZ         2.2980  -20.1910   30.7430 C.ar  110  PHE110     -0.0000
@<TRIPOS>BOND
     1   125   124    1
     2    89    90    1
     3    90    91    1
     4   124   123    1
     5   100    99   ar
     6    91    92    2
     7    91    93   am
     8   123   122    1
     9    98    99    1
    10    98    97    1
    11    99   101   ar
    12    93    94    1
    13    94    97    1
    14    94    95    1
    15   122   121    1
    16   121   118    1
    17    80    81    2
    18    80    79    1
    19    95   102   am
    20    95    96    2
    21   105   104    2
    22   118   117    1
    23   118   119    1
    24   102   103    1
    25   120   119    2
    26    84    86   ar
    27    84    83   ar
    28    79    82    1
    29    79    78    1
    30   117   111   am
    31    82    83    1
    32   104   103    1
    33   104   109   am
    34    86    88   ar
    35   103   106    1
    36   111   112    2
    37   111   110    1
    38    83    85   ar
    39   108   106    1
    40   110   109    1
    41   110   113    1
    42   128   129    2
    43   128   127    1
    44   106   107    1
    45    88    87   ar
    46    85    87   ar
    47   143   142    2
    48   113   115    1
    49   113   114    1
    50   126   127    1
    51   148   147    2
    52   127   130    1
    53   140   141    1
    54   147   146    1
    55   130   131    1
    56   142   141    1
    57   142   145   am
    58   146   145    1
    59   146   149    1
    60   114   116    1
    61   141   144    1
    62   152   154   ar
    63   152   150   ar
    64   154   155   ar
    65   149   150    1
    66   131   133   ar
    67   131   132   ar
    68   136   133   ar
    69   136   138   ar
    70   150   151   ar
    71    75    77   ar
    72    75    73   ar
    73   155   156    1
    74   155   153   ar
    75    77    76   ar
    76   133   135   ar
    77   162   161    1
    78   151   153   ar
    79    69    70    2
    80    69    68    1
    81   161   158    1
    82   132   134   ar
    83   138   139   ar
    84    73    72   ar
    85   158   157    1
    86   158   159    1
    87    76    74   ar
    88   135   134   ar
    89   135   137   ar
    90    72    74   ar
    91    72    71    1
    92    68    71    1
    93    68    67    1
    94   139   137   ar
    95   159   160    2
    96   179   177    1
    97   196   198   ar
    98   196   194   ar
    99   178   176    1
   100   186   185    1
   101   175   174    2
   102   198   197   ar
   103   176   177    1
   104   176   173    1
   105   194   193   ar
   106   185   184    1
   107   185   187    1
   108   197   195   ar
   109   174   173    1
   110   184   181    1
   111   193   195   ar
   112   193   192    1
   113    10     8   ar
   114    10    11   ar
   115   173   172    1
   116     8     6   ar
   117   180   181    1
   118   172   165   am
   119   183   182    2
   120    12    11    1
   121   167   168    1
   122   167   164    1
   123    11     9   ar
   124   192   189    1
   125     6     5    1
   126     6     7   ar
   127     5     2    1
   128   163   164    1
   129   181   182    1
   130     9     7   ar
   131   168   169    1
   132   164   165    1
   133   165   166    2
   134     1     2    1
   135   169   170    1
   136   171   170    1
   137    66    64   ar
   138     2     3    1
   139   189   188    1
   140   189   190    1
   141   191   190    2
   142    38    36    1
   143    64    65   ar
   144    64    63    1
   145     3     4    2
   146    14    13    1
   147    14    15    1
   148    63    60    1
   149    36    35    1
   150    36    37    1
   151    20    19    2
   152    35    32    1
   153    32    31    1
   154    32    33    1
   155    17    15   am
   156    17    18    1
   157    15    16    2
   158    19    31   am
   159    19    18    1
   160    47    46    1
   161    62    61    2
   162    61    60    1
   163    60    59    1
   164    18    21    1
   165    33    34    2
   166    59    50   am
   167    46    45    1
   168    45    44    1
   169    29    30   ar
   170    29    27   ar
   171    30    28   ar
   172    27    24   ar
   173    28    26   ar
   174    24    26   ar
   175    24    22   ar
   176    26    25   ar
   177    50    51    2
   178    50    49    1
   179    42    41    2
   180    22    21    1
   181    22    23   ar
   182    43    44    1
   183    43    40    1
   184    25    23   ar
   185    41    40    1
   186    41    48   am
   187    49    48    1
   188    49    52    1
   189    40    39    1
   190    52    53    1
   191    54    53   ar
   192    54    56   ar
   193    53    55   ar
   194    56    58   ar
   195    55    57   ar
   196    58    57   ar
