@<TRIPOS>MOLECULE
tmp/4tw9A01.pdb
 202 191 0 0 0
SMALL
GASTEIGER

@<TRIPOS>ATOM
      1  N          2.8000  -15.7050    8.3290 N.3    14  ILE14      -0.1245
      2  CA         4.2220  -15.4580    8.1230 C.3    14  ILE14       0.1561
      3  C          4.7220  -14.2900    8.9840 C.2    14  ILE14       0.2260
      4  O          5.8780  -13.8960    8.8620 O.2    14  ILE14      -0.2867
      5  CB         4.5490  -15.1060    6.6400 C.3    14  ILE14       0.0252
      6  CG1        4.0210  -13.7100    6.2540 C.3    14  ILE14       0.0019
      7  CG2        3.9990  -16.1530    5.7090 C.3    14  ILE14       0.0019
      8  CD1        4.6850  -13.1080    5.0050 C.3    14  ILE14       0.0001
      9  N          0.1020  -11.1440    9.9800 N.3    22  ILE22      -0.1245
     10  CA         0.4010  -11.0690    8.5480 C.3    22  ILE22       0.1561
     11  C          0.4600  -12.4730    8.0360 C.2    22  ILE22       0.2260
     12  O          1.0270  -13.3350    8.7110 O.2    22  ILE22      -0.2867
     13  CB         1.7650  -10.4190    8.2970 C.3    22  ILE22       0.0252
     14  CG1        1.8010   -8.9910    8.8640 C.3    22  ILE22       0.0019
     15  CG2        2.0570  -10.4150    6.8020 C.3    22  ILE22       0.0019
     16  CD1        3.1430   -8.6290    9.4430 C.3    22  ILE22       0.0001
     17  N          1.4690  -10.3290    0.8270 N.3    35  ALA35      -0.1245
     18  CA         1.3450  -10.2600    2.2590 C.3    35  ALA35       0.1562
     19  C         -0.0270   -9.6770    2.4840 C.2    35  ALA35       0.2260
     20  O         -0.4590   -8.8090    1.7420 O.2    35  ALA35      -0.2867
     21  CB         2.4120   -9.3680    2.8280 C.3    35  ALA35       0.0290
     22  N         -2.2920   -8.3080    5.6150 N.3    37  LYS37      -0.1245
     23  CA        -2.4490   -7.9800    7.0310 C.3    37  LYS37       0.1561
     24  C         -3.9050   -8.1880    7.4230 C.2    37  LYS37       0.2260
     25  O         -4.7890   -7.6860    6.7430 O.2    37  LYS37      -0.2867
     26  CB        -2.0140   -6.5300    7.3350 C.3    37  LYS37       0.0271
     27  CG        -1.8280   -6.2760    8.8330 C.3    37  LYS37       0.0035
     28  CD        -1.0550   -5.0340    9.1430 C.3    37  LYS37       0.0206
     29  CE        -0.9640   -4.7810   10.6950 C.3    37  LYS37       0.1093
     30  NZ        -0.1290   -3.5560   11.1100 N.3    37  LYS37      -0.1314
     31  N         -3.6030    2.8020   10.0150 N.3    51  GLU51      -0.1245
     32  CA        -2.3120    2.4190    9.4070 C.3    51  GLU51       0.1567
     33  C         -2.3730    2.4100    7.8760 C.2    51  GLU51       0.2260
     34  O         -1.4320    2.8320    7.1860 O.2    51  GLU51      -0.2867
     35  CB        -1.8620    1.0450    9.8910 C.3    51  GLU51       0.0388
     36  CG        -0.4300    0.7010    9.4880 C.3    51  GLU51       0.1160
     37  CD        -0.0330   -0.7160    9.8440 C.2    51  GLU51       0.3649
     38  OE1       -0.9260   -1.5470   10.0930 O.co2  51  GLU51      -0.2457
     39  OE2        1.1750   -1.0120    9.8600 O.co2  51  GLU51      -0.2457
     40  N          0.1440    4.2860    5.1330 N.3    55  TYR55      -0.1241
     41  CA         0.8030    3.7010    3.9620 C.3    55  TYR55       0.1605
     42  C          0.5170    4.4400    2.6530 C.2    55  TYR55       0.2264
     43  O          1.4160    4.6340    1.8440 O.2    55  TYR55      -0.2867
     44  CB         0.4710    2.2130    3.8080 C.3    55  TYR55       0.0534
     45  CG         1.3480    1.2860    4.6470 C.ar   55  TYR55      -0.0201
     46  CD1        2.7290    1.2120    4.4430 C.ar   55  TYR55      -0.0009
     47  CD2        0.7890    0.4710    5.6390 C.ar   55  TYR55      -0.0009
     48  CE1        3.5290    0.3770    5.2250 C.ar   55  TYR55       0.0417
     49  CE2        1.5900   -0.3820    6.4330 C.ar   55  TYR55       0.0417
     50  CZ         2.9550   -0.4230    6.2230 C.ar   55  TYR55       0.1957
     51  OH         3.7220   -1.2650    6.9970 O.3    55  TYR55      -0.2866
     52  N          6.8160   -0.0470    1.5120 N.3    65  PRO65      -0.2116
     53  CA         5.9410   -1.0880    0.9620 C.3    65  PRO65       0.1372
     54  C          4.7280   -0.5670    0.1490 C.2    65  PRO65       0.2244
     55  O          4.0560    0.3550    0.5580 O.2    65  PRO65      -0.2868
     56  CB         5.4380   -1.8120    2.2050 C.3    65  PRO65       0.0268
     57  CG         6.4880   -1.6220    3.2090 C.3    65  PRO65       0.0207
     58  CD         7.0960   -0.2840    2.9390 C.3    65  PRO65       0.0892
     59  N         -5.6570   -5.8840    4.5140 N.3    79  MET79      -0.1245
     60  CA        -4.7760   -4.9410    3.8480 C.3    79  MET79       0.1570
     61  C         -3.7860   -5.7490    3.0790 C.2    79  MET79       0.2261
     62  O         -2.9440   -6.3780    3.6840 O.2    79  MET79      -0.2867
     63  CB        -4.0360   -4.0710    4.8740 C.3    79  MET79       0.0387
     64  CG        -3.3570   -2.8540    4.2680 C.3    79  MET79       0.0595
     65  SD        -2.3780   -1.8800    5.4130 S.3    79  MET79      -0.1393
     66  CE        -1.0420   -3.0190    5.7640 C.3    79  MET79       0.0692
     67  N         -0.5870   -6.1830    0.9760 N.3    81  MET81      -0.1230
     68  CA         0.6670   -5.5050    0.6990 C.3    81  MET81       0.1702
     69  C          1.5410   -6.3140   -0.2420 C.2    81  MET81       0.2592
     70  O          1.4550   -7.5430   -0.2820 O.2    81  MET81      -0.2718
     71  CB         1.4190   -5.3130    2.0090 C.3    81  MET81       0.0401
     72  CG         0.5990   -4.6400    3.0970 C.3    81  MET81       0.0596
     73  SD         0.0600   -3.0000    2.5920 S.3    81  MET81      -0.1393
     74  CE         1.6440   -2.2160    2.3650 C.3    81  MET81       0.0692
     75  N          2.4060   -5.6240   -0.9830 N.am   82  GLU82      -0.1966
     76  CA         3.5040   -6.2840   -1.6910 C.3    82  GLU82       0.1733
     77  C          4.2210   -7.2410   -0.7110 C.2    82  GLU82       0.2616
     78  O          4.5200   -6.8530    0.4250 O.2    82  GLU82      -0.2715
     79  CB         4.4580   -5.2200   -2.2700 C.3    82  GLU82       0.0429
     80  CG         5.9790   -5.5150   -2.1810 C.3    82  GLU82       0.1163
     81  CD         6.8490   -4.3390   -2.6620 C.2    82  GLU82       0.3649
     82  OE1        7.4150   -4.4010   -3.7920 O.co2  82  GLU82      -0.2457
     83  OE2        6.9590   -3.3490   -1.9090 O.co2  82  GLU82      -0.2457
     84  N          4.4560   -8.4870   -1.1260 N.am   83  LEU83      -0.1963
     85  CA         5.2690   -9.4010   -0.3160 C.3    83  LEU83       0.1728
     86  C          6.7410   -8.9270   -0.3240 C.2    83  LEU83       0.2616
     87  O          7.1960   -8.3350   -1.2870 O.2    83  LEU83      -0.2715
     88  CB         5.1510  -10.8220   -0.8330 C.3    83  LEU83       0.0311
     89  CG         5.8500  -11.9840   -0.1400 C.3    83  LEU83       0.0022
     90  CD1        5.4310  -12.2460    1.3490 C.3    83  LEU83       0.0001
     91  CD2        5.5660  -13.1960   -1.0100 C.3    83  LEU83       0.0001
     92  N          7.4690   -9.2300    0.7490 N.am   84  LEU84      -0.1963
     93  CA         8.7820   -8.6620    1.0260 C.3    84  LEU84       0.1728
     94  C          9.6570   -9.8010    1.5070 C.2    84  LEU84       0.2617
     95  O          9.1550  -10.7940    2.0120 O.2    84  LEU84      -0.2715
     96  CB         8.7190   -7.5520    2.0990 C.3    84  LEU84       0.0311
     97  CG         7.9900   -6.2110    1.8230 C.3    84  LEU84       0.0022
     98  CD1        8.0490   -5.3170    3.0420 C.3    84  LEU84       0.0001
     99  CD2        8.5200   -5.4580    0.6190 C.3    84  LEU84       0.0001
    100  N         10.9660   -9.6690    1.3250 N.am   85  GLY85      -0.1941
    101  CA        11.9070  -10.6460    1.8320 C.3    85  GLY85       0.1998
    102  C         11.8520  -10.6020    3.3460 C.2    85  GLY85       0.2481
    103  O         10.9270  -10.0070    3.9230 O.2    85  GLY85      -0.2729
    104  N         12.8310  -11.2360    4.0040 N.am   86  PRO86      -0.2715
    105  CA        12.8110  -11.3650    5.4330 C.3    86  PRO86       0.1536
    106  C         13.3290  -10.1360    6.1540 C.2    86  PRO86       0.2599
    107  O         13.9370   -9.2540    5.5490 O.2    86  PRO86      -0.2715
    108  CB        13.7670  -12.5250    5.6720 C.3    86  PRO86       0.0310
    109  CG        14.7950  -12.3420    4.6390 C.3    86  PRO86       0.0237
    110  CD        14.0110  -11.9090    3.4250 C.3    86  PRO86       0.0939
    111  N         13.1020  -10.1370    7.4630 N.am   87  SER87      -0.1950
    112  CA        13.4450   -9.0340    8.3360 C.3    87  SER87       0.1924
    113  C         14.9160   -9.0960    8.7380 C.2    87  SER87       0.2314
    114  O         15.5770  -10.1170    8.5670 O.2    87  SER87      -0.2863
    115  CB        12.5700   -9.0900    9.5830 C.3    87  SER87       0.2116
    116  OG        12.9300  -10.1870   10.3880 O.3    87  SER87      -0.2180
    117  N         15.4200  -11.7090   11.4210 N.3    90  ASP90      -0.1225
    118  CA        15.4730  -13.0510   10.8170 C.3    90  ASP90       0.1805
    119  C         16.8880  -13.2930   10.2590 C.2    90  ASP90       0.2597
    120  O         17.5430  -14.2640   10.6080 O.2    90  ASP90      -0.2718
    121  CB        14.4250  -13.2070    9.6970 C.3    90  ASP90       0.1424
    122  CG        12.9910  -13.3180   10.2150 C.2    90  ASP90       0.3668
    123  OD1       12.7380  -13.0360   11.3980 O.co2  90  ASP90      -0.2456
    124  OD2       12.0880  -13.6660    9.4170 O.co2  90  ASP90      -0.2456
    125  N         17.3440  -12.3790    9.4000 N.am   91  LEU91      -0.1979
    126  CA        18.6930  -12.4230    8.8440 C.3    91  LEU91       0.1596
    127  C         19.7570  -12.4270    9.9180 C.2    91  LEU91       0.2287
    128  O         20.7010  -13.1840    9.8210 O.2    91  LEU91      -0.2864
    129  CB        18.9270  -11.2420    7.9210 C.3    91  LEU91       0.0297
    130  CG        18.2000  -11.3680    6.5870 C.3    91  LEU91       0.0022
    131  CD1       18.2240  -10.0330    5.8680 C.3    91  LEU91       0.0001
    132  CD2       18.8300  -12.4490    5.7270 C.3    91  LEU91       0.0001
    133  N         19.7270  -13.6120   12.8980 N.3    93  ASN93      -0.1225
    134  CA        19.7690  -14.9600   13.4600 C.3    93  ASN93       0.1785
    135  C         20.3020  -15.9720   12.4640 C.2    93  ASN93       0.2597
    136  O         21.0510  -16.8920   12.8390 O.2    93  ASN93      -0.2718
    137  CB        18.3730  -15.4200   13.8790 C.3    93  ASN93       0.1169
    138  CG        17.7050  -14.4580   14.8210 C.2    93  ASN93       0.2627
    139  OD1       18.2370  -14.1340   15.8820 O.2    93  ASN93      -0.2716
    140  ND2       16.5240  -13.9950   14.4390 N.am   93  ASN93      -0.0877
    141  N         19.9090  -15.8320   11.2030 N.am   94  PHE94      -0.1976
    142  CA        20.4530  -16.7100   10.1860 C.3    94  PHE94       0.1639
    143  C         21.9940  -16.5720   10.1480 C.2    94  PHE94       0.2290
    144  O         22.7150  -17.5600   10.0080 O.2    94  PHE94      -0.2864
    145  CB        19.8110  -16.4180    8.8320 C.3    94  PHE94       0.0560
    146  CG        20.4890  -17.0960    7.6810 C.ar   94  PHE94      -0.0200
    147  CD1       20.3250  -18.4430    7.4650 C.ar   94  PHE94      -0.0042
    148  CD2       21.2980  -16.3840    6.8140 C.ar   94  PHE94      -0.0042
    149  CE1       20.9490  -19.0680    6.4030 C.ar   94  PHE94      -0.0003
    150  CE2       21.9330  -17.0200    5.7560 C.ar   94  PHE94      -0.0003
    151  CZ        21.7520  -18.3570    5.5530 C.ar   94  PHE94      -0.0000
    152  N         12.8680   -4.7770    6.5180 N.3   134  LEU134     -0.1245
    153  CA        12.7300   -5.9250    5.6090 C.3   134  LEU134      0.1561
    154  C         13.4430   -5.7050    4.2580 C.2   134  LEU134      0.2260
    155  O         13.4900   -4.5950    3.7100 O.2   134  LEU134     -0.2867
    156  CB        11.2590   -6.2110    5.3240 C.3   134  LEU134      0.0270
    157  CG        10.5890   -7.2610    6.1960 C.3   134  LEU134      0.0019
    158  CD1       10.3010   -6.6740    7.5220 C.3   134  LEU134      0.0001
    159  CD2        9.3130   -7.7760    5.5390 C.3   134  LEU134      0.0001
    160  N         12.2890   -8.4310   -2.4780 N.3   137  LEU137     -0.1245
    161  CA        12.5130   -9.6690   -3.2000 C.3   137  LEU137      0.1561
    162  C         13.0540   -9.3910   -4.5920 C.2   137  LEU137      0.2260
    163  O         12.7530   -8.3640   -5.1910 O.2   137  LEU137     -0.2867
    164  CB        11.2070  -10.4490   -3.2640 C.3   137  LEU137      0.0270
    165  CG        10.7930  -11.0290   -1.9120 C.3   137  LEU137      0.0019
    166  CD1        9.2890  -11.1390   -1.8190 C.3   137  LEU137      0.0001
    167  CD2       11.4560  -12.4010   -1.6730 C.3   137  LEU137      0.0001
    168  N          8.3510   -1.1530    7.8520 N.3   147  ILE147     -0.1231
    169  CA         6.9800   -1.6270    8.0450 C.3   147  ILE147      0.1692
    170  C          6.4420   -1.3340    9.4720 C.2   147  ILE147      0.2592
    171  O          7.1580   -0.8240   10.3370 O.2   147  ILE147     -0.2718
    172  CB         6.7810   -3.1800    7.6750 C.3   147  ILE147      0.0266
    173  CG1        7.4560   -4.1140    8.6800 C.3   147  ILE147      0.0019
    174  CG2        7.3000   -3.4790    6.2970 C.3   147  ILE147      0.0020
    175  CD1        6.9390   -5.5360    8.6710 C.3   147  ILE147      0.0001
    176  N          5.1690   -1.6600    9.6830 N.am  148  ASP148     -0.1974
    177  CA         4.4840   -1.4820   10.9640 C.3   148  ASP148      0.1709
    178  C          4.4020   -0.0200   11.4030 C.2   148  ASP148      0.2293
    179  O          5.1740    0.4290   12.2590 O.2   148  ASP148     -0.2864
    180  CB         5.1360   -2.3140   12.0720 C.3   148  ASP148      0.1436
    181  CG         4.2450   -2.4550   13.2870 C.2   148  ASP148      0.3671
    182  OD1        3.5070   -1.5040   13.6060 O.co2 148  ASP148     -0.2456
    183  OD2        4.2980   -3.5140   13.9320 O.co2 148  ASP148     -0.2456
    184  N         22.0970  -16.3920   -0.2010 N.3   288  LEU288     -0.1245
    185  CA        20.6790  -16.7960   -0.2750 C.3   288  LEU288      0.1561
    186  C         19.9920  -16.4860   -1.6360 C.2   288  LEU288      0.2260
    187  O         20.4150  -15.5810   -2.3750 O.2   288  LEU288     -0.2867
    188  CB        19.8900  -16.1660    0.8780 C.3   288  LEU288      0.0270
    189  CG        20.2640  -16.7550    2.2390 C.3   288  LEU288      0.0019
    190  CD1       19.4830  -16.0640    3.3690 C.3   288  LEU288      0.0001
    191  CD2       20.0420  -18.2690    2.2320 C.3   288  LEU288      0.0001
    192  N         17.2130  -14.9400   -2.6900 N.3   290  PHE290     -0.1241
    193  CA        16.1180  -13.9520   -2.4610 C.3   290  PHE290      0.1605
    194  C         15.2480  -13.6870   -3.6900 C.2   290  PHE290      0.2264
    195  O         14.2830  -12.9160   -3.6370 O.2   290  PHE290     -0.2867
    196  CB        16.6820  -12.6130   -1.9570 C.3   290  PHE290      0.0534
    197  CG        16.8740  -12.5420   -0.4620 C.ar  290  PHE290     -0.0203
    198  CD1       16.8190  -11.3150    0.1890 C.ar  290  PHE290     -0.0042
    199  CD2       17.1170  -13.6850    0.2980 C.ar  290  PHE290     -0.0042
    200  CE1       17.0170  -11.2250    1.5650 C.ar  290  PHE290     -0.0003
    201  CE2       17.3110  -13.5940    1.6720 C.ar  290  PHE290     -0.0003
    202  CZ        17.2600  -12.3640    2.3000 C.ar  290  PHE290     -0.0000
@<TRIPOS>BOND
     1   163   162    2
     2   162   161    1
     3    82    81   ar
     4   194   195    2
     5   194   193    1
     6   164   161    1
     7   164   165    1
     8   161   160    1
     9   192   193    1
    10    81    80    1
    11    81    83   ar
    12   193   196    1
    13   187   186    2
    14    79    80    1
    15    79    76    1
    16   196   197    1
    17   165   166    1
    18   165   167    1
    19    76    75    1
    20    76    77    1
    21   186   185    1
    22    87    86    2
    23    84    77   am
    24    84    85    1
    25    91    89    1
    26    75    69   am
    27    88    85    1
    28    88    89    1
    29    77    78    2
    30   197   198   ar
    31   197   199   ar
    32    86    85    1
    33    86    92   am
    34    70    69    2
    35   185   184    1
    36   185   188    1
    37    69    68    1
    38    89    90    1
    39    54    55    2
    40    54    53    1
    41   198   200   ar
    42   199   201   ar
    43    99    97    1
    44    68    67    1
    45    68    71    1
    46    92    93    1
    47    17    18    1
    48   188   189    1
    49    53    52    1
    50    53    56    1
    51    93    94    1
    52    93    96    1
    53   100    94   am
    54   100   101    1
    55    94    95    2
    56    52    58    1
    57   200   202   ar
    58   201   202   ar
    59    20    19    2
    60    97    96    1
    61    97    98    1
    62   101   102    1
    63    43    42    2
    64    71    72    1
    65    56    57    1
    66   191   189    1
    67   189   190    1
    68    18    19    1
    69    18    21    1
    70    74    73    1
    71    73    72    1
    72    42    41    1
    73    58    57    1
    74    61    62    2
    75    61    60    1
    76   102   103    2
    77   102   104   am
    78   110   104    1
    79   110   109    1
    80   155   154    2
    81    44    41    1
    82    44    45    1
    83    60    59    1
    84    60    63    1
    85    41    40    1
    86   104   105    1
    87   154   153    1
    88    64    63    1
    89    64    65    1
    90    46    45   ar
    91    46    48   ar
    92   109   108    1
    93    45    47   ar
    94     8     6    1
    95    48    50   ar
    96   156   153    1
    97   156   157    1
    98    65    66    1
    99   105   108    1
   100   105   106    1
   101   159   157    1
   102   107   106    2
   103   151   150   ar
   104   151   149   ar
   105   153   152    1
   106    22    23    1
   107    47    49   ar
   108     7     5    1
   109   132   130    1
   110   150   148   ar
   111   131   130    1
   112   106   111   am
   113   157   158    1
   114    50    49   ar
   115    50    51    1
   116     6     5    1
   117   174   172    1
   118   149   147   ar
   119   130   129    1
   120     5     2    1
   121    25    24    2
   122    15    13    1
   123   148   146   ar
   124    23    26    1
   125    23    24    1
   126    34    33    2
   127    26    27    1
   128   111   112    1
   129   147   146   ar
   130   172   169    1
   131   172   173    1
   132   146   145    1
   133   168   169    1
   134    33    32    1
   135   129   126    1
   136    11    10    1
   137    11    12    2
   138   169   170    1
   139     2     1    1
   140     2     3    1
   141    13    10    1
   142    13    14    1
   143   112   113    1
   144   112   115    1
   145    10     9    1
   146   114   113    2
   147   175   173    1
   148   145   142    1
   149    27    28    1
   150   126   125    1
   151   126   127    1
   152     4     3    2
   153    14    16    1
   154    28    29    1
   155   125   119   am
   156    32    35    1
   157    32    31    1
   158   124   122   ar
   159   170   176   am
   160   170   171    2
   161    36    37    1
   162    36    35    1
   163   115   116    1
   164   176   177    1
   165   121   122    1
   166   121   118    1
   167   128   127    2
   168    37    39   ar
   169    37    38   ar
   170   144   143    2
   171   143   142    1
   172   142   141    1
   173   122   123   ar
   174   119   120    2
   175   119   118    1
   176    29    30    1
   177   118   117    1
   178   177   178    1
   179   177   180    1
   180   141   135   am
   181   178   179    2
   182   180   181    1
   183   135   136    2
   184   135   134    1
   185   133   134    1
   186   181   182   ar
   187   181   183   ar
   188   134   137    1
   189   137   138    1
   190   140   138   am
   191   138   139    2
