@<TRIPOS>MOLECULE
tmp/4twcB01.pdb
 202 191 0 0 0
SMALL
GASTEIGER

@<TRIPOS>ATOM
      1  N         22.7810  -23.7450    9.2260 N.3    15  ILE15      -0.1245
      2  CA        21.3740  -23.8850    8.8800 C.3    15  ILE15       0.1561
      3  C         20.6790  -25.0010    9.6580 C.2    15  ILE15       0.2260
      4  O         19.4730  -25.2270    9.4770 O.2    15  ILE15      -0.2867
      5  CB        21.1390  -24.0950    7.3540 C.3    15  ILE15       0.0252
      6  CG1       21.7770  -25.3850    6.8240 C.3    15  ILE15       0.0019
      7  CG2       21.6780  -22.9150    6.5730 C.3    15  ILE15       0.0019
      8  CD1       21.4430  -25.6770    5.3810 C.3    15  ILE15       0.0001
      9  N         25.2480  -28.4640   10.3550 N.3    23  ILE23      -0.1245
     10  CA        24.9930  -28.2840    8.9280 C.3    23  ILE23       0.1561
     11  C         25.1180  -26.8070    8.5490 C.2    23  ILE23       0.2260
     12  O         24.4560  -25.9640    9.1700 O.2    23  ILE23      -0.2867
     13  CB        23.5850  -28.7060    8.5210 C.3    23  ILE23       0.0252
     14  CG1       23.1530  -30.0170    9.1980 C.3    23  ILE23       0.0019
     15  CG2       23.5000  -28.7900    7.0020 C.3    23  ILE23       0.0019
     16  CD1       24.0300  -31.1840    8.8760 C.3    23  ILE23       0.0001
     17  N         24.8100  -28.2480    1.0430 N.3    36  ALA36      -0.1245
     18  CA        24.8430  -28.3630    2.4920 C.3    36  ALA36       0.1562
     19  C         26.1610  -28.9590    2.8980 C.2    36  ALA36       0.2260
     20  O         26.6110  -29.8970    2.2640 O.2    36  ALA36      -0.2867
     21  CB        23.6930  -29.2440    2.9890 C.3    36  ALA36       0.0290
     22  N         28.1920  -30.5880    6.1330 N.3    38  LYS38      -0.1245
     23  CA        28.1950  -31.0840    7.4880 C.3    38  LYS38       0.1561
     24  C         29.6140  -31.1310    8.0170 C.2    38  LYS38       0.2260
     25  O         30.5340  -31.5780    7.3310 O.2    38  LYS38      -0.2867
     26  CB        27.5310  -32.4570    7.5670 C.3    38  LYS38       0.0271
     27  CG        27.4110  -32.9810    8.9750 C.3    38  LYS38       0.0035
     28  CD        26.4350  -34.1470    9.0320 C.3    38  LYS38       0.0206
     29  CE        26.1600  -34.5080   10.4670 C.3    38  LYS38       0.1093
     30  NZ        25.1910  -35.6170   10.5740 N.3    38  LYS38      -0.1314
     31  N         28.9950  -42.1540    8.7310 N.3    52  GLU52      -0.1245
     32  CA        27.7520  -41.6800    8.1030 C.3    52  GLU52       0.1567
     33  C         27.9490  -41.4590    6.6000 C.2    52  GLU52       0.2260
     34  O         27.0530  -41.7880    5.8060 O.2    52  GLU52      -0.2867
     35  CB        27.2660  -40.3950    8.7680 C.3    52  GLU52       0.0388
     36  CG        25.8270  -40.1170    8.4790 C.3    52  GLU52       0.1160
     37  CD        25.3410  -38.7850    8.9600 C.2    52  GLU52       0.3649
     38  OE1       26.1650  -37.8980    9.2690 O.co2  52  GLU52      -0.2457
     39  OE2       24.1140  -38.6010    8.9670 O.co2  52  GLU52      -0.2457
     40  N         25.8350  -42.8730    3.3370 N.3    56  TYR56      -0.1241
     41  CA        25.3000  -42.1090    2.2260 C.3    56  TYR56       0.1605
     42  C         25.8540  -42.5700    0.8890 C.2    56  TYR56       0.2264
     43  O         25.1240  -42.5990   -0.1120 O.2    56  TYR56      -0.2867
     44  CB        25.5490  -40.6180    2.3670 C.3    56  TYR56       0.0534
     45  CG        24.6190  -39.8690    3.2820 C.ar   56  TYR56      -0.0201
     46  CD1       23.2990  -39.6450    2.9200 C.ar   56  TYR56      -0.0009
     47  CD2       25.0660  -39.3450    4.4870 C.ar   56  TYR56      -0.0009
     48  CE1       22.4370  -38.9260    3.7470 C.ar   56  TYR56       0.0417
     49  CE2       24.2260  -38.6010    5.3110 C.ar   56  TYR56       0.0417
     50  CZ        22.8970  -38.3960    4.9420 C.ar   56  TYR56       0.1957
     51  OH        22.0540  -37.6500    5.7660 O.3    56  TYR56      -0.2866
     52  N         19.7790  -37.9150   -0.4180 N.3    66  PRO66      -0.2116
     53  CA        20.6060  -36.7910   -0.9190 C.3    66  PRO66       0.1372
     54  C         21.9570  -37.2680   -1.4460 C.2    66  PRO66       0.2244
     55  O         22.5130  -38.2230   -0.9170 O.2    66  PRO66      -0.2868
     56  CB        20.8190  -35.9190    0.3210 C.3    66  PRO66       0.0268
     57  CG        20.5720  -36.7820    1.4690 C.3    66  PRO66       0.0207
     58  CD        19.6050  -37.8580    1.0500 C.3    66  PRO66       0.0892
     59  N         31.6270  -33.1750    5.1730 N.3    80  MET80      -0.1245
     60  CA        30.8000  -33.8810    4.1960 C.3    80  MET80       0.1570
     61  C         29.8850  -32.9200    3.4890 C.2    80  MET80       0.2261
     62  O         29.0420  -32.2740    4.1040 O.2    80  MET80      -0.2867
     63  CB        30.0210  -34.9990    4.9290 C.3    80  MET80       0.0387
     64  CG        29.2160  -35.9290    4.0500 C.3    80  MET80       0.0595
     65  SD        28.2690  -37.1010    5.0830 S.3    80  MET80      -0.1393
     66  CE        26.9210  -36.1180    5.6570 C.3    80  MET80       0.0692
     67  N         26.9960  -32.2190    0.7470 N.3    82  MET82      -0.1230
     68  CA        25.7860  -32.8610    0.1940 C.3    82  MET82       0.1702
     69  C         25.0180  -31.8900   -0.6720 C.2    82  MET82       0.2592
     70  O         25.0930  -30.6630   -0.4840 O.2    82  MET82      -0.2718
     71  CB        24.8470  -33.2490    1.3260 C.3    82  MET82       0.0401
     72  CG        25.4330  -34.0640    2.4630 C.3    82  MET82       0.0596
     73  SD        26.0460  -35.6810    1.9170 S.3    82  MET82      -0.1393
     74  CE        24.5040  -36.4910    1.5570 C.3    82  MET82       0.0692
     75  N         24.2910  -32.4320   -1.6330 N.am   83  GLU83      -0.1966
     76  CA        23.1980  -31.7560   -2.3010 C.3    83  GLU83       0.1733
     77  C         22.3270  -31.0340   -1.2980 C.2    83  GLU83       0.2616
     78  O         21.9250  -31.6150   -0.3030 O.2    83  GLU83      -0.2715
     79  CB        22.3310  -32.8260   -2.9720 C.3    83  GLU83       0.0429
     80  CG        21.1780  -32.3380   -3.7970 C.3    83  GLU83       0.1163
     81  CD        20.3550  -33.4790   -4.4130 C.2    83  GLU83       0.3649
     82  OE1       20.5390  -34.6780   -4.0620 O.co2  83  GLU83      -0.2457
     83  OE2       19.4870  -33.1740   -5.2550 O.co2  83  GLU83      -0.2457
     84  N         22.0190  -29.7760   -1.5700 N.am   84  LEU84      -0.1963
     85  CA        21.1210  -29.0110   -0.7210 C.3    84  LEU84       0.1728
     86  C         19.6650  -29.4010   -0.9520 C.2    84  LEU84       0.2616
     87  O         19.2070  -29.5190   -2.0780 O.2    84  LEU84      -0.2715
     88  CB        21.2860  -27.5060   -0.9430 C.3    84  LEU84       0.0311
     89  CG        20.3830  -26.5490   -0.1620 C.3    84  LEU84       0.0022
     90  CD1       20.7310  -26.5270    1.3160 C.3    84  LEU84       0.0001
     91  CD2       20.3980  -25.1340   -0.7280 C.3    84  LEU84       0.0001
     92  N         18.9700  -29.6250    0.1410 N.am   85  LEU85      -0.1963
     93  CA        17.5410  -29.9370    0.0990 C.3    85  LEU85       0.1728
     94  C         16.7390  -28.7950    0.6940 C.2    85  LEU85       0.2617
     95  O         17.3000  -27.8320    1.2410 O.2    85  LEU85      -0.2715
     96  CB        17.2510  -31.2280    0.8450 C.3    85  LEU85       0.0311
     97  CG        18.0350  -32.4420    0.3800 C.3    85  LEU85       0.0022
     98  CD1       17.8210  -33.6020    1.3180 C.3    85  LEU85       0.0001
     99  CD2       17.7150  -32.8070   -1.0510 C.3    85  LEU85       0.0001
    100  N         15.4200  -28.9240    0.5680 N.am   86  GLY86      -0.1940
    101  CA        14.4820  -27.9530    1.0560 C.3    86  GLY86       0.2002
    102  C         14.1050  -28.1450    2.5040 C.2    86  GLY86       0.2518
    103  O         14.7970  -28.8320    3.2560 O.2    86  GLY86      -0.2726
    104  N         12.9670  -27.5390    2.9040 N.am   87  PRO87      -0.2490
    105  CA        12.5710  -27.5500    4.3100 C.3    87  PRO87       0.1619
    106  C         12.1930  -28.9550    4.8020 C.2    87  PRO87       0.2605
    107  O         11.6680  -29.7820    4.0530 O.2    87  PRO87      -0.2715
    108  CB        11.3500  -26.6170    4.3670 C.3    87  PRO87       0.0570
    109  CG        11.1470  -26.0720    3.0090 C.2    87  PRO87      -0.0077
    110  CD        12.1250  -26.6710    2.0650 C.2    87  PRO87       0.0634
    111  N         12.3680  -29.1780    6.0850 N.am   88  SER88      -0.1950
    112  CA        11.9080  -30.3970    6.6650 C.3    88  SER88       0.1924
    113  C         10.3850  -30.4340    6.8190 C.2    88  SER88       0.2314
    114  O          9.7000  -29.4050    6.7900 O.2    88  SER88      -0.2863
    115  CB        12.5600  -30.6330    8.0190 C.3    88  SER88       0.2116
    116  OG        11.9230  -29.9100    9.0470 O.3    88  SER88      -0.2180
    117  N          9.5030  -28.2970    9.8050 N.3    91  ASP91      -0.1225
    118  CA         9.4280  -26.8940    9.3310 C.3    91  ASP91       0.1805
    119  C          8.0840  -26.6330    8.6410 C.2    91  ASP91       0.2597
    120  O          7.3860  -25.6250    8.9320 O.2    91  ASP91      -0.2718
    121  CB        10.5450  -26.6010    8.3140 C.3    91  ASP91       0.1424
    122  CG        11.9810  -26.6750    8.9100 C.2    91  ASP91       0.3668
    123  OD1       12.1430  -26.5020   10.1300 O.co2  91  ASP91      -0.2456
    124  OD2       12.9450  -26.9130    8.1320 O.co2  91  ASP91      -0.2456
    125  N          7.7390  -27.4810    7.6780 N.am   92  LEU92      -0.1979
    126  CA         6.4790  -27.3450    6.9650 C.3    92  LEU92       0.1596
    127  C          5.2500  -27.5150    7.8480 C.2    92  LEU92       0.2287
    128  O          4.2900  -26.7450    7.7160 O.2    92  LEU92      -0.2864
    129  CB         6.4460  -28.2040    5.7210 C.3    92  LEU92       0.0297
    130  CG         7.5210  -27.8390    4.6820 C.3    92  LEU92       0.0022
    131  CD1        7.8450  -28.9280    3.6770 C.3    92  LEU92       0.0001
    132  CD2        7.1080  -26.5910    3.9160 C.3    92  LEU92       0.0001
    133  N          5.0760  -26.8010   10.9880 N.3    94  ASN94      -0.1225
    134  CA         5.0050  -25.5200   11.7100 C.3    94  ASN94       0.1785
    135  C          4.4430  -24.3910   10.9030 C.2    94  ASN94       0.2597
    136  O          3.6070  -23.6530   11.4100 O.2    94  ASN94      -0.2718
    137  CB         6.3600  -25.1100   12.2810 C.3    94  ASN94       0.1169
    138  CG         6.7390  -25.9520   13.4720 C.2    94  ASN94       0.2627
    139  OD1        5.8880  -26.2930   14.2780 O.2    94  ASN94      -0.2716
    140  ND2        8.0030  -26.3400   13.5550 N.am   94  ASN94      -0.0877
    141  N          4.8730  -24.2680    9.6460 N.am   95  PHE95      -0.1976
    142  CA         4.3420  -23.2730    8.7370 C.3    95  PHE95       0.1639
    143  C          2.8480  -23.4350    8.5210 C.2    95  PHE95       0.2290
    144  O          2.1240  -22.4630    8.4190 O.2    95  PHE95      -0.2864
    145  CB         5.0380  -23.3640    7.3800 C.3    95  PHE95       0.0560
    146  CG         4.4680  -22.4480    6.3320 C.ar   95  PHE95      -0.0200
    147  CD1        4.5460  -21.0570    6.4870 C.ar   95  PHE95      -0.0042
    148  CD2        3.8430  -22.9630    5.1880 C.ar   95  PHE95      -0.0042
    149  CE1        4.0010  -20.2370    5.5410 C.ar   95  PHE95      -0.0003
    150  CE2        3.3120  -22.1320    4.2370 C.ar   95  PHE95      -0.0003
    151  CZ         3.3930  -20.7570    4.4160 C.ar   95  PHE95      -0.0000
    152  N         12.9540  -34.2610    4.3520 N.3   135  LEU135     -0.1245
    153  CA        13.0510  -32.9540    3.7340 C.3   135  LEU135      0.1561
    154  C         12.5020  -33.0190    2.3220 C.2   135  LEU135      0.2260
    155  O         12.7560  -33.9710    1.5910 O.2   135  LEU135     -0.2867
    156  CB        14.5310  -32.4710    3.6550 C.3   135  LEU135      0.0270
    157  CG        15.1750  -31.9070    4.9270 C.3   135  LEU135      0.0019
    158  CD1       15.1110  -32.8610    6.0800 C.3   135  LEU135      0.0001
    159  CD2       16.6140  -31.4820    4.6230 C.3   135  LEU135      0.0001
    160  N         14.3840  -29.4520   -3.6780 N.3   138  LEU138     -0.1245
    161  CA        14.3260  -28.1260   -4.2670 C.3   138  LEU138      0.1561
    162  C         14.0520  -28.2130   -5.7620 C.2   138  LEU138      0.2260
    163  O         14.3900  -29.1960   -6.4170 O.2   138  LEU138     -0.2867
    164  CB        15.6560  -27.3910   -4.0360 C.3   138  LEU138      0.0270
    165  CG        15.9410  -27.0780   -2.5680 C.3   138  LEU138      0.0019
    166  CD1       17.3390  -26.4630   -2.4260 C.3   138  LEU138      0.0001
    167  CD2       14.8740  -26.1790   -1.9640 C.3   138  LEU138      0.0001
    168  N         16.9580  -38.1380    5.5790 N.3   148  ILE148     -0.1231
    169  CA        18.3060  -37.7660    5.9520 C.3   148  ILE148      0.1692
    170  C         18.6540  -38.2660    7.3510 C.2   148  ILE148      0.2592
    171  O         17.8120  -38.7240    8.1240 O.2   148  ILE148     -0.2718
    172  CB        18.5310  -36.2320    5.9680 C.3   148  ILE148      0.0266
    173  CG1       17.6620  -35.5760    7.0380 C.3   148  ILE148      0.0019
    174  CG2       18.2870  -35.6170    4.6030 C.3   148  ILE148      0.0020
    175  CD1       18.1370  -34.2190    7.4740 C.3   148  ILE148      0.0001
    176  N         19.9470  -38.1440    7.6190 N.am  149  ASP149     -0.1974
    177  CA        20.5630  -38.3350    8.9130 C.3   149  ASP149      0.1709
    178  C         20.7240  -39.8080    9.2320 C.2   149  ASP149      0.2293
    179  O         19.7760  -40.4960    9.6010 O.2   149  ASP149     -0.2864
    180  CB        19.8680  -37.5990   10.0370 C.3   149  ASP149      0.1436
    181  CG        20.8470  -37.3530   11.2020 C.2   149  ASP149      0.3671
    182  OD1       21.5910  -38.2980   11.5400 O.co2 149  ASP149     -0.2456
    183  OD2       20.9780  -36.2220   11.6820 O.co2 149  ASP149     -0.2456
    184  N          4.0260  -21.8440   -0.9440 N.3   290  LEU290     -0.1245
    185  CA         5.4760  -21.6750   -0.9290 C.3   290  LEU290      0.1561
    186  C          6.0760  -22.1430   -2.2420 C.2   290  LEU290      0.2260
    187  O          5.8190  -23.2480   -2.6690 O.2   290  LEU290     -0.2867
    188  CB         6.0990  -22.4510    0.2190 C.3   290  LEU290      0.0270
    189  CG         5.7010  -22.0630    1.6270 C.3   290  LEU290      0.0019
    190  CD1        6.4960  -22.9070    2.5980 C.3   290  LEU290      0.0001
    191  CD2        5.9310  -20.5870    1.9000 C.3   290  LEU290      0.0001
    192  N          9.1900  -23.0350   -3.4650 N.3   292  PHE292     -0.1241
    193  CA        10.5490  -23.5650   -3.4360 C.3   292  PHE292      0.1605
    194  C         10.7240  -24.7160   -4.4150 C.2   292  PHE292      0.2264
    195  O         11.8550  -25.0890   -4.7250 O.2   292  PHE292     -0.2867
    196  CB        10.9700  -23.9840   -2.0180 C.3   292  PHE292      0.0534
    197  CG        10.1780  -25.1460   -1.4350 C.ar  292  PHE292     -0.0203
    198  CD1       10.5140  -26.4700   -1.7360 C.ar  292  PHE292     -0.0042
    199  CD2        9.1400  -24.9060   -0.5290 C.ar  292  PHE292     -0.0042
    200  CE1        9.8040  -27.5280   -1.1530 C.ar  292  PHE292     -0.0003
    201  CE2        8.4230  -25.9510    0.0420 C.ar  292  PHE292     -0.0003
    202  CZ         8.7690  -27.2680   -0.2600 C.ar  292  PHE292     -0.0000
@<TRIPOS>BOND
     1   163   162    2
     2   162   161    1
     3    83    81   ar
     4   195   194    2
     5   194   193    1
     6    81    82   ar
     7    81    80    1
     8   161   164    1
     9   161   160    1
    10   164   165    1
    11    80    79    1
    12   192   193    1
    13   193   196    1
    14    79    76    1
    15   187   186    2
    16   165   166    1
    17   165   167    1
    18    76    75    1
    19    76    77    1
    20   186   185    1
    21    87    86    2
    22   196   197    1
    23   198   197   ar
    24   198   200   ar
    25    75    69   am
    26    84    77   am
    27    84    85    1
    28    54    53    1
    29    54    55    2
    30   197   199   ar
    31    77    78    2
    32   200   202   ar
    33    99    97    1
    34    86    85    1
    35    86    92   am
    36   184   185    1
    37    88    85    1
    38    88    89    1
    39   185   188    1
    40    53    52    1
    41    53    56    1
    42    91    89    1
    43    69    70    2
    44    69    68    1
    45   199   201   ar
    46    52    58    1
    47   202   201   ar
    48    89    90    1
    49    43    42    2
    50    93    92    1
    51    93    94    1
    52    93    96    1
    53    68    67    1
    54    68    71    1
    55   188   189    1
    56    56    57    1
    57    97    96    1
    58    97    98    1
    59   100    94   am
    60   100   101    1
    61    94    95    2
    62    42    41    1
    63    17    18    1
    64    58    57    1
    65   101   102    1
    66    71    72    1
    67    74    73    1
    68   155   154    2
    69   189   191    1
    70   189   190    1
    71    73    72    1
    72   110   104    1
    73   110   109    2
    74    41    44    1
    75    41    40    1
    76    20    19    2
    77   154   153    1
    78    44    45    1
    79    18    19    1
    80    18    21    1
    81   102   104   am
    82   102   103    2
    83   104   105    1
    84    46    45   ar
    85    46    48   ar
    86   109   108    1
    87    45    47   ar
    88    61    62    2
    89    61    60    1
    90   156   153    1
    91   156   157    1
    92   131   130    1
    93   153   152    1
    94    48    50   ar
    95   132   130    1
    96    64    63    1
    97    64    65    1
    98   107   106    2
    99    60    63    1
   100    60    59    1
   101   150   151   ar
   102   150   148   ar
   103   105   108    1
   104   105   106    1
   105   151   149   ar
   106    47    49   ar
   107   174   172    1
   108   159   157    1
   109   130   129    1
   110   106   111   am
   111   157   158    1
   112    50    49   ar
   113    50    51    1
   114    65    66    1
   115   148   146   ar
   116     8     6    1
   117   149   147   ar
   118   168   169    1
   119   129   126    1
   120    34    33    2
   121   169   172    1
   122   169   170    1
   123   172   173    1
   124   111   112    1
   125    22    23    1
   126   146   147   ar
   127   146   145    1
   128     7     5    1
   129    33    32    1
   130   112   113    1
   131   112   115    1
   132   114   113    2
   133     6     5    1
   134   126   125    1
   135   126   127    1
   136    15    13    1
   137   173   175    1
   138    25    24    2
   139   170   176   am
   140   170   171    2
   141     5     2    1
   142   145   142    1
   143    23    26    1
   144    23    24    1
   145    26    27    1
   146   176   177    1
   147   125   119   am
   148   128   127    2
   149   115   116    1
   150    32    31    1
   151    32    35    1
   152   124   122   ar
   153   121   122    1
   154   121   118    1
   155   144   143    2
   156    36    35    1
   157    36    37    1
   158    13    10    1
   159    13    14    1
   160   143   142    1
   161    11    10    1
   162    11    12    2
   163   119   120    2
   164   119   118    1
   165   142   141    1
   166    16    14    1
   167     2     1    1
   168     2     3    1
   169   122   123   ar
   170   177   178    1
   171   177   180    1
   172    10     9    1
   173    37    39   ar
   174    37    38   ar
   175    27    28    1
   176    28    29    1
   177   178   179    2
   178   118   117    1
   179     4     3    2
   180   141   135   am
   181   180   181    1
   182    29    30    1
   183   135   136    2
   184   135   134    1
   185   133   134    1
   186   181   182   ar
   187   181   183   ar
   188   134   137    1
   189   137   138    1
   190   138   140   am
   191   138   139    2
