@<TRIPOS>MOLECULE
tmp/4tweB05.pdb
 101 96 0 0 0
SMALL
GASTEIGER

@<TRIPOS>ATOM
      1  N         65.5030   35.0330   88.7460 N.3   159  TYR159     -0.1227
      2  CA        65.7350   33.9180   87.8150 C.3   159  TYR159      0.1736
      3  C         64.3960   33.3480   87.3450 C.2   159  TYR159      0.2596
      4  O         63.3760   33.4110   88.0550 O.2   159  TYR159     -0.2718
      5  CB        66.5480   32.8270   88.5070 C.3   159  TYR159      0.0548
      6  CG        68.0220   33.0270   88.4560 C.ar  159  TYR159     -0.0200
      7  CD1       68.7050   33.0530   87.2320 C.ar  159  TYR159     -0.0009
      8  CD2       68.7760   33.1900   89.6390 C.ar  159  TYR159     -0.0009
      9  CE1       70.0770   33.2230   87.1940 C.ar  159  TYR159      0.0417
     10  CE2       70.1810   33.3530   89.6120 C.ar  159  TYR159      0.0417
     11  CZ        70.8200   33.3660   88.3710 C.ar  159  TYR159      0.1957
     12  OH        72.1880   33.4810   88.2870 O.3   159  TYR159     -0.2866
     13  N         64.4020   32.8250   86.1000 N.am  160  GLY160     -0.1957
     14  CA        63.2220   32.2120   85.4850 C.3   160  GLY160      0.1869
     15  C         62.6530   33.0830   84.3680 C.2   160  GLY160      0.2309
     16  O         63.0940   34.2240   84.1640 O.2   160  GLY160     -0.2863
     17  N         62.8980   34.1060   81.3320 N.3   162  VAL162     -0.1231
     18  CA        63.8140   34.2070   80.1820 C.3   162  VAL162      0.1692
     19  C         65.1740   33.7390   80.6470 C.2   162  VAL162      0.2593
     20  O         65.4100   33.6680   81.8430 O.2   162  VAL162     -0.2718
     21  CB        63.8900   35.6250   79.5460 C.3   162  VAL162      0.0266
     22  CG1       62.5220   36.0420   78.9610 C.3   162  VAL162      0.0020
     23  CG2       64.4240   36.7050   80.5620 C.3   162  VAL162      0.0020
     24  N         66.0480   33.4390   79.7050 N.am  163  GLY163     -0.1942
     25  CA        67.4070   32.9230   79.9860 C.3   163  GLY163      0.2014
     26  C         68.2560   33.9480   80.7530 C.2   163  GLY163      0.2639
     27  O         67.9060   35.1130   80.8290 O.2   163  GLY163     -0.2714
     28  N         69.3550   33.4780   81.3230 N.am  164  ARG164     -0.1963
     29  CA        70.1730   34.3450   82.2110 C.3   164  ARG164      0.1729
     30  C         70.6690   35.6010   81.5110 C.2   164  ARG164      0.2616
     31  O         70.4210   36.7340   81.9700 O.2   164  ARG164     -0.2715
     32  CB        71.3610   33.5560   82.7610 C.3   164  ARG164      0.0348
     33  CG        70.9550   32.3540   83.6650 C.3   164  ARG164      0.0492
     34  CD        72.1760   31.7430   84.3820 C.3   164  ARG164      0.2205
     35  NE        71.7960   30.4430   84.9370 N.pl3 164  ARG164     -0.0865
     36  CZ        71.9370   29.2720   84.2940 C.cat 164  ARG164      0.5346
     37  NH1       72.4770   29.2000   83.0710 N.pl3 164  ARG164      0.1354
     38  NH2       71.5070   28.1460   84.8680 N.pl3 164  ARG164      0.1354
     39  N         71.3530   35.4250   80.3770 N.am  165  GLY165     -0.1955
     40  CA        71.9200   36.5640   79.6480 C.3   165  GLY165      0.1869
     41  C         70.8560   37.4590   79.0410 C.2   165  GLY165      0.2309
     42  O         71.0640   38.6460   78.9180 O.2   165  GLY165     -0.2863
     43  N         68.3360   38.5540   80.3420 N.3   167  LYS167     -0.1245
     44  CA        67.9190   39.6370   81.2770 C.3   167  LYS167      0.1561
     45  C         68.7650   40.9120   81.0620 C.2   167  LYS167      0.2260
     46  O         68.2500   42.0300   81.0820 O.2   167  LYS167     -0.2867
     47  CB        68.0630   39.1190   82.7220 C.3   167  LYS167      0.0271
     48  CG        67.1470   37.9250   82.9830 C.3   167  LYS167      0.0035
     49  CD        67.4220   37.2460   84.3440 C.3   167  LYS167      0.0206
     50  CE        66.7460   35.8430   84.4520 C.3   167  LYS167      0.1093
     51  NZ        65.2450   35.9190   84.5430 N.3   167  LYS167     -0.1314
     52  N         72.4560   31.0550   92.7270 N.3   211  GLU211     -0.1245
     53  CA        72.5670   30.3260   91.4350 C.3   211  GLU211      0.1567
     54  C         73.6570   30.9850   90.5670 C.2   211  GLU211      0.2260
     55  O         73.4720   32.1180   90.1130 O.2   211  GLU211     -0.2867
     56  CB        71.2230   30.2450   90.7110 C.3   211  GLU211      0.0388
     57  CG        71.3770   29.7010   89.2470 C.3   211  GLU211      0.1160
     58  CD        70.1280   29.5470   88.4360 C.2   211  GLU211      0.3649
     59  OE1       69.0390   29.4780   89.0160 O.co2 211  GLU211     -0.2457
     60  OE2       70.2570   29.4870   87.1810 O.co2 211  GLU211     -0.2457
     61  N         75.8730   30.0100   83.1760 N.3   214  SER214     -0.1217
     62  CA        76.2470   30.7030   81.9620 C.3   214  SER214      0.1889
     63  C         75.1930   31.7550   81.5980 C.2   214  SER214      0.2288
     64  O         73.9940   31.4870   81.5230 O.2   214  SER214     -0.2866
     65  CB        76.4620   29.7380   80.7890 C.3   214  SER214      0.2089
     66  OG        76.6200   30.4590   79.5890 O.3   214  SER214     -0.2183
     67  N         75.7870   33.2740   78.6000 N.3   216  TYR216     -0.1241
     68  CA        76.0410   33.2470   77.1720 C.3   216  TYR216      0.1605
     69  C         74.7210   33.0180   76.4070 C.2   216  TYR216      0.2264
     70  O         73.8870   32.2050   76.8340 O.2   216  TYR216     -0.2867
     71  CB        77.0280   32.1050   76.9210 C.3   216  TYR216      0.0534
     72  CG        77.4450   31.9020   75.4940 C.ar  216  TYR216     -0.0201
     73  CD1       77.5320   32.9640   74.6200 C.ar  216  TYR216     -0.0009
     74  CD2       77.8180   30.6490   75.0360 C.ar  216  TYR216     -0.0009
     75  CE1       77.9380   32.7730   73.3120 C.ar  216  TYR216      0.0417
     76  CE2       78.2300   30.4540   73.7230 C.ar  216  TYR216      0.0417
     77  CZ        78.2940   31.5170   72.8780 C.ar  216  TYR216      0.1957
     78  OH        78.6870   31.3370   71.5800 O.3   216  TYR216     -0.2866
     79  N         60.9570   25.5980   90.9480 N.3   505  ARG505     -0.1245
     80  CA        61.3300   25.6500   89.5460 C.3   505  ARG505      0.1563
     81  C         62.3440   24.5560   89.2050 C.2   505  ARG505      0.2260
     82  O         62.3680   24.0600   88.0630 O.2   505  ARG505     -0.2867
     83  CB        61.8970   27.0340   89.1750 C.3   505  ARG505      0.0307
     84  CG        62.9870   27.5980   90.1070 C.3   505  ARG505      0.0489
     85  CD        63.2410   29.1070   89.7500 C.3   505  ARG505      0.2205
     86  NE        63.7310   29.1620   88.3790 N.pl3 505  ARG505     -0.0865
     87  CZ        65.0310   29.0820   88.0680 C.cat 505  ARG505      0.5346
     88  NH1       65.9380   28.9810   89.0330 N.pl3 505  ARG505      0.1354
     89  NH2       65.4130   29.1280   86.7950 N.pl3 505  ARG505      0.1354
     90  N         70.1500   24.0890   93.3070 N.3   510  TYR510     -0.1241
     91  CA        70.7640   24.0620   91.9540 C.3   510  TYR510      0.1605
     92  C         71.7860   25.2090   91.7610 C.2   510  TYR510      0.2264
     93  O         71.4360   26.3880   91.9510 O.2   510  TYR510     -0.2867
     94  CB        69.6320   24.2310   90.9960 C.3   510  TYR510      0.0534
     95  CG        69.9990   24.4270   89.5390 C.ar  510  TYR510     -0.0201
     96  CD1       70.4620   23.3510   88.7990 C.ar  510  TYR510     -0.0009
     97  CD2       69.7180   25.6520   88.8980 C.ar  510  TYR510     -0.0009
     98  CE1       70.7180   23.5220   87.4050 C.ar  510  TYR510      0.0417
     99  CE2       69.9760   25.8120   87.4940 C.ar  510  TYR510      0.0417
    100  CZ        70.4550   24.7200   86.7910 C.ar  510  TYR510      0.1957
    101  OH        70.7000   24.8560   85.4080 O.3   510  TYR510     -0.2866
@<TRIPOS>BOND
     1    78    77    1
     2    77    75   ar
     3    77    76   ar
     4    75    73   ar
     5    76    74   ar
     6    73    72   ar
     7    74    72   ar
     8    72    71    1
     9    69    70    2
    10    69    68    1
    11    71    68    1
    12    68    67    1
    13    42    41    2
    14    22    21    1
    15    41    40    1
    16    21    18    1
    17    21    23    1
    18    66    65    1
    19    40    39    1
    20    24    25    1
    21    24    19   am
    22    25    26    1
    23    18    19    1
    24    18    17    1
    25    43    44    1
    26    39    30   am
    27    19    20    2
    28    26    27    2
    29    26    28   am
    30    65    62    1
    31    45    46    2
    32    45    44    1
    33    44    47    1
    34    28    29    1
    35    30    31    2
    36    30    29    1
    37    64    63    2
    38    63    62    1
    39    62    61    1
    40    29    32    1
    41    47    48    1
    42    32    33    1
    43    48    49    1
    44    37    36    1
    45    33    34    1
    46    16    15    2
    47    36    38    1
    48    36    35    2
    49    49    50    1
    50    15    14    1
    51    34    35    1
    52    50    51    1
    53   101   100    1
    54    14    13    1
    55    13     3   am
    56   100    98   ar
    57   100    99   ar
    58    89    87    1
    59    60    58   ar
    60     9     7   ar
    61     9    11   ar
    62     7     6   ar
    63     3     2    1
    64     3     4    2
    65    98    96   ar
    66    99    97   ar
    67     2     5    1
    68     2     1    1
    69    82    81    2
    70    87    86    2
    71    87    88    1
    72    12    11    1
    73    11    10   ar
    74    86    85    1
    75    58    59   ar
    76    58    57    1
    77     6     5    1
    78     6     8   ar
    79    96    95   ar
    80    97    95   ar
    81    83    80    1
    82    83    84    1
    83    81    80    1
    84    57    56    1
    85    95    94    1
    86    80    79    1
    87    10     8   ar
    88    85    84    1
    89    55    54    2
    90    54    53    1
    91    56    53    1
    92    94    91    1
    93    53    52    1
    94    92    93    2
    95    92    91    1
    96    91    90    1
