@<TRIPOS>MOLECULE
tmp/4tweA02.pdb
 81 75 0 0 0
SMALL
GASTEIGER

@<TRIPOS>ATOM
      1  N         57.8140   40.6930   18.5220 N.3    79  GLN79      -0.1245
      2  CA        58.8310   41.7560   18.4120 C.3    79  GLN79       0.1566
      3  C         60.1900   41.0840   18.5630 C.2    79  GLN79       0.2260
      4  O         60.6470   40.8840   19.7020 O.2    79  GLN79      -0.2867
      5  CB        58.7040   42.7970   19.5230 C.3    79  GLN79       0.0367
      6  CG        57.3700   43.5370   19.5750 C.3    79  GLN79       0.0905
      7  CD        57.3560   44.5460   20.6930 C.2    79  GLN79       0.2608
      8  OE1       57.0460   44.2180   21.8360 O.2    79  GLN79      -0.2717
      9  NE2       57.7140   45.7840   20.3740 N.am   79  GLN79      -0.0878
     10  N         66.5840   42.9740   18.0120 N.3    82  VAL82      -0.1245
     11  CA        67.1880   43.5200   16.8100 C.3    82  VAL82       0.1561
     12  C         68.3970   44.3110   17.2020 C.2    82  VAL82       0.2260
     13  O         68.4020   44.9860   18.2270 O.2    82  VAL82      -0.2867
     14  CB        66.1830   44.4820   16.0400 C.3    82  VAL82       0.0252
     15  CG1       64.9290   43.7120   15.5890 C.3    82  VAL82       0.0019
     16  CG2       65.7630   45.6170   16.9100 C.3    82  VAL82       0.0019
     17  N         70.7030   47.2660   15.5140 N.3    84  ASP84      -0.1239
     18  CA        70.7470   48.1950   14.3650 C.3    84  ASP84       0.1674
     19  C         71.8650   49.1980   14.5220 C.2    84  ASP84       0.2266
     20  O         72.1820   49.6150   15.6440 O.2    84  ASP84      -0.2867
     21  CB        69.4430   48.9990   14.2560 C.3    84  ASP84       0.1410
     22  CG        68.2140   48.1330   13.8690 C.2    84  ASP84       0.3668
     23  OD1       68.3130   47.2250   13.0010 O.co2  84  ASP84      -0.2456
     24  OD2       67.1190   48.4020   14.4200 O.co2  84  ASP84      -0.2456
     25  N         67.7130   54.3040   10.7920 N.3    92  ILE92      -0.1245
     26  CA        68.5070   53.0530   10.7540 C.3    92  ILE92       0.1561
     27  C         69.3770   52.9540    9.5120 C.2    92  ILE92       0.2260
     28  O         68.9030   53.0380    8.3760 O.2    92  ILE92      -0.2867
     29  CB        67.6800   51.7190   11.0050 C.3    92  ILE92       0.0252
     30  CG1       66.8090   51.3390    9.7940 C.3    92  ILE92       0.0019
     31  CG2       66.8700   51.8070   12.2940 C.3    92  ILE92       0.0019
     32  CD1       66.4510   49.8270    9.6960 C.3    92  ILE92       0.0001
     33  N         66.0010   48.9780   25.4520 N.3   124  THR124     -0.1204
     34  CA        66.3450   49.4420   24.1040 C.3   124  THR124      0.1979
     35  C         67.5370   50.4220   24.1770 C.2   124  THR124      0.2460
     36  O         67.4550   51.5510   23.6450 O.2   124  THR124     -0.2732
     37  CB        65.1170   50.1430   23.4110 C.3   124  THR124      0.1783
     38  OG1       64.6600   51.1910   24.2700 O.3   124  THR124     -0.2211
     39  CG2       63.9590   49.1510   23.1530 C.3   124  THR124      0.0376
     40  N         68.6680   50.0000   24.8050 N.am  125  PRO125     -0.2717
     41  CA        69.8210   50.8920   24.8800 C.3   125  PRO125      0.1535
     42  C         70.4040   51.1980   23.4990 C.2   125  PRO125      0.2598
     43  O         70.2830   50.4160   22.5540 O.2   125  PRO125     -0.2715
     44  CB        70.8420   50.0850   25.6970 C.3   125  PRO125      0.0310
     45  CG        70.5240   48.6620   25.3870 C.3   125  PRO125      0.0237
     46  CD        68.9790   48.6960   25.4250 C.3   125  PRO125      0.0939
     47  N         71.0480   52.3520   23.4120 N.am  126  GLN126     -0.1978
     48  CA        71.6980   52.7490   22.1910 C.3   126  GLN126      0.1601
     49  C         72.8850   53.6420   22.5640 C.2   126  GLN126      0.2287
     50  O         72.7350   54.5800   23.3540 O.2   126  GLN126     -0.2864
     51  CB        70.6720   53.5140   21.3450 C.3   126  GLN126      0.0394
     52  CG        71.2520   54.0860   20.0650 C.3   126  GLN126      0.0908
     53  CD        70.2270   54.9020   19.3370 C.2   126  GLN126      0.2608
     54  OE1       69.1640   54.3870   18.9460 O.2   126  GLN126     -0.2717
     55  NE2       70.5470   56.1660   19.0990 N.am  126  GLN126     -0.0878
     56  N         72.0710   50.3170   18.3290 N.3   300  ASN300     -0.1240
     57  CA        70.8440   50.2570   19.0970 C.3   300  ASN300      0.1653
     58  C         70.6030   48.7660   19.2720 C.2   300  ASN300      0.2266
     59  O         70.6280   48.0190   18.3010 O.2   300  ASN300     -0.2867
     60  CB        69.6920   50.9530   18.3450 C.3   300  ASN300      0.1155
     61  CG        68.3730   50.7780   19.0170 C.2   300  ASN300      0.2627
     62  OD1       67.8880   49.6540   19.1670 O.2   300  ASN300     -0.2716
     63  ND2       67.7610   51.8790   19.4150 N.am  300  ASN300     -0.0877
     64  N         67.8280   46.3220   20.7190 N.3   302  SER302     -0.1217
     65  CA        66.4760   46.2670   21.2770 C.3   302  SER302      0.1889
     66  C         66.1350   44.8280   21.5840 C.2   302  SER302      0.2288
     67  O         66.1950   43.9590   20.7170 O.2   302  SER302     -0.2866
     68  CB        65.4270   46.8940   20.3280 C.3   302  SER302      0.2089
     69  OG        65.6590   48.3040   20.1960 O.3   302  SER302     -0.2183
     70  N         63.4100   42.2380   23.7460 N.3   304  TYR304     -0.1241
     71  CA        62.0260   42.0980   24.1930 C.3   304  TYR304      0.1605
     72  C         61.8100   40.8010   24.9690 C.2   304  TYR304      0.2264
     73  O         60.6760   40.3430   25.1400 O.2   304  TYR304     -0.2867
     74  CB        61.0960   42.1180   22.9800 C.3   304  TYR304      0.0534
     75  CG        61.3120   43.3930   22.1990 C.ar  304  TYR304     -0.0201
     76  CD1       60.7290   44.6100   22.6340 C.ar  304  TYR304     -0.0009
     77  CD2       62.1180   43.3980   21.0810 C.ar  304  TYR304     -0.0009
     78  CE1       60.9650   45.8310   21.9290 C.ar  304  TYR304      0.0417
     79  CE2       62.3620   44.6000   20.3700 C.ar  304  TYR304      0.0417
     80  CZ        61.7650   45.7950   20.8040 C.ar  304  TYR304      0.1957
     81  OH        62.0060   46.9530   20.1160 O.3   304  TYR304     -0.2866
@<TRIPOS>BOND
     1    28    27    2
     2    27    26    1
     3    32    30    1
     4    30    29    1
     5    26    25    1
     6    26    29    1
     7    29    31    1
     8    23    22   ar
     9    22    21    1
    10    22    24   ar
    11    21    18    1
    12    18    19    1
    13    18    17    1
    14    19    20    2
    15    15    14    1
    16    14    11    1
    17    14    16    1
    18    11    12    1
    19    11    10    1
    20    12    13    2
    21    59    58    2
    22    56    57    1
    23    60    61    1
    24    60    57    1
    25     2     1    1
    26     2     3    1
    27     2     5    1
    28     3     4    2
    29    54    53    2
    30    61    62    2
    31    61    63   am
    32    57    58    1
    33    55    53   am
    34    53    52    1
    35     5     6    1
    36     6     7    1
    37    52    51    1
    38    81    80    1
    39    69    68    1
    40    68    65    1
    41    79    80   ar
    42    79    77   ar
    43     9     7   am
    44     7     8    2
    45    67    66    2
    46    64    65    1
    47    80    78   ar
    48    77    75   ar
    49    65    66    1
    50    51    48    1
    51    78    76   ar
    52    48    49    1
    53    48    47    1
    54    75    76   ar
    55    75    74    1
    56    43    42    2
    57    49    50    2
    58    74    71    1
    59    39    37    1
    60    37    34    1
    61    37    38    1
    62    47    42   am
    63    42    41    1
    64    36    35    2
    65    70    71    1
    66    34    35    1
    67    34    33    1
    68    35    40   am
    69    71    72    1
    70    40    41    1
    71    40    46    1
    72    41    44    1
    73    72    73    2
    74    45    46    1
    75    45    44    1
