@<TRIPOS>MOLECULE
tmp/4twgA00.pdb
 84 79 0 0 0
SMALL
GASTEIGER

@<TRIPOS>ATOM
      1  N          9.8740   -4.9370    9.5430 N.3     9  ALA9       -0.1245
      2  CA         9.9970   -6.3640    9.2680 C.3     9  ALA9        0.1562
      3  C          8.6930   -7.0630    9.5930 C.2     9  ALA9        0.2260
      4  O          8.4240   -7.3820   10.7530 O.2     9  ALA9       -0.2867
      5  CB        11.1380   -6.9790   10.0820 C.3     9  ALA9        0.0290
      6  N          9.8820   -5.0030   14.5480 N.3    68  GLY68      -0.1210
      7  CA         9.0820   -6.2060   14.3850 C.3    68  GLY68       0.1956
      8  C          9.9170   -7.4580   14.1800 C.2    68  GLY68       0.2612
      9  O         11.1120   -7.3880   13.8280 O.2    68  GLY68      -0.2717
     10  N          9.2820   -8.6040   14.4220 N.am   69  GLY69      -0.1942
     11  CA         9.8630   -9.9020   14.1270 C.3    69  GLY69       0.2014
     12  C         10.9540  -10.3730   15.0640 C.2    69  GLY69       0.2640
     13  O         11.7900  -11.1940   14.6790 O.2    69  GLY69      -0.2714
     14  N         10.9350   -9.8890   16.2990 N.am   70  THR70      -0.1936
     15  CA        11.9990  -10.2130   17.2440 C.3    70  THR70       0.2028
     16  C         11.6260  -11.2820   18.2730 C.2    70  THR70       0.2643
     17  O         12.4770  -11.6870   19.0740 O.2    70  THR70      -0.2714
     18  CB        12.4630   -8.9570   18.0120 C.3    70  THR70       0.1808
     19  OG1       11.4240   -8.5210   18.8840 O.3    70  THR70      -0.2208
     20  CG2       12.8390   -7.8320   17.0440 C.3    70  THR70       0.0379
     21  N         10.3780  -11.7450   18.2470 N.am   71  GLY71      -0.1939
     22  CA         9.9090  -12.7000   19.2400 C.3    71  GLY71       0.2014
     23  C         10.3070  -14.1430   18.9770 C.2    71  GLY71       0.2639
     24  O         11.2900  -14.4270   18.2880 O.2    71  GLY71      -0.2714
     25  N          9.5410  -15.0830   19.5240 N.am   72  ILE72      -0.1963
     26  CA         9.9660  -16.4810   19.4660 C.3    72  ILE72       0.1727
     27  C          9.0500  -17.3960   18.6520 C.2    72  ILE72       0.2616
     28  O          9.2310  -18.6240   18.6330 O.2    72  ILE72      -0.2715
     29  CB        10.1110  -17.0620   20.8900 C.3    72  ILE72       0.0290
     30  CG1        8.7470  -17.2730   21.5590 C.3    72  ILE72       0.0022
     31  CG2       10.9640  -16.1340   21.7370 C.3    72  ILE72       0.0023
     32  CD1        8.8570  -17.9510   22.9260 C.3    72  ILE72       0.0001
     33  N          8.0810  -16.8090   17.9620 N.am   73  SER73      -0.1950
     34  CA         7.1840  -17.6020   17.1210 C.3    73  SER73       0.1924
     35  C          7.8910  -17.8870   15.7810 C.2    73  SER73       0.2314
     36  O          8.9060  -17.2580   15.4770 O.2    73  SER73      -0.2863
     37  CB         5.8540  -16.8670   16.9150 C.3    73  SER73       0.2116
     38  OG         6.0430  -15.6850   16.1950 O.3    73  SER73      -0.2180
     39  N          9.2850  -15.0250   13.3310 N.3    76  ASP76      -0.1239
     40  CA        10.1320  -13.9740   13.9020 C.3    76  ASP76       0.1674
     41  C         11.6190  -14.2160   13.6170 C.2    76  ASP76       0.2266
     42  O         12.3220  -14.7910   14.4440 O.2    76  ASP76      -0.2867
     43  CB         9.9380  -13.8790   15.4340 C.3    76  ASP76       0.1410
     44  CG         8.5940  -13.3020   15.8380 C.2    76  ASP76       0.3668
     45  OD1        8.0370  -12.4760   15.0830 O.co2  76  ASP76      -0.2456
     46  OD2        8.0950  -13.6740   16.9330 O.co2  76  ASP76      -0.2456
     47  N          6.1850   -9.7890   28.9190 N.3   107  THR107     -0.1218
     48  CA         6.6790  -10.5450   27.7720 C.3   107  THR107      0.1862
     49  C          7.7430   -9.7820   26.9660 C.2   107  THR107      0.2287
     50  O          8.2540  -10.2940   25.9610 O.2   107  THR107     -0.2866
     51  CB         5.5250  -10.9650   26.8240 C.3   107  THR107      0.1770
     52  OG1        4.7420   -9.8150   26.4670 O.3   107  THR107     -0.2211
     53  CG2        4.6420  -11.9990   27.4940 C.3   107  THR107      0.0375
     54  N         10.8330  -11.7520   26.2010 N.3   110  LEU110     -0.1231
     55  CA        10.8390  -12.7450   25.1180 C.3   110  LEU110      0.1693
     56  C         11.3960  -12.1910   23.8120 C.2   110  LEU110      0.2592
     57  O         11.6530  -12.9390   22.8730 O.2   110  LEU110     -0.2718
     58  CB         9.4210  -13.2670   24.8770 C.3   110  LEU110      0.0284
     59  CG         8.7190  -13.9460   26.0570 C.3   110  LEU110      0.0019
     60  CD1        7.3250  -14.4390   25.6360 C.3   110  LEU110      0.0001
     61  CD2        9.5640  -15.0930   26.5940 C.3   110  LEU110      0.0001
     62  N         11.5390  -10.8720   23.7280 N.am  111  SER111     -0.1952
     63  CA        12.1200  -10.2770   22.5160 C.3   111  SER111      0.1924
     64  C         13.5890  -10.6360   22.3870 C.2   111  SER111      0.2314
     65  O         14.3630  -10.4490   23.3270 O.2   111  SER111     -0.2863
     66  CB        11.9900   -8.7510   22.5090 C.3   111  SER111      0.2116
     67  OG        12.6700   -8.2280   21.3630 O.3   111  SER111     -0.2180
     68  N         11.1220   -3.6310   18.8940 N.3   127  PRO127     -0.2102
     69  CA         9.9240   -4.4700   18.7700 C.3   127  PRO127      0.1504
     70  C          8.8900   -3.9160   17.7780 C.2   127  PRO127      0.2576
     71  O          9.0520   -2.8260   17.2740 O.2   127  PRO127     -0.2718
     72  CB         9.3610   -4.5040   20.2020 C.3   127  PRO127      0.0282
     73  CG        10.0580   -3.4320   20.9550 C.3   127  PRO127      0.0208
     74  CD        11.3070   -3.0700   20.2450 C.3   127  PRO127      0.0893
     75  N          7.8370   -4.6810   17.5040 N.am  128  GLY128     -0.1943
     76  CA         6.8540   -4.3130   16.4950 C.3   128  GLY128      0.2014
     77  C          5.7150   -3.4140   16.9470 C.2   128  GLY128      0.2639
     78  O          4.9980   -2.8400   16.1210 O.2   128  GLY128     -0.2714
     79  N          5.5410   -3.2840   18.2560 N.am  129  SER129     -0.1949
     80  CA         4.4400   -2.4920   18.8030 C.3   129  SER129      0.1924
     81  C          4.8420   -1.0370   18.9810 C.2   129  SER129      0.2314
     82  O          6.0130   -0.7440   19.2070 O.2   129  SER129     -0.2863
     83  CB         3.9910   -3.0720   20.1400 C.3   129  SER129      0.2116
     84  OG         5.0800   -3.0960   21.0470 O.3   129  SER129     -0.2180
@<TRIPOS>BOND
     1     2     1    1
     2     2     3    1
     3     2     5    1
     4     3     4    2
     5    39    40    1
     6    41    40    1
     7    41    42    2
     8     9     8    2
     9    40    43    1
    10    11    10    1
    11    11    12    1
    12     8     7    1
    13     8    10   am
    14     7     6    1
    15    13    12    2
    16    12    14   am
    17    45    44   ar
    18    43    44    1
    19    36    35    2
    20    35    34    1
    21    44    46   ar
    22    78    77    2
    23    38    37    1
    24    14    15    1
    25    76    77    1
    26    76    75    1
    27    37    34    1
    28    77    79   am
    29    20    18    1
    30    34    33    1
    31    15    18    1
    32    15    16    1
    33    71    70    2
    34    75    70   am
    35    70    69    1
    36    33    27   am
    37    18    19    1
    38    21    16   am
    39    21    22    1
    40    79    80    1
    41    16    17    2
    42    24    23    2
    43    28    27    2
    44    27    26    1
    45    69    68    1
    46    69    72    1
    47    80    81    1
    48    80    83    1
    49    68    74    1
    50    23    22    1
    51    23    25   am
    52    81    82    2
    53    26    25    1
    54    26    29    1
    55    83    84    1
    56    72    73    1
    57    74    73    1
    58    29    30    1
    59    29    31    1
    60    67    66    1
    61    30    32    1
    62    64    63    1
    63    64    65    2
    64    66    63    1
    65    63    62    1
    66    57    56    2
    67    62    56   am
    68    56    55    1
    69    58    55    1
    70    58    59    1
    71    55    54    1
    72    60    59    1
    73    50    49    2
    74    59    61    1
    75    52    51    1
    76    51    53    1
    77    51    48    1
    78    49    48    1
    79    48    47    1
