@<TRIPOS>MOLECULE
tmp/4twkB00.pdb
 110 105 0 0 0
SMALL
GASTEIGER

@<TRIPOS>ATOM
      1  N         18.8120   -2.1720    4.0460 N.3    31  HIS31      -0.1226
      2  CA        18.7710   -0.7130    3.8520 C.3    31  HIS31       0.1752
      3  C         17.3770   -0.2380    3.4860 C.2    31  HIS31       0.2595
      4  O         16.9310    0.7700    4.0280 O.2    31  HIS31      -0.2718
      5  CB        19.7660   -0.2570    2.7820 C.3    31  HIS31       0.0759
      6  CG        19.9070    1.2360    2.6810 C.ar   31  HIS31       0.0818
      7  ND1       19.5080    1.9250    1.5450 N.ar   31  HIS31      -0.2268
      8  CD2       20.4000    2.1220    3.5780 C.ar   31  HIS31       0.1154
      9  CE1       19.7830    3.1980    1.7860 C.ar   31  HIS31       0.1986
     10  NE2       20.3150    3.3650    2.9990 N.ar   31  HIS31      -0.2212
     11  N         16.6860   -0.9720    2.5980 N.am   32  GLU32      -0.1979
     12  CA        15.3220   -0.6760    2.1780 C.3    32  GLU32       0.1602
     13  C         14.3800   -0.6790    3.3950 C.2    32  GLU32       0.2287
     14  O         13.6010    0.2620    3.5370 O.2    32  GLU32      -0.2864
     15  CB        14.8680   -1.6850    1.1080 C.3    32  GLU32       0.0415
     16  CG        13.4970   -1.4180    0.5120 C.3    32  GLU32       0.1163
     17  CD        13.0270   -2.4870   -0.4540 C.2    32  GLU32       0.3649
     18  OE1       12.9610   -3.6680   -0.0420 O.co2  32  GLU32      -0.2457
     19  OE2       12.7190   -2.1450   -1.6200 O.co2  32  GLU32      -0.2457
     20  N         14.9610    2.3860    5.3440 N.3    35  GLN35      -0.1231
     21  CA        14.5030    3.5280    4.5490 C.3    35  GLN35       0.1698
     22  C         12.9720    3.6870    4.6150 C.2    35  GLN35       0.2592
     23  O         12.4740    4.7890    4.3650 O.2    35  GLN35      -0.2718
     24  CB        14.9720    3.4270    3.0900 C.3    35  GLN35       0.0381
     25  CG        16.4400    3.7750    2.8630 C.3    35  GLN35       0.0905
     26  CD        16.7180    5.2500    2.7210 C.2    35  GLN35       0.2608
     27  OE1       16.6160    6.0270    3.6750 O.2    35  GLN35      -0.2717
     28  NE2       17.1590    5.6550    1.5380 N.am   35  GLN35      -0.0878
     29  N         12.2270    2.6060    4.9640 N.am   36  ARG36      -0.1980
     30  CA        10.7640    2.6600    5.1440 C.3    36  ARG36       0.1597
     31  C         10.4490    3.4770    6.4060 C.2    36  ARG36       0.2287
     32  O          9.4870    4.2440    6.4150 O.2    36  ARG36      -0.2864
     33  CB        10.1430    1.2520    5.2470 C.3    36  ARG36       0.0334
     34  CG        10.1650    0.4210    3.9690 C.3    36  ARG36       0.0492
     35  CD         9.7260   -1.0010    4.2770 C.3    36  ARG36       0.2205
     36  NE         9.9330   -1.9200    3.1540 N.pl3  36  ARG36      -0.0865
     37  CZ         9.0040   -2.2350    2.2550 C.cat  36  ARG36       0.5346
     38  NH1        7.7950   -1.6930    2.3210 N.pl3  36  ARG36       0.1354
     39  NH2        9.2790   -3.0870    1.2810 N.pl3  36  ARG36       0.1354
     40  N         12.5390    5.8130    7.6570 N.3    38  THR38      -0.1203
     41  CA        12.9610    7.1600    7.2390 C.3    38  THR38       0.1994
     42  C         11.7560    7.9000    6.6420 C.2    38  THR38       0.2617
     43  O         11.4930    9.0380    7.0390 O.2    38  THR38      -0.2717
     44  CB        14.1260    7.0560    6.2370 C.3    38  THR38       0.1784
     45  OG1       15.2020    6.3580    6.8580 O.3    38  THR38      -0.2211
     46  CG2       14.6080    8.4110    5.7340 C.3    38  THR38       0.0376
     47  N         11.0050    7.2250    5.7330 N.am   39  ILE39      -0.1979
     48  CA         9.7900    7.7270    5.0830 C.3    39  ILE39       0.1595
     49  C          8.7110    8.0300    6.1500 C.2    39  ILE39       0.2287
     50  O          8.2150    9.1570    6.1910 O.2    39  ILE39      -0.2864
     51  CB         9.2820    6.7210    4.0050 C.3    39  ILE39       0.0276
     52  CG1       10.1880    6.7390    2.7410 C.3    39  ILE39       0.0022
     53  CG2        7.8070    6.9750    3.6500 C.3    39  ILE39       0.0022
     54  CD1       10.0330    5.5340    1.7830 C.3    39  ILE39       0.0001
     55  N          9.7440   11.0160    8.3110 N.3    42  GLN42      -0.1231
     56  CA         9.6110   12.2480    7.5160 C.3    42  GLN42       0.1698
     57  C          8.1370   12.6130    7.2500 C.2    42  GLN42       0.2592
     58  O          7.8150   13.8010    7.1880 O.2    42  GLN42      -0.2718
     59  CB        10.3980   12.1650    6.2050 C.3    42  GLN42       0.0381
     60  CG        11.6910   12.9730    6.2880 C.3    42  GLN42       0.0905
     61  CD        12.7010   12.6170    5.2280 C.2    42  GLN42       0.2608
     62  OE1       13.6630   11.8850    5.4810 O.2    42  GLN42      -0.2717
     63  NE2       12.5470   13.1830    4.0380 N.am   42  GLN42      -0.0878
     64  N          7.2470   11.6020    7.1580 N.am   43  LYS43      -0.1980
     65  CA         5.8030   11.7800    6.9810 C.3    43  LYS43       0.1596
     66  C          5.1780   12.3250    8.2650 C.2    43  LYS43       0.2287
     67  O          4.4350   13.3050    8.2110 O.2    43  LYS43      -0.2864
     68  CB         5.1280   10.4570    6.5800 C.3    43  LYS43       0.0298
     69  CG         5.1450   10.1800    5.0830 C.3    43  LYS43       0.0038
     70  CD         4.3890    8.9070    4.7120 C.3    43  LYS43       0.0206
     71  CE         2.8940    9.1080    4.6610 C.3    43  LYS43       0.1093
     72  NZ         2.1970    7.9320    4.0880 N.3    43  LYS43      -0.1314
     73  N         -2.4780   13.8870    2.9120 N.3    58  LEU58      -0.1245
     74  CA        -1.0830   13.6960    2.4890 C.3    58  LEU58       0.1561
     75  C         -1.0010   12.5020    1.5400 C.2    58  LEU58       0.2260
     76  O         -0.3200   12.5900    0.5180 O.2    58  LEU58      -0.2867
     77  CB        -0.1480   13.5080    3.7050 C.3    58  LEU58       0.0270
     78  CG         1.3520   13.2790    3.4360 C.3    58  LEU58       0.0019
     79  CD1        2.0200   14.5160    2.8370 C.3    58  LEU58       0.0001
     80  CD2        2.0690   12.8720    4.7090 C.3    58  LEU58       0.0001
     81  N          0.1420   12.2710   -2.4780 N.3    62  ILE62      -0.1245
     82  CA         1.1400   11.2890   -2.9250 C.3    62  ILE62       0.1561
     83  C          0.5870   10.5310   -4.1480 C.2    62  ILE62       0.2260
     84  O          1.2960   10.4210   -5.1510 O.2    62  ILE62      -0.2867
     85  CB         1.5870   10.3320   -1.7680 C.3    62  ILE62       0.0252
     86  CG1        2.4220   11.0990   -0.7110 C.3    62  ILE62       0.0019
     87  CG2        2.3770    9.1090   -2.2890 C.3    62  ILE62       0.0019
     88  CD1        2.3890   10.5250    0.7170 C.3    62  ILE62       0.0001
     89  N         27.7600   14.3510   -5.6360 N.3   188  TRP188     -0.1241
     90  CA        27.8390   12.8970   -5.4640 C.3   188  TRP188      0.1605
     91  C         29.2270   12.4210   -5.0450 C.2   188  TRP188      0.2264
     92  O         30.2290   13.0600   -5.3870 O.2   188  TRP188     -0.2867
     93  CB        27.4880   12.2000   -6.7890 C.3   188  TRP188      0.0550
     94  CG        26.0460   12.2460   -7.2010 C.ar  188  TRP188      0.0003
     95  CD1       24.9990   12.7700   -6.5010 C.ar  188  TRP188      0.0946
     96  CD2       25.4940   11.7150   -8.4130 C.ar  188  TRP188      0.0152
     97  NE1       23.8310   12.6160   -7.2100 N.ar  188  TRP188     -0.2442
     98  CE2       24.1040   11.9620   -8.3850 C.ar  188  TRP188      0.0810
     99  CE3       26.0400   11.0470   -9.5230 C.ar  188  TRP188      0.0012
    100  CZ2       23.2520   11.5640   -9.4240 C.ar  188  TRP188      0.0191
    101  CZ3       25.1950   10.6550  -10.5510 C.ar  188  TRP188      0.0001
    102  CH2       23.8200   10.9180  -10.4980 C.ar  188  TRP188      0.0015
    103  N         29.2740    7.0060   -6.4180 N.3   192  ASP192     -0.1239
    104  CA        27.9810    7.3390   -7.0310 C.3   192  ASP192      0.1674
    105  C         28.1660    7.8570   -8.4590 C.2   192  ASP192      0.2266
    106  O         27.3100    7.6140   -9.3160 O.2   192  ASP192     -0.2867
    107  CB        27.2110    8.3660   -6.1890 C.3   192  ASP192      0.1410
    108  CG        26.6270    7.8200   -4.9010 C.2   192  ASP192      0.3668
    109  OD1       26.5970    6.5780   -4.7360 O.co2 192  ASP192     -0.2456
    110  OD2       26.2050    8.6350   -4.0530 O.co2 192  ASP192     -0.2456
@<TRIPOS>BOND
     1   101   102   ar
     2   101    99   ar
     3   102   100   ar
     4    99    96   ar
     5   100    98   ar
     6   106   105    2
     7   105   104    1
     8    96    98   ar
     9    96    94   ar
    10    98    97   ar
    11    97    95   ar
    12    94    93    1
    13    94    95   ar
    14   104   103    1
    15   104   107    1
    16    93    90    1
    17   107   108    1
    18    89    90    1
    19    90    91    1
    20    92    91    2
    21    84    83    2
    22   108   109   ar
    23   108   110   ar
    24    83    82    1
    25    82    81    1
    26    82    85    1
    27    87    85    1
    28    85    86    1
    29    19    17   ar
    30    86    88    1
    31    17    18   ar
    32    17    16    1
    33    16    15    1
    34    76    75    2
    35    15    12    1
    36    39    37    1
    37    28    26   am
    38    75    74    1
    39     7     9   ar
    40     7     6   ar
    41    54    52    1
    42     9    10   ar
    43    12    11    1
    44    12    13    1
    45    37    38    1
    46    37    36    2
    47    74    73    1
    48    74    77    1
    49    11     3   am
    50     6     5    1
    51     6     8   ar
    52    26    25    1
    53    26    27    2
    54    52    51    1
    55     5     2    1
    56    79    78    1
    57    25    24    1
    58    10     8   ar
    59    24    21    1
    60    36    35    1
    61    13    14    2
    62    78    77    1
    63    78    80    1
    64     3     2    1
    65     3     4    2
    66    53    51    1
    67     2     1    1
    68    34    35    1
    69    34    33    1
    70    51    48    1
    71    63    61   am
    72    72    71    1
    73    23    22    2
    74    21    22    1
    75    21    20    1
    76    22    29   am
    77    71    70    1
    78    70    69    1
    79    29    30    1
    80    48    47    1
    81    48    49    1
    82    69    68    1
    83    30    33    1
    84    30    31    1
    85    61    62    2
    86    61    60    1
    87    47    42   am
    88    46    44    1
    89    49    50    2
    90    59    60    1
    91    59    56    1
    92    44    45    1
    93    44    41    1
    94    31    32    2
    95    68    65    1
    96    42    43    2
    97    42    41    1
    98    65    64    1
    99    65    66    1
   100    64    57   am
   101    58    57    2
   102    41    40    1
   103    57    56    1
   104    56    55    1
   105    67    66    2
