@<TRIPOS>MOLECULE
tmp/4twkA02.pdb
 116 111 0 0 0
SMALL
GASTEIGER

@<TRIPOS>ATOM
      1  N         15.2180  -13.9020  -56.7640 N.3   167  THR167     -0.1218
      2  CA        14.7610  -12.6040  -56.2540 C.3   167  THR167      0.1862
      3  C         13.4620  -12.7880  -55.4410 C.2   167  THR167      0.2287
      4  O         13.3140  -12.1760  -54.3800 O.2   167  THR167     -0.2866
      5  CB        14.5720  -11.6150  -57.4310 C.3   167  THR167      0.1770
      6  OG1       15.7330  -11.6370  -58.2630 O.3   167  THR167     -0.2211
      7  CG2       14.3010  -10.1820  -56.9700 C.3   167  THR167      0.0375
      8  N         14.2200  -15.1180  -52.0800 N.3   170  ARG170     -0.1231
      9  CA        14.8300  -14.2850  -51.0360 C.3   170  ARG170      0.1694
     10  C         13.7910  -13.3490  -50.4080 C.2   170  ARG170      0.2591
     11  O         13.8350  -13.1240  -49.1990 O.2   170  ARG170     -0.2718
     12  CB        16.0040  -13.4730  -51.6060 C.3   170  ARG170      0.0321
     13  CG        17.1820  -14.3500  -51.8980 C.3   170  ARG170      0.0489
     14  CD        18.3980  -13.5450  -52.2050 C.3   170  ARG170      0.2205
     15  NE        18.3110  -12.9430  -53.5140 N.pl3 170  ARG170     -0.0865
     16  CZ        17.8810  -11.7120  -53.7140 C.cat 170  ARG170      0.5346
     17  NH1       17.4860  -10.9000  -52.7310 N.pl3 170  ARG170      0.1354
     18  NH2       17.8220  -11.2980  -54.9590 N.pl3 170  ARG170      0.1354
     19  N         12.8470  -12.8320  -51.2290 N.am  171  ILE171     -0.1980
     20  CA        11.7580  -11.9540  -50.7930 C.3   171  ILE171      0.1595
     21  C         10.7710  -12.7340  -49.9240 C.2   171  ILE171      0.2287
     22  O         10.3380  -12.2130  -48.8950 O.2   171  ILE171     -0.2864
     23  CB        11.0460  -11.2980  -51.9970 C.3   171  ILE171      0.0276
     24  CG1       12.0120  -10.2460  -52.5610 C.3   171  ILE171      0.0022
     25  CG2        9.6830  -10.6940  -51.6330 C.3   171  ILE171      0.0022
     26  CD1       11.6800   -9.3920  -53.7540 C.3   171  ILE171      0.0001
     27  N         12.2030  -13.5810  -46.4440 N.3   174  THR174     -0.1218
     28  CA        12.1810  -12.3680  -45.6240 C.3   174  THR174      0.1862
     29  C         10.8060  -12.2660  -44.9440 C.2   174  THR174      0.2287
     30  O         10.7560  -11.9550  -43.7580 O.2   174  THR174     -0.2866
     31  CB        12.5490  -11.1340  -46.4760 C.3   174  THR174      0.1770
     32  OG1       13.8090  -11.3720  -47.1100 O.3   174  THR174     -0.2211
     33  CG2       12.6360   -9.8460  -45.6530 C.3   174  THR174      0.0375
     34  N         10.6770  -14.8240  -42.1030 N.3   177  PHE177     -0.1227
     35  CA        11.4620  -14.2830  -40.9870 C.3   177  PHE177      0.1736
     36  C         10.6650  -13.2140  -40.2310 C.2   177  PHE177      0.2595
     37  O         10.6570  -13.2490  -39.0050 O.2   177  PHE177     -0.2718
     38  CB        12.8140  -13.7220  -41.4690 C.3   177  PHE177      0.0547
     39  CG        13.7610  -13.3150  -40.3630 C.ar  177  PHE177     -0.0202
     40  CD1       14.4650  -14.2720  -39.6380 C.ar  177  PHE177     -0.0042
     41  CD2       13.9590  -11.9740  -40.0520 C.ar  177  PHE177     -0.0042
     42  CE1       15.3290  -13.8940  -38.6020 C.ar  177  PHE177     -0.0003
     43  CE2       14.8260  -11.5970  -39.0180 C.ar  177  PHE177     -0.0003
     44  CZ        15.5060  -12.5570  -38.3020 C.ar  177  PHE177     -0.0000
     45  N          9.9650  -12.3070  -40.9530 N.am  178  ILE178     -0.1980
     46  CA         9.1300  -11.2460  -40.3650 C.3   178  ILE178      0.1595
     47  C          7.9170  -11.8830  -39.6550 C.2   178  ILE178      0.2287
     48  O          7.5950  -11.4790  -38.5370 O.2   178  ILE178     -0.2864
     49  CB         8.6990  -10.1730  -41.4190 C.3   178  ILE178      0.0276
     50  CG1        9.9220   -9.4060  -41.9780 C.3   178  ILE178      0.0022
     51  CG2        7.6720   -9.1820  -40.8380 C.3   178  ILE178      0.0022
     52  CD1        9.7310   -8.8120  -43.3960 C.3   178  ILE178      0.0001
     53  N         16.4160  -13.1280  -31.6430 N.3   233  TYR233     -0.1241
     54  CA        15.6820  -12.7800  -32.8620 C.3   233  TYR233      0.1605
     55  C         15.8890  -11.3040  -33.1990 C.2   233  TYR233      0.2264
     56  O         16.1460  -10.9760  -34.3540 O.2   233  TYR233     -0.2867
     57  CB        14.1800  -13.1080  -32.7360 C.3   233  TYR233      0.0534
     58  CG        13.3570  -12.6470  -33.9210 C.ar  233  TYR233     -0.0201
     59  CD1       13.2860  -13.4090  -35.0850 C.ar  233  TYR233     -0.0009
     60  CD2       12.6700  -11.4370  -33.8900 C.ar  233  TYR233     -0.0009
     61  CE1       12.5610  -12.9700  -36.1930 C.ar  233  TYR233      0.0417
     62  CE2       11.9370  -10.9920  -34.9890 C.ar  233  TYR233      0.0417
     63  CZ        11.8910  -11.7590  -36.1410 C.ar  233  TYR233      0.1957
     64  OH        11.1710  -11.3150  -37.2240 O.3   233  TYR233     -0.2866
     65  N         17.5520   -9.2440  -36.3560 N.3   237  VAL237     -0.1245
     66  CA        16.8010   -8.2130  -37.0860 C.3   237  VAL237      0.1561
     67  C         17.6950   -6.9900  -37.2370 C.2   237  VAL237      0.2260
     68  O         17.9230   -6.5460  -38.3580 O.2   237  VAL237     -0.2867
     69  CB        15.4360   -7.8610  -36.4080 C.3   237  VAL237      0.0252
     70  CG1       14.7580   -6.6650  -37.0810 C.3   237  VAL237      0.0019
     71  CG2       14.4980   -9.0570  -36.3980 C.3   237  VAL237      0.0019
     72  N         20.7650   -7.4540  -39.5700 N.3   240  MET240     -0.1230
     73  CA        20.3630   -7.4040  -40.9700 C.3   240  MET240      0.1702
     74  C         20.1450   -5.9580  -41.4430 C.2   240  MET240      0.2592
     75  O         20.5330   -5.6220  -42.5640 O.2   240  MET240     -0.2718
     76  CB        19.0900   -8.2340  -41.1720 C.3   240  MET240      0.0401
     77  CG        19.3470   -9.7250  -41.1820 C.3   240  MET240      0.0596
     78  SD        17.8640  -10.7170  -40.8870 S.3   240  MET240     -0.1393
     79  CE        17.1610  -10.7350  -42.5180 C.3   240  MET240      0.0692
     80  N         19.5330   -5.1070  -40.5950 N.am  241  ILE241     -0.1980
     81  CA        19.3000   -3.6890  -40.9100 C.3   241  ILE241      0.1595
     82  C         20.6790   -2.9770  -40.9650 C.2   241  ILE241      0.2287
     83  O         20.9140   -2.1900  -41.8920 O.2   241  ILE241     -0.2864
     84  CB        18.2790   -3.0080  -39.9440 C.3   241  ILE241      0.0276
     85  CG1       16.8800   -3.6780  -40.0550 C.3   241  ILE241      0.0022
     86  CG2       18.1810   -1.4910  -40.2030 C.3   241  ILE241      0.0022
     87  CD1       15.9070   -3.4310  -38.8430 C.3   241  ILE241      0.0001
     88  N         23.5910   -4.3800  -41.7670 N.3   243  ASP243     -0.1225
     89  CA        24.1960   -4.8410  -43.0250 C.3   243  ASP243      0.1805
     90  C         23.6600   -4.0410  -44.2040 C.2   243  ASP243      0.2597
     91  O         24.4230   -3.6640  -45.1010 O.2   243  ASP243     -0.2718
     92  CB        23.9180   -6.3350  -43.2620 C.3   243  ASP243      0.1424
     93  CG        24.6320   -7.2970  -42.3340 C.2   243  ASP243      0.3668
     94  OD1       25.6370   -6.8870  -41.7020 O.co2 243  ASP243     -0.2456
     95  OD2       24.1920   -8.4670  -42.2440 O.co2 243  ASP243     -0.2456
     96  N         22.3410   -3.7830  -44.1970 N.am  244  TRP244     -0.1976
     97  CA        21.6740   -3.0200  -45.2370 C.3   244  TRP244      0.1640
     98  C         22.2010   -1.5850  -45.2690 C.2   244  TRP244      0.2290
     99  O         22.4580   -1.0670  -46.3560 O.2   244  TRP244     -0.2864
    100  CB        20.1540   -3.0480  -45.0490 C.3   244  TRP244      0.0576
    101  CG        19.4370   -2.1820  -46.0350 C.ar  244  TRP244      0.0006
    102  CD1       19.2550   -2.4290  -47.3650 C.ar  244  TRP244      0.0946
    103  CD2       18.9040   -0.8720  -45.7900 C.ar  244  TRP244      0.0152
    104  NE1       18.5960   -1.3770  -47.9520 N.ar  244  TRP244     -0.2442
    105  CE2       18.3680   -0.4050  -47.0100 C.ar  244  TRP244      0.0810
    106  CE3       18.8050   -0.0540  -44.6460 C.ar  244  TRP244      0.0012
    107  CZ2       17.7430    0.8440  -47.1250 C.ar  244  TRP244      0.0191
    108  CZ3       18.1850    1.1820  -44.7600 C.ar  244  TRP244      0.0001
    109  CH2       17.6820    1.6290  -45.9930 C.ar  244  TRP244      0.0015
    110  N         25.5230   -1.3530  -46.9860 N.3   247  VAL247     -0.1245
    111  CA        25.3750   -1.4000  -48.4480 C.3   247  VAL247      0.1561
    112  C         25.0980    0.0290  -48.9450 C.2   247  VAL247      0.2260
    113  O         25.8290    0.5160  -49.8070 O.2   247  VAL247     -0.2867
    114  CB        24.2760   -2.4200  -48.8940 C.3   247  VAL247      0.0252
    115  CG1       23.7350   -2.1210  -50.2930 C.3   247  VAL247      0.0019
    116  CG2       24.7900   -3.8520  -48.8070 C.3   247  VAL247      0.0019
@<TRIPOS>BOND
     1     6     5    1
     2     5     7    1
     3     5     2    1
     4     1     2    1
     5     2     3    1
     6     3     4    2
     7    18    16    1
     8    26    24    1
     9    16    15    2
    10    16    17    1
    11    15    14    1
    12    24    23    1
    13    14    13    1
    14     8     9    1
    15    23    25    1
    16    23    20    1
    17    13    12    1
    18    12     9    1
    19    19    20    1
    20    19    10   am
    21     9    10    1
    22    20    21    1
    23    10    11    2
    24   115   114    1
    25    21    22    2
    26   113   112    2
    27   112   111    1
    28   114   116    1
    29   114   111    1
    30   111   110    1
    31   104   102   ar
    32   104   105   ar
    33   102   101   ar
    34   107   105   ar
    35   107   109   ar
    36    32    31    1
    37   105   103   ar
    38    31    33    1
    39    31    28    1
    40    27    28    1
    41    99    98    2
    42   101   103   ar
    43   101   100    1
    44   109   108   ar
    45   103   106   ar
    46    28    29    1
    47    98    97    1
    48    97   100    1
    49    97    96    1
    50    91    90    2
    51    29    30    2
    52   108   106   ar
    53    90    96   am
    54    90    89    1
    55    52    50    1
    56    92    89    1
    57    92    93    1
    58    89    88    1
    59    75    74    2
    60    79    78    1
    61    93    95   ar
    62    93    94   ar
    63    34    35    1
    64    50    49    1
    65    83    82    2
    66    38    35    1
    67    38    39    1
    68    74    73    1
    69    74    80   am
    70    49    51    1
    71    49    46    1
    72    77    76    1
    73    77    78    1
    74    76    73    1
    75    35    36    1
    76    73    72    1
    77    82    81    1
    78    45    46    1
    79    45    36   am
    80    81    80    1
    81    81    84    1
    82    46    47    1
    83    39    41   ar
    84    39    40   ar
    85    36    37    2
    86    86    84    1
    87    85    84    1
    88    85    87    1
    89    41    43   ar
    90    47    48    2
    91    40    42   ar
    92    43    44   ar
    93    42    44   ar
    94    68    67    2
    95    67    66    1
    96    64    63    1
    97    66    69    1
    98    66    65    1
    99    70    69    1
   100    69    71    1
   101    61    63   ar
   102    61    59   ar
   103    63    62   ar
   104    59    58   ar
   105    62    60   ar
   106    56    55    2
   107    58    60   ar
   108    58    57    1
   109    55    54    1
   110    54    57    1
   111    54    53    1
