@<TRIPOS>MOLECULE
tmp/4twkA01.pdb
 144 136 0 0 0
SMALL
GASTEIGER

@<TRIPOS>ATOM
      1  N         21.4580  -17.9270  -30.6500 N.3   141  GLY141     -0.1210
      2  CA        21.3940  -17.4090  -32.0100 C.3   141  GLY141      0.1956
      3  C         21.8920  -18.4070  -33.0360 C.2   141  GLY141      0.2611
      4  O         21.2470  -18.5910  -34.0730 O.2   141  GLY141     -0.2717
      5  N         23.0270  -19.0850  -32.7340 N.am  142  ASP142     -0.1973
      6  CA        23.6340  -20.1240  -33.5770 C.3   142  ASP142      0.1709
      7  C         22.6850  -21.3100  -33.7460 C.2   142  ASP142      0.2293
      8  O         22.5450  -21.8170  -34.8580 O.2   142  ASP142     -0.2864
      9  CB        24.9780  -20.6160  -32.9910 C.3   142  ASP142      0.1436
     10  CG        26.1520  -19.6570  -33.1080 C.2   142  ASP142      0.3671
     11  OD1       26.3170  -19.0400  -34.1900 O.co2 142  ASP142     -0.2456
     12  OD2       26.9510  -19.5770  -32.1440 O.co2 142  ASP142     -0.2456
     13  N         19.2440  -21.3280  -33.1990 N.3   144  LEU144     -0.1231
     14  CA        18.0500  -20.8760  -33.9220 C.3   144  LEU144      0.1693
     15  C         18.3440  -20.6470  -35.4030 C.2   144  LEU144      0.2593
     16  O         17.4510  -20.8340  -36.2280 O.2   144  LEU144     -0.2718
     17  CB        17.4580  -19.6030  -33.3060 C.3   144  LEU144      0.0284
     18  CG        16.8550  -19.7280  -31.9080 C.3   144  LEU144      0.0019
     19  CD1       16.5550  -18.3560  -31.3340 C.3   144  LEU144      0.0001
     20  CD2       15.6080  -20.6210  -31.8950 C.3   144  LEU144      0.0001
     21  N         19.5840  -20.2560  -35.7100 N.am  145  GLY145     -0.1942
     22  CA        20.0700  -20.0340  -37.0670 C.3   145  GLY145      0.2014
     23  C         20.1290  -21.3250  -37.8560 C.2   145  GLY145      0.2639
     24  O         19.7710  -21.3470  -39.0370 O.2   145  GLY145     -0.2714
     25  N         20.5580  -22.4180  -37.1860 N.am  146  THR146     -0.1950
     26  CA        20.6560  -23.7710  -37.7350 C.3   146  THR146      0.1897
     27  C         19.2360  -24.3110  -37.9890 C.2   146  THR146      0.2313
     28  O         18.9910  -24.8540  -39.0660 O.2   146  THR146     -0.2863
     29  CB        21.4790  -24.6670  -36.7830 C.3   146  THR146      0.1794
     30  OG1       22.7690  -24.0880  -36.5940 O.3   146  THR146     -0.2208
     31  CG2       21.6480  -26.0910  -37.2980 C.3   146  THR146      0.0378
     32  N         16.2170  -22.5360  -38.3000 N.3   148  PHE148     -0.1227
     33  CA        15.5840  -21.7210  -39.3390 C.3   148  PHE148      0.1736
     34  C         16.2400  -21.9290  -40.7070 C.2   148  PHE148      0.2596
     35  O         15.5430  -21.8930  -41.7210 O.2   148  PHE148     -0.2718
     36  CB        15.6260  -20.2350  -38.9570 C.3   148  PHE148      0.0547
     37  CG        14.5090  -19.4090  -39.5470 C.ar  148  PHE148     -0.0202
     38  CD1       13.3030  -19.2570  -38.8700 C.ar  148  PHE148     -0.0042
     39  CD2       14.6700  -18.7600  -40.7660 C.ar  148  PHE148     -0.0042
     40  CE1       12.2690  -18.4860  -39.4150 C.ar  148  PHE148     -0.0003
     41  CE2       13.6380  -17.9820  -41.3050 C.ar  148  PHE148     -0.0003
     42  CZ        12.4440  -17.8560  -40.6290 C.ar  148  PHE148     -0.0000
     43  N         17.5560  -22.1510  -40.7150 N.am  149  GLY149     -0.1957
     44  CA        18.3390  -22.3950  -41.9220 C.3   149  GLY149      0.1869
     45  C         17.9150  -23.6550  -42.6460 C.2   149  GLY149      0.2309
     46  O         17.6960  -23.6250  -43.8590 O.2   149  GLY149     -0.2863
     47  N         14.3440  -23.1460  -44.0710 N.3   152  ILE152     -0.1231
     48  CA        14.3690  -22.2680  -45.2460 C.3   152  ILE152      0.1692
     49  C         14.9380  -23.0330  -46.4540 C.2   152  ILE152      0.2591
     50  O         14.4980  -22.7910  -47.5790 O.2   152  ILE152     -0.2718
     51  CB        15.1440  -20.9520  -44.9260 C.3   152  ILE152      0.0266
     52  CG1       14.2500  -19.9350  -44.1650 C.3   152  ILE152      0.0019
     53  CG2       15.8330  -20.3060  -46.1420 C.3   152  ILE152      0.0020
     54  CD1       12.8770  -19.4580  -44.8280 C.3   152  ILE152      0.0001
     55  N         15.8760  -23.9790  -46.2080 N.am  153  ALA153     -0.1980
     56  CA        16.4940  -24.8340  -47.2290 C.3   153  ALA153      0.1597
     57  C         15.4440  -25.7080  -47.9110 C.2   153  ALA153      0.2287
     58  O         15.5240  -25.9210  -49.1180 O.2   153  ALA153     -0.2864
     59  CB        17.5710  -25.7070  -46.6030 C.3   153  ALA153      0.0319
     60  N         13.1640  -23.2150  -50.0120 N.3   156  GLU156     -0.1245
     61  CA        13.9470  -22.8250  -51.1910 C.3   156  GLU156      0.1567
     62  C         13.9940  -23.9610  -52.2250 C.2   156  GLU156      0.2260
     63  O         13.7900  -23.6940  -53.4090 O.2   156  GLU156     -0.2867
     64  CB        15.3690  -22.3980  -50.7940 C.3   156  GLU156      0.0388
     65  CG        16.2090  -22.0560  -51.9820 C.3   156  GLU156      0.1160
     66  CD        17.6330  -21.7020  -51.6360 C.2   156  GLU156      0.3649
     67  OE1       18.1730  -22.0390  -50.5550 O.co2 156  GLU156     -0.2457
     68  OE2       18.3040  -21.0120  -52.3970 O.co2 156  GLU156     -0.2457
     69  N         14.2200  -15.1180  -52.0800 N.3   170  ARG170     -0.1245
     70  CA        14.8300  -14.2850  -51.0360 C.3   170  ARG170      0.1563
     71  C         13.7910  -13.3490  -50.4080 C.2   170  ARG170      0.2260
     72  O         13.8350  -13.1240  -49.1990 O.2   170  ARG170     -0.2867
     73  CB        16.0040  -13.4730  -51.6060 C.3   170  ARG170      0.0307
     74  CG        17.1820  -14.3500  -51.8980 C.3   170  ARG170      0.0489
     75  CD        18.3980  -13.5450  -52.2050 C.3   170  ARG170      0.2205
     76  NE        18.3110  -12.9430  -53.5140 N.pl3 170  ARG170     -0.0865
     77  CZ        17.8810  -11.7120  -53.7140 C.cat 170  ARG170      0.5346
     78  NH1       17.4860  -10.9000  -52.7310 N.pl3 170  ARG170      0.1354
     79  NH2       17.8220  -11.2980  -54.9590 N.pl3 170  ARG170      0.1354
     80  N         11.4390  -15.6210  -48.1970 N.3   173  SER173     -0.1202
     81  CA        12.1580  -15.9940  -46.9740 C.3   173  SER173      0.2020
     82  C         12.1730  -14.8410  -45.9500 C.2   173  SER173      0.2619
     83  O         12.1470  -15.0940  -44.7400 O.2   173  SER173     -0.2717
     84  CB        13.5850  -16.4180  -47.3010 C.3   173  SER173      0.2103
     85  OG        13.5940  -17.5850  -48.1040 O.3   173  SER173     -0.2182
     86  N         12.2030  -13.5810  -46.4440 N.am  174  THR174     -0.1952
     87  CA        12.1810  -12.3680  -45.6240 C.3   174  THR174      0.1897
     88  C         10.8060  -12.2660  -44.9440 C.2   174  THR174      0.2313
     89  O         10.7560  -11.9550  -43.7580 O.2   174  THR174     -0.2863
     90  CB        12.5490  -11.1340  -46.4760 C.3   174  THR174      0.1794
     91  OG1       13.8090  -11.3720  -47.1100 O.3   174  THR174     -0.2208
     92  CG2       12.6360   -9.8460  -45.6530 C.3   174  THR174      0.0378
     93  N         10.6770  -14.8240  -42.1030 N.3   177  PHE177     -0.1241
     94  CA        11.4620  -14.2830  -40.9870 C.3   177  PHE177      0.1605
     95  C         10.6650  -13.2140  -40.2310 C.2   177  PHE177      0.2264
     96  O         10.6570  -13.2490  -39.0050 O.2   177  PHE177     -0.2867
     97  CB        12.8140  -13.7220  -41.4690 C.3   177  PHE177      0.0534
     98  CG        13.7610  -13.3150  -40.3630 C.ar  177  PHE177     -0.0203
     99  CD1       14.4650  -14.2720  -39.6380 C.ar  177  PHE177     -0.0042
    100  CD2       13.9590  -11.9740  -40.0520 C.ar  177  PHE177     -0.0042
    101  CE1       15.3290  -13.8940  -38.6020 C.ar  177  PHE177     -0.0003
    102  CE2       14.8260  -11.5970  -39.0180 C.ar  177  PHE177     -0.0003
    103  CZ        15.5060  -12.5570  -38.3020 C.ar  177  PHE177     -0.0000
    104  N          7.7060  -14.8930  -38.3900 N.3   180  PHE180     -0.1241
    105  CA         8.2610  -15.6180  -37.2440 C.3   180  PHE180      0.1605
    106  C          8.3150  -14.7100  -35.9920 C.2   180  PHE180      0.2264
    107  O          8.1800  -15.2030  -34.8710 O.2   180  PHE180     -0.2867
    108  CB         9.6600  -16.1460  -37.6020 C.3   180  PHE180      0.0534
    109  CG        10.3440  -16.9980  -36.5600 C.ar  180  PHE180     -0.0203
    110  CD1       10.1210  -18.3690  -36.5050 C.ar  180  PHE180     -0.0042
    111  CD2       11.2550  -16.4390  -35.6700 C.ar  180  PHE180     -0.0042
    112  CE1       10.7720  -19.1610  -35.5540 C.ar  180  PHE180     -0.0003
    113  CE2       11.9000  -17.2300  -34.7160 C.ar  180  PHE180     -0.0003
    114  CZ        11.6680  -18.5880  -34.6760 C.ar  180  PHE180     -0.0000
    115  N         17.6410  -12.9210  -29.0970 N.3   232  ALA232     -0.1231
    116  CA        18.3900  -13.5090  -30.2090 C.3   232  ALA232      0.1694
    117  C         17.7660  -13.1440  -31.5540 C.2   232  ALA232      0.2592
    118  O         18.5070  -12.8870  -32.5010 O.2   232  ALA232     -0.2718
    119  CB        18.4580  -15.0220  -30.0590 C.3   232  ALA232      0.0304
    120  N         16.4160  -13.1280  -31.6430 N.am  233  TYR233     -0.1976
    121  CA        15.6820  -12.7800  -32.8620 C.3   233  TYR233      0.1639
    122  C         15.8890  -11.3040  -33.1990 C.2   233  TYR233      0.2290
    123  O         16.1460  -10.9760  -34.3540 O.2   233  TYR233     -0.2864
    124  CB        14.1800  -13.1080  -32.7360 C.3   233  TYR233      0.0560
    125  CG        13.3570  -12.6470  -33.9210 C.ar  233  TYR233     -0.0198
    126  CD1       13.2860  -13.4090  -35.0850 C.ar  233  TYR233     -0.0009
    127  CD2       12.6700  -11.4370  -33.8900 C.ar  233  TYR233     -0.0009
    128  CE1       12.5610  -12.9700  -36.1930 C.ar  233  TYR233      0.0417
    129  CE2       11.9370  -10.9920  -34.9890 C.ar  233  TYR233      0.0417
    130  CZ        11.8910  -11.7590  -36.1410 C.ar  233  TYR233      0.1957
    131  OH        11.1710  -11.3150  -37.2240 O.3   233  TYR233     -0.2866
    132  N         19.3090  -10.5060  -34.5020 N.3   236  ALA236     -0.1245
    133  CA        19.3410  -10.8900  -35.9130 C.3   236  ALA236      0.1562
    134  C         18.6930   -9.8260  -36.8030 C.2   236  ALA236      0.2260
    135  O         19.2060   -9.5590  -37.8920 O.2   236  ALA236     -0.2867
    136  CB        18.6340  -12.2210  -36.1060 C.3   236  ALA236      0.0290
    137  N         20.7650   -7.4540  -39.5700 N.3   240  MET240     -0.1245
    138  CA        20.3630   -7.4040  -40.9700 C.3   240  MET240      0.1570
    139  C         20.1450   -5.9580  -41.4430 C.2   240  MET240      0.2261
    140  O         20.5330   -5.6220  -42.5640 O.2   240  MET240     -0.2867
    141  CB        19.0900   -8.2340  -41.1720 C.3   240  MET240      0.0387
    142  CG        19.3470   -9.7250  -41.1820 C.3   240  MET240      0.0595
    143  SD        17.8640  -10.7170  -40.8870 S.3   240  MET240     -0.1393
    144  CE        17.1610  -10.7350  -42.5180 C.3   240  MET240      0.0692
@<TRIPOS>BOND
     1    79    77    1
     2    77    76    2
     3    77    78    1
     4    76    75    1
     5    63    62    2
     6    68    66   ar
     7    62    61    1
     8    75    74    1
     9    69    70    1
    10    65    66    1
    11    65    64    1
    12    74    73    1
    13    66    67   ar
    14    73    70    1
    15    61    64    1
    16    61    60    1
    17    70    71    1
    18    71    72    2
    19    58    57    2
    20    80    81    1
    21    85    84    1
    22    57    56    1
    23    50    49    2
    24    84    81    1
    25    56    59    1
    26    56    55    1
    27    91    90    1
    28    81    82    1
    29    90    92    1
    30    90    87    1
    31    49    55   am
    32    49    48    1
    33    86    82   am
    34    86    87    1
    35    53    51    1
    36    82    83    2
    37    87    88    1
    38    48    51    1
    39    48    47    1
    40    88    89    2
    41    51    52    1
    42    54    52    1
    43    46    45    2
    44    45    44    1
    45   140   139    2
    46   144   143    1
    47    93    94    1
    48    44    43    1
    49    35    34    2
    50    97    94    1
    51    97    98    1
    52   139   138    1
    53    41    39   ar
    54    41    42   ar
    55   142   141    1
    56   142   143    1
    57   141   138    1
    58    94    95    1
    59   138   137    1
    60    39    37   ar
    61    43    34   am
    62    34    33    1
    63    42    40   ar
    64    98   100   ar
    65    98    99   ar
    66    95    96    2
    67   100   102   ar
    68    99   101   ar
    69    37    36    1
    70    37    38   ar
    71    40    38   ar
    72    33    36    1
    73    33    32    1
    74    28    27    2
    75    24    23    2
    76   102   103   ar
    77   101   103   ar
    78   104   105    1
    79    27    26    1
    80   135   134    2
    81    23    25   am
    82    23    22    1
    83    26    25    1
    84    26    29    1
    85   108   105    1
    86   108   109    1
    87    31    29    1
    88   105   106    1
    89   131   130    1
    90    22    21    1
    91   134   133    1
    92    29    30    1
    93   109   110   ar
    94   109   111   ar
    95   110   112   ar
    96    16    15    2
    97   128   130   ar
    98   128   126   ar
    99   130   129   ar
   100   136   133    1
   101   106   107    2
   102   133   132    1
   103    21    15   am
   104   111   113   ar
   105   112   114   ar
   106    15    14    1
   107   126   125   ar
   108   129   127   ar
   109     8     7    2
   110   113   114   ar
   111   123   122    2
   112    11    10   ar
   113     4     3    2
   114    14    17    1
   115    14    13    1
   116   125   127   ar
   117   125   124    1
   118     7     6    1
   119     6     9    1
   120     6     5    1
   121    17    18    1
   122   122   121    1
   123    10     9    1
   124    10    12   ar
   125     3     5   am
   126     3     2    1
   127   121   124    1
   128   121   120    1
   129   118   117    2
   130     2     1    1
   131    18    20    1
   132    18    19    1
   133   120   117   am
   134   117   116    1
   135   116   119    1
   136   116   115    1
