@<TRIPOS>MOLECULE
tmp/4twkA03.pdb
 75 69 0 0 0
SMALL
GASTEIGER

@<TRIPOS>ATOM
      1  N          8.7320   18.8390   -0.4500 N.3    65  LEU65      -0.1245
      2  CA         8.0270   17.6030   -0.0800 C.3    65  LEU65       0.1561
      3  C          7.8080   16.6870   -1.2970 C.2    65  LEU65       0.2260
      4  O          7.9750   15.4730   -1.1650 O.2    65  LEU65      -0.2867
      5  CB         6.6770   17.9310    0.6010 C.3    65  LEU65       0.0270
      6  CG         5.7790   16.7550    1.0410 C.3    65  LEU65       0.0019
      7  CD1        6.3460   16.0240    2.2530 C.3    65  LEU65       0.0001
      8  CD2        4.3660   17.2210    1.3240 C.3    65  LEU65       0.0001
      9  N          9.6680   16.6120   -4.0450 N.3    67  GLN67      -0.1231
     10  CA        11.0040   16.1130   -4.4140 C.3    67  GLN67       0.1698
     11  C         11.3420   14.8260   -3.6550 C.2    67  GLN67       0.2592
     12  O         11.9320   13.9130   -4.2280 O.2    67  GLN67      -0.2718
     13  CB        12.0870   17.1670   -4.1380 C.3    67  GLN67       0.0381
     14  CG        12.1970   18.2390   -5.2150 C.3    67  GLN67       0.0905
     15  CD        13.4950   19.0050   -5.1280 C.2    67  GLN67       0.2608
     16  OE1       14.3970   18.8320   -5.9570 O.2    67  GLN67      -0.2717
     17  NE2       13.6160   19.8820   -4.1340 N.am   67  GLN67      -0.0878
     18  N         10.9360   14.7550   -2.3750 N.am   68  GLN68      -0.1966
     19  CA        11.1450   13.6140   -1.4860 C.3    68  GLN68       0.1733
     20  C         10.1960   12.4610   -1.8440 C.2    68  GLN68       0.2616
     21  O         10.6300   11.3090   -1.8570 O.2    68  GLN68      -0.2715
     22  CB        10.9670   14.0360   -0.0150 C.3    68  GLN68       0.0408
     23  CG        11.8220   15.2310    0.4290 C.3    68  GLN68       0.0908
     24  CD        13.2860   14.9240    0.6560 C.2    68  GLN68       0.2608
     25  OE1       14.0360   14.5670   -0.2680 O.2    68  GLN68      -0.2717
     26  NE2       13.7440   15.1500    1.8820 N.am   68  GLN68      -0.0878
     27  N          8.9120   12.7730   -2.1400 N.am   69  ILE69      -0.1977
     28  CA         7.8770   11.8060   -2.5540 C.3    69  ILE69       0.1596
     29  C          8.3090   11.1340   -3.8870 C.2    69  ILE69       0.2287
     30  O          8.1890    9.9140   -4.0110 O.2    69  ILE69      -0.2864
     31  CB         6.4680   12.4870   -2.6420 C.3    69  ILE69       0.0276
     32  CG1        5.9400   12.8400   -1.2290 C.3    69  ILE69       0.0022
     33  CG2        5.4430   11.6180   -3.3890 C.3    69  ILE69       0.0022
     34  CD1        4.8680   13.9060   -1.1820 C.3    69  ILE69       0.0001
     35  N         11.5020   10.9370   -5.0000 N.3    71  ALA71      -0.1231
     36  CA        12.7180   10.1980   -4.6380 C.3    71  ALA71       0.1694
     37  C         12.3820    8.7950   -4.1140 C.2    71  ALA71       0.2591
     38  O         13.0090    7.8210   -4.5390 O.2    71  ALA71      -0.2718
     39  CB        13.5170   10.9720   -3.5940 C.3    71  ALA71       0.0304
     40  N         11.3700    8.6950   -3.2270 N.am   72  ALA72      -0.1980
     41  CA        10.8900    7.4370   -2.6590 C.3    72  ALA72       0.1597
     42  C         10.2150    6.5790   -3.7450 C.2    72  ALA72       0.2287
     43  O         10.5260    5.3940   -3.8490 O.2    72  ALA72      -0.2864
     44  CB         9.9220    7.7140   -1.5150 C.3    72  ALA72       0.0319
     45  N         12.6900    5.2020   -6.0070 N.3    75  ALA75      -0.1245
     46  CA        13.5020    4.1910   -5.3310 C.3    75  ALA75       0.1562
     47  C         12.7930    2.8240   -5.3500 C.2    75  ALA75       0.2260
     48  O         13.4590    1.7900   -5.2900 O.2    75  ALA75      -0.2867
     49  CB        13.8080    4.6140   -3.9140 C.3    75  ALA75       0.0290
     50  N          9.5450    2.4450   -3.5440 N.3    77  ILE77      -0.1245
     51  CA         8.5770    2.4170   -2.4500 C.3    77  ILE77       0.1561
     52  C          7.7680    3.7180   -2.4340 C.2    77  ILE77       0.2260
     53  O          8.2840    4.7700   -2.0470 O.2    77  ILE77      -0.2867
     54  CB         9.2630    2.1330   -1.0610 C.3    77  ILE77       0.0252
     55  CG1       10.1100    0.8130   -1.0450 C.3    77  ILE77       0.0019
     56  CG2        8.2610    2.1660    0.0960 C.3    77  ILE77       0.0019
     57  CD1        9.3810   -0.5750   -1.1970 C.3    77  ILE77       0.0001
     58  N          5.2670    6.2030   -0.7430 N.3    79  PRO79      -0.2116
     59  CA         4.9880    6.4040    0.6990 C.3    79  PRO79       0.1372
     60  C          3.5020    6.3390    1.1060 C.2    79  PRO79       0.2244
     61  O          2.9130    7.3610    1.4550 O.2    79  PRO79      -0.2868
     62  CB         5.5740    7.7940    0.9840 C.3    79  PRO79       0.0268
     63  CG         6.3960    8.1540   -0.2220 C.3    79  PRO79       0.0207
     64  CD         5.7600    7.4490   -1.3650 C.3    79  PRO79       0.0892
     65  N         21.0770    0.9600   -3.7940 N.3   114  ARG114     -0.1245
     66  CA        21.1240    2.2300   -3.0660 C.3   114  ARG114      0.1563
     67  C         22.2260    2.2750   -1.9930 C.2   114  ARG114      0.2260
     68  O         22.4240    3.3250   -1.3790 O.2   114  ARG114     -0.2867
     69  CB        19.7600    2.5190   -2.4310 C.3   114  ARG114      0.0307
     70  CG        18.6520    2.7100   -3.4580 C.3   114  ARG114      0.0489
     71  CD        17.3430    3.1760   -2.8420 C.3   114  ARG114      0.2205
     72  NE        17.4290    4.5250   -2.2730 N.pl3 114  ARG114     -0.0865
     73  CZ        17.2860    5.6490   -2.9700 C.cat 114  ARG114      0.5346
     74  NH1       17.0630    5.6050   -4.2790 N.pl3 114  ARG114      0.1354
     75  NH2       17.3780    6.8240   -2.3670 N.pl3 114  ARG114      0.1354
@<TRIPOS>BOND
     1    45    46    1
     2    16    15    2
     3    47    46    1
     4    47    48    2
     5    46    49    1
     6    14    15    1
     7    14    13    1
     8    15    17   am
     9    35    36    1
    10    36    37    1
    11    36    39    1
    12    38    37    2
    13    10    13    1
    14    10     9    1
    15    10    11    1
    16    74    73    1
    17    12    11    2
    18    37    40   am
    19    30    29    2
    20    29    28    1
    21    43    42    2
    22    65    66    1
    23    42    41    1
    24    11    18   am
    25    50    51    1
    26    70    71    1
    27    70    69    1
    28    33    31    1
    29    40    41    1
    30    66    69    1
    31    66    67    1
    32    73    75    1
    33    73    72    2
    34    71    72    1
    35    41    44    1
    36    31    28    1
    37    31    32    1
    38    28    27    1
    39    51    52    1
    40    51    54    1
    41    52    53    2
    42    18    19    1
    43    27    20   am
    44    67    68    2
    45    21    20    2
    46    20    19    1
    47    19    22    1
    48    64    58    1
    49    64    63    1
    50     3     4    2
    51     3     2    1
    52    32    34    1
    53    57    55    1
    54    54    55    1
    55    54    56    1
    56    58    59    1
    57     1     2    1
    58    25    24    2
    59    63    62    1
    60     2     5    1
    61    22    23    1
    62    23    24    1
    63     5     6    1
    64    24    26   am
    65    59    62    1
    66    59    60    1
    67     6     8    1
    68     6     7    1
    69    60    61    2
