@<TRIPOS>MOLECULE
tmp/4twlA00.pdb
 129 125 0 0 0
SMALL
GASTEIGER

@<TRIPOS>ATOM
      1  N          6.9560   13.1690   -6.2410 N.3     5  TYR5       -0.1241
      2  CA         8.2750   12.6910   -5.8340 C.3     5  TYR5        0.1605
      3  C          8.4590   12.6950   -4.3180 C.2     5  TYR5        0.2264
      4  O          9.5750   12.4450   -3.8280 O.2     5  TYR5       -0.2867
      5  CB         9.3340   13.5330   -6.4840 C.3     5  TYR5        0.0534
      6  CG         9.4580   13.2580   -7.9830 C.ar    5  TYR5       -0.0201
      7  CD1        8.7140   13.9340   -8.8900 C.ar    5  TYR5       -0.0009
      8  CD2       10.3570   12.3210   -8.4690 C.ar    5  TYR5       -0.0009
      9  CE1        8.8670   13.7360  -10.2430 C.ar    5  TYR5        0.0417
     10  CE2       10.5050   12.0910   -9.8270 C.ar    5  TYR5        0.0417
     11  CZ         9.7250   12.7820  -10.7190 C.ar    5  TYR5        0.1957
     12  OH         9.8540   12.5650  -12.1020 O.3     5  TYR5       -0.2866
     13  N          6.1210   18.6470  -13.4690 N.3    67  HIS67      -0.1226
     14  CA         7.1030   17.8630  -12.7110 C.3    67  HIS67       0.1752
     15  C          8.5530   17.8850  -13.2480 C.2    67  HIS67       0.2596
     16  O          9.4920   17.4050  -12.5690 O.2    67  HIS67      -0.2718
     17  CB         6.5980   16.4430  -12.5150 C.3    67  HIS67       0.0759
     18  CG         6.1130   15.7930  -13.7610 C.ar   67  HIS67       0.0818
     19  ND1        6.9700   15.3240  -14.7330 N.ar   67  HIS67      -0.2268
     20  CD2        4.8550   15.5000  -14.1790 C.ar   67  HIS67       0.1154
     21  CE1        6.2590   14.7800  -15.7080 C.ar   67  HIS67       0.1986
     22  NE2        4.9740   14.8790  -15.3970 N.ar   67  HIS67      -0.2212
     23  N          8.7320   18.4580  -14.4320 N.am   68  ASP68      -0.1974
     24  CA        10.0370   18.7340  -15.0070 C.3    68  ASP68       0.1709
     25  C          9.9310   19.8110  -16.0770 C.2    68  ASP68       0.2293
     26  O          8.8420   20.1430  -16.5890 O.2    68  ASP68      -0.2864
     27  CB        10.6800   17.4450  -15.5540 C.3    68  ASP68       0.1436
     28  CG        10.0150   16.9040  -16.8140 C.2    68  ASP68       0.3671
     29  OD1        8.7950   17.1320  -17.0740 O.co2  68  ASP68      -0.2456
     30  OD2       10.7410   16.2180  -17.5530 O.co2  68  ASP68      -0.2456
     31  N         13.5790   15.1350  -27.4700 N.3    91  ARG91      -0.1245
     32  CA        13.3430   15.9110  -26.2610 C.3    91  ARG91       0.1563
     33  C         14.5530   15.8190  -25.3230 C.2    91  ARG91       0.2260
     34  O         15.3220   14.8750  -25.4040 O.2    91  ARG91      -0.2867
     35  CB        12.1020   15.3950  -25.5280 C.3    91  ARG91       0.0307
     36  CG        10.7990   15.6940  -26.2490 C.3    91  ARG91       0.0489
     37  CD         9.5360   15.1720  -25.5410 C.3    91  ARG91       0.2205
     38  NE         9.6980   13.9410  -24.7540 N.pl3  91  ARG91      -0.0865
     39  CZ         9.5800   12.6910  -25.1960 C.cat  91  ARG91       0.5346
     40  NH1        9.7460   11.6760  -24.3150 N.pl3  91  ARG91       0.1354
     41  NH2        9.2950   12.4340  -26.4860 N.pl3  91  ARG91       0.1354
     42  N         14.8060   16.1360  -21.0710 N.3    93  HIS93      -0.1241
     43  CA        14.3150   16.3270  -19.7360 C.3    93  HIS93       0.1621
     44  C         15.3780   16.6910  -18.6890 C.2    93  HIS93       0.2264
     45  O         16.5130   16.2360  -18.7700 O.2    93  HIS93      -0.2867
     46  CB        13.6450   15.0620  -19.3030 C.3    93  HIS93       0.0745
     47  CG        12.4840   14.7050  -20.1570 C.ar   93  HIS93       0.0817
     48  ND1       11.1830   14.9980  -19.8010 N.ar   93  HIS93      -0.2268
     49  CD2       12.4210   14.0820  -21.3530 C.ar   93  HIS93       0.1154
     50  CE1       10.3700   14.5570  -20.7390 C.ar   93  HIS93       0.1986
     51  NE2       11.0950   13.9870  -21.6820 N.ar   93  HIS93      -0.2212
     52  N         16.4700   16.8270  -14.5540 N.3    95  HIS95      -0.1241
     53  CA        16.1550   16.2780  -13.2430 C.3    95  HIS95       0.1621
     54  C         17.1770   16.8090  -12.2760 C.2    95  HIS95       0.2264
     55  O         18.4030   16.7830  -12.6030 O.2    95  HIS95      -0.2867
     56  CB        16.2260   14.7290  -13.3040 C.3    95  HIS95       0.0745
     57  CG        15.0810   14.1040  -14.0010 C.ar   95  HIS95       0.0817
     58  ND1       15.1150   13.7490  -15.3430 N.ar   95  HIS95      -0.2268
     59  CD2       13.8790   13.6930  -13.5280 C.ar   95  HIS95       0.1154
     60  CE1       13.9660   13.1900  -15.6730 C.ar   95  HIS95       0.1986
     61  NE2       13.1950   13.1490  -14.5960 N.ar   95  HIS95      -0.2212
     62  N         18.4900   14.3230  -19.7500 N.3   112  GLN112     -0.1245
     63  CA        18.1720   13.0950  -20.4610 C.3   112  GLN112      0.1566
     64  C         17.6430   13.4030  -21.8860 C.2   112  GLN112      0.2260
     65  O         16.5360   13.9460  -22.0710 O.2   112  GLN112     -0.2867
     66  CB        17.1760   12.2810  -19.6280 C.3   112  GLN112      0.0367
     67  CG        17.6580   11.9110  -18.2130 C.3   112  GLN112      0.0905
     68  CD        16.5650   11.3660  -17.3120 C.2   112  GLN112      0.2608
     69  OE1       15.3730   11.5320  -17.5670 O.2   112  GLN112     -0.2717
     70  NE2       16.9830   10.7660  -16.1790 N.am  112  GLN112     -0.0878
     71  N         16.1050   12.2100  -25.0150 N.3   114  VAL114     -0.1245
     72  CA        15.2660   11.0980  -25.4460 C.3   114  VAL114      0.1561
     73  C         15.2650   11.0500  -26.9710 C.2   114  VAL114      0.2260
     74  O         14.9240   12.0630  -27.6470 O.2   114  VAL114     -0.2867
     75  CB        13.8450   11.2690  -24.9970 C.3   114  VAL114      0.0252
     76  CG1       12.9870   10.0840  -25.4550 C.3   114  VAL114      0.0019
     77  CG2       13.7770   11.4280  -23.5000 C.3   114  VAL114      0.0019
     78  N         17.9540    6.7180  -24.7140 N.3   124  VAL124     -0.1245
     79  CA        18.1430    7.8940  -23.8910 C.3   124  VAL124      0.1561
     80  C         19.6230    8.0020  -23.6160 C.2   124  VAL124      0.2260
     81  O         20.2750    7.0220  -23.1790 O.2   124  VAL124     -0.2867
     82  CB        17.4040    7.7570  -22.5650 C.3   124  VAL124      0.0252
     83  CG1       17.7600    8.9130  -21.6160 C.3   124  VAL124      0.0019
     84  CG2       15.8880    7.7590  -22.7860 C.3   124  VAL124      0.0019
     85  N         11.6490    4.3890  -18.8130 N.3   180  PHE180     -0.1227
     86  CA        11.4400    5.7460  -18.5020 C.3   180  PHE180      0.1736
     87  C         11.5080    5.8760  -17.0070 C.2   180  PHE180      0.2596
     88  O         11.1170    4.9350  -16.2890 O.2   180  PHE180     -0.2718
     89  CB        10.0170    6.1820  -18.9290 C.3   180  PHE180      0.0547
     90  CG         9.8510    6.3650  -20.3640 C.ar  180  PHE180     -0.0202
     91  CD1       10.7240    7.1160  -21.0810 C.ar  180  PHE180     -0.0042
     92  CD2        8.7740    5.7430  -21.0200 C.ar  180  PHE180     -0.0042
     93  CE1       10.5300    7.2740  -22.4450 C.ar  180  PHE180     -0.0003
     94  CE2        8.5980    5.9030  -22.3610 C.ar  180  PHE180     -0.0003
     95  CZ         9.4820    6.6630  -23.0770 C.ar  180  PHE180     -0.0000
     96  N         11.8840    7.0490  -16.5180 N.am  181  THR181     -0.1939
     97  CA        12.0290    7.2550  -15.0920 C.3   181  THR181      0.2028
     98  C         10.8200    7.9720  -14.4510 C.2   181  THR181      0.2642
     99  O         10.8160    8.2530  -13.2420 O.2   181  THR181     -0.2714
    100  CB        13.2520    8.0590  -14.7430 C.3   181  THR181      0.1808
    101  OG1       13.2600    9.2630  -15.4850 O.3   181  THR181     -0.2208
    102  CG2       14.5220    7.2620  -15.0310 C.3   181  THR181      0.0379
    103  N          9.7760    8.1870  -15.2520 N.am  182  ALA182     -0.1977
    104  CA         8.5010    8.6720  -14.7520 C.3   182  ALA182      0.1597
    105  C          7.3660    7.8750  -15.3830 C.2   182  ALA182      0.2287
    106  O          7.5620    7.2420  -16.4440 O.2   182  ALA182     -0.2864
    107  CB         8.3420   10.1630  -15.1210 C.3   182  ALA182      0.0319
    108  N         13.8950    0.5940  -23.0430 N.3   189  ILE189     -0.1245
    109  CA        14.6420    1.7820  -23.3630 C.3   189  ILE189      0.1561
    110  C         16.1710    1.5000  -23.2200 C.2   189  ILE189      0.2260
    111  O         16.6390    1.0830  -22.1680 O.2   189  ILE189     -0.2867
    112  CB        14.3290    2.9450  -22.3920 C.3   189  ILE189      0.0252
    113  CG1       12.8230    3.1100  -22.0620 C.3   189  ILE189      0.0019
    114  CG2       14.9100    4.2070  -22.9290 C.3   189  ILE189      0.0019
    115  CD1       11.9300    3.2700  -23.2540 C.3   189  ILE189      0.0001
    116  N         19.6070    2.7540  -22.4120 N.3   191  TRP191     -0.1241
    117  CA        20.2140    3.8940  -21.7500 C.3   191  TRP191      0.1605
    118  C         21.7140    3.9370  -22.0410 C.2   191  TRP191      0.2264
    119  O         22.3900    2.8880  -21.9680 O.2   191  TRP191     -0.2867
    120  CB        19.9870    3.7760  -20.2300 C.3   191  TRP191      0.0550
    121  CG        18.5920    4.2840  -19.7940 C.ar  191  TRP191      0.0003
    122  CD1       17.4370    3.5580  -19.8160 C.ar  191  TRP191      0.0946
    123  CD2       18.2220    5.5760  -19.3420 C.ar  191  TRP191      0.0152
    124  NE1       16.3790    4.2830  -19.2970 N.ar  191  TRP191     -0.2442
    125  CE2       16.8290    5.5380  -19.0390 C.ar  191  TRP191      0.0810
    126  CE3       18.9170    6.7480  -19.0720 C.ar  191  TRP191      0.0012
    127  CZ2       16.1680    6.6010  -18.5710 C.ar  191  TRP191      0.0191
    128  CZ3       18.2380    7.8140  -18.6330 C.ar  191  TRP191      0.0001
    129  CH2       16.8670    7.7340  -18.3550 C.ar  191  TRP191      0.0015
@<TRIPOS>BOND
     1    74    73    2
     2    31    32    1
     3    73    72    1
     4    41    39    1
     5    32    35    1
     6    32    33    1
     7    36    37    1
     8    36    35    1
     9    37    38    1
    10    76    75    1
    11    72    71    1
    12    72    75    1
    13    34    33    2
    14    39    38    2
    15    39    40    1
    16    75    77    1
    17    78    79    1
    18    79    80    1
    19    79    82    1
    20    80    81    2
    21   109   110    1
    22   109   108    1
    23   109   112    1
    24   115   113    1
    25   110   111    2
    26    95    93   ar
    27    95    94   ar
    28   114   112    1
    29    84    82    1
    30    82    83    1
    31    93    91   ar
    32   116   117    1
    33   112   113    1
    34    94    92   ar
    35    65    64    2
    36   118   119    2
    37   118   117    1
    38    64    63    1
    39   117   120    1
    40    51    49   ar
    41    51    50   ar
    42    49    47   ar
    43    91    90   ar
    44    42    43    1
    45    92    90   ar
    46    50    48   ar
    47    63    62    1
    48    63    66    1
    49    90    89    1
    50   120   121    1
    51    47    48   ar
    52    47    46    1
    53   122   121   ar
    54   122   124   ar
    55   121   123   ar
    56    43    46    1
    57    43    44    1
    58    66    67    1
    59   123   126   ar
    60   123   125   ar
    61   124   125   ar
    62   126   128   ar
    63   125   127   ar
    64    89    86    1
    65    85    86    1
    66    45    44    2
    67   128   129   ar
    68   127   129   ar
    69    86    87    1
    70    67    68    1
    71    69    68    2
    72    30    28   ar
    73    68    70   am
    74    29    28   ar
    75    87    96   am
    76    87    88    2
    77    28    27    1
    78    26    25    2
    79    96    97    1
    80   106   105    2
    81    25    24    1
    82    21    22   ar
    83    21    19   ar
    84    60    58   ar
    85    60    61   ar
    86    27    24    1
    87   101   100    1
    88    22    20   ar
    89   105   104    1
    90    58    57   ar
    91   103   104    1
    92   103    98   am
    93   107   104    1
    94    97   100    1
    95    97    98    1
    96   102   100    1
    97    24    23    1
    98    19    18   ar
    99    61    59   ar
   100    52    53    1
   101    98    99    2
   102    23    15   am
   103    20    18   ar
   104    57    59   ar
   105    57    56    1
   106    18    17    1
   107    13    14    1
   108    56    53    1
   109    15    14    1
   110    15    16    2
   111    53    54    1
   112    14    17    1
   113    55    54    2
   114    12    11    1
   115    11     9   ar
   116    11    10   ar
   117     9     7   ar
   118    10     8   ar
   119     7     6   ar
   120     8     6   ar
   121     6     5    1
   122     5     2    1
   123     1     2    1
   124     2     3    1
   125     3     4    2
