@<TRIPOS>MOLECULE
tmp/4twoA00.pdb
 155 144 0 0 0
SMALL
GASTEIGER

@<TRIPOS>ATOM
      1  N         10.6280  -18.4600   -9.9200 N.3    17  LYS17      -0.1245
      2  CA        10.0400  -19.1800  -11.0440 C.3    17  LYS17       0.1561
      3  C          9.7000  -18.2800  -12.2400 C.2    17  LYS17       0.2260
      4  O          9.1600  -17.1880  -12.0760 O.2    17  LYS17      -0.2867
      5  CB         8.7830  -19.9100  -10.5510 C.3    17  LYS17       0.0271
      6  CG         8.0490  -20.7200  -11.5810 C.3    17  LYS17       0.0035
      7  CD         6.8880  -21.4640  -10.9340 C.3    17  LYS17       0.0206
      8  CE         5.7120  -21.5970  -11.8890 C.3    17  LYS17       0.1093
      9  NZ         6.0980  -22.2720  -13.1590 N.3    17  LYS17      -0.1314
     10  N          7.1620  -17.7150  -15.0280 N.3    19  VAL19      -0.1245
     11  CA         5.7740  -18.1290  -15.1940 C.3    19  VAL19       0.1561
     12  C          5.2140  -17.8010  -16.5710 C.2    19  VAL19       0.2260
     13  O          4.0960  -18.1960  -16.8930 O.2    19  VAL19      -0.2867
     14  CB         4.8480  -17.4830  -14.1370 C.3    19  VAL19       0.0252
     15  CG1        5.4130  -17.6790  -12.7350 C.3    19  VAL19       0.0019
     16  CG2        4.6340  -16.0080  -14.4360 C.3    19  VAL19       0.0019
     17  N          8.0010  -13.0360  -17.4530 N.3    27  VAL27      -0.1245
     18  CA         7.2080  -12.7710  -16.2670 C.3    27  VAL27       0.1561
     19  C          7.5570  -13.8430  -15.2450 C.2    27  VAL27       0.2260
     20  O          7.4990  -15.0300  -15.5420 O.2    27  VAL27      -0.2867
     21  CB         5.6950  -12.7760  -16.5620 C.3    27  VAL27       0.0252
     22  CG1        4.9010  -12.4770  -15.2870 C.3    27  VAL27       0.0019
     23  CG2        5.3670  -11.7620  -17.6510 C.3    27  VAL27       0.0019
     24  N          4.8610  -10.8010   -8.3120 N.3    43  ALA43      -0.1245
     25  CA         5.1470  -11.0970   -9.6940 C.3    43  ALA43       0.1562
     26  C          6.1410  -10.0770  -10.2060 C.2    43  ALA43       0.2260
     27  O          6.1060   -8.9090   -9.8050 O.2    43  ALA43      -0.2867
     28  CB         3.9020  -11.0650  -10.5130 C.3    43  ALA43       0.0290
     29  N          8.0630   -8.5890  -13.7740 N.3    45  LYS45      -0.1245
     30  CA         8.3350   -8.4810  -15.2000 C.3    45  LYS45       0.1561
     31  C          9.7690   -8.0230  -15.3830 C.2    45  LYS45       0.2260
     32  O         10.1870   -7.0390  -14.7760 O.2    45  LYS45      -0.2867
     33  CB         7.3880   -7.5020  -15.8880 C.3    45  LYS45       0.0271
     34  CG         6.1050   -8.1350  -16.4230 C.3    45  LYS45       0.0035
     35  CD         5.1460   -7.0570  -16.8820 C.3    45  LYS45       0.0206
     36  CE         4.0350   -7.6200  -17.7660 C.3    45  LYS45       0.1093
     37  NZ         3.0660   -6.5450  -18.1330 N.3    45  LYS45      -0.1314
     38  N          4.4030    1.5730  -18.2650 N.3    62  GLU62      -0.1245
     39  CA         3.3570    0.8260  -17.5900 C.3    62  GLU62       0.1567
     40  C          3.4420    0.9890  -16.0750 C.2    62  GLU62       0.2260
     41  O          2.4140    1.0460  -15.3990 O.2    62  GLU62      -0.2867
     42  CB         3.4250   -0.6620  -17.9570 C.3    62  GLU62       0.0388
     43  CG         2.1240   -1.3800  -17.6600 C.3    62  GLU62       0.1160
     44  CD         2.2300   -2.8870  -17.6950 C.2    62  GLU62       0.3649
     45  OE1        3.3570   -3.4450  -17.6770 O.co2  62  GLU62      -0.2457
     46  OE2        1.1580   -3.5190  -17.7300 O.co2  62  GLU62      -0.2457
     47  N          0.6770    2.5530  -13.5620 N.3    66  MET66      -0.1245
     48  CA         0.2330    1.6790  -12.4930 C.3    66  MET66       0.1570
     49  C          0.4670    2.3240  -11.1380 C.2    66  MET66       0.2261
     50  O         -0.3800    2.2540  -10.2340 O.2    66  MET66      -0.2867
     51  CB         0.9720    0.3380  -12.5820 C.3    66  MET66       0.0387
     52  CG         0.3300   -0.7810  -11.8120 C.3    66  MET66       0.0595
     53  SD         1.2740   -2.2990  -12.0150 S.3    66  MET66      -0.1393
     54  CE         1.6790   -2.1700  -13.7340 C.3    66  MET66       0.0692
     55  N         -4.1530   -3.6540  -10.1180 N.3    75  ILE75      -0.1245
     56  CA        -2.9200   -4.3970   -9.8130 C.3    75  ILE75       0.1561
     57  C         -1.9650   -3.4730   -9.0570 C.2    75  ILE75       0.2260
     58  O         -1.7360   -2.3380   -9.4670 O.2    75  ILE75      -0.2867
     59  CB        -2.2550   -4.9490  -11.1070 C.3    75  ILE75       0.0252
     60  CG1       -1.0210   -5.7800  -10.7810 C.3    75  ILE75       0.0019
     61  CG2       -1.9350   -3.8300  -12.1040 C.3    75  ILE75       0.0019
     62  CD1       -1.3790   -7.1200  -10.1650 C.3    75  ILE75       0.0001
     63  N          9.8160   -4.6950  -13.1530 N.3    89  ILE89      -0.1245
     64  CA         8.5780   -4.1770  -12.5800 C.3    89  ILE89       0.1561
     65  C          8.0260   -5.2250  -11.6070 C.2    89  ILE89       0.2260
     66  O          7.8270   -6.3870  -11.9740 O.2    89  ILE89      -0.2867
     67  CB         7.5140   -3.8540  -13.6520 C.3    89  ILE89       0.0252
     68  CG1        8.0180   -2.7780  -14.6270 C.3    89  ILE89       0.0019
     69  CG2        6.2060   -3.4090  -12.9890 C.3    89  ILE89       0.0019
     70  CD1        7.1110   -2.5600  -15.8490 C.3    89  ILE89       0.0001
     71  N          5.0390   -6.3380   -8.8650 N.3    91  THR91      -0.1203
     72  CA         3.6580   -6.1630   -8.4240 C.3    91  THR91       0.1994
     73  C          3.2270   -7.2400   -7.4520 C.2    91  THR91       0.2618
     74  O          3.9460   -8.2070   -7.2260 O.2    91  THR91      -0.2717
     75  CB         2.6570   -6.1920   -9.6070 C.3    91  THR91       0.1784
     76  OG1        2.5420   -7.5310  -10.1100 O.3    91  THR91      -0.2211
     77  CG2        3.1310   -5.2850  -10.7110 C.3    91  THR91       0.0376
     78  N          2.0330   -7.0870   -6.8900 N.am   92  GLU92      -0.1965
     79  CA         1.4680   -8.1620   -6.0960 C.3    92  GLU92       0.1733
     80  C          1.3390   -9.3990   -6.9830 C.2    92  GLU92       0.2616
     81  O          1.2360   -9.3000   -8.2090 O.2    92  GLU92      -0.2715
     82  CB         0.1040   -7.7740   -5.5170 C.3    92  GLU92       0.0429
     83  CG        -0.9430   -7.5370   -6.6020 C.3    92  GLU92       0.1163
     84  CD        -2.2500   -7.0180   -6.0410 C.2    92  GLU92       0.3649
     85  OE1       -2.7840   -7.6310   -5.0830 O.co2  92  GLU92      -0.2457
     86  OE2       -2.7340   -5.9860   -6.5570 O.co2  92  GLU92      -0.2457
     87  N          1.3610  -10.5560   -6.3470 N.am   93  TYR93      -0.1960
     88  CA         1.2530  -11.8300   -7.0330 C.3    93  TYR93       0.1771
     89  C         -0.2210  -12.2210   -7.1550 C.2    93  TYR93       0.2619
     90  O         -0.9700  -12.1790   -6.1780 O.2    93  TYR93      -0.2715
     91  CB         2.0600  -12.8950   -6.2760 C.3    93  TYR93       0.0574
     92  CG         1.9940  -14.2890   -6.8690 C.ar   93  TYR93      -0.0198
     93  CD1        2.5980  -14.5840   -8.0860 C.ar   93  TYR93      -0.0009
     94  CD2        1.3340  -15.3150   -6.2020 C.ar   93  TYR93      -0.0009
     95  CE1        2.5360  -15.8660   -8.6250 C.ar   93  TYR93       0.0417
     96  CE2        1.2650  -16.5930   -6.7350 C.ar   93  TYR93       0.0417
     97  CZ         1.8690  -16.8620   -7.9430 C.ar   93  TYR93       0.1957
     98  OH         1.8050  -18.1370   -8.4660 O.3    93  TYR93      -0.2866
     99  N         -0.6420  -12.5570   -8.3680 N.am   94  MET94      -0.1963
    100  CA        -2.0260  -12.9590   -8.6380 C.3    94  MET94       0.1736
    101  C         -2.0140  -14.4360   -9.0340 C.2    94  MET94       0.2616
    102  O         -1.7550  -14.7770  -10.1950 O.2    94  MET94      -0.2715
    103  CB        -2.6470  -12.0910   -9.7400 C.3    94  MET94       0.0427
    104  CG        -2.5990  -10.5540   -9.4400 C.3    94  MET94       0.0599
    105  SD        -3.6800  -10.1040   -8.0650 S.3    94  MET94      -0.1393
    106  CE        -5.2630  -10.2220   -8.9010 C.3    94  MET94       0.0692
    107  N         -2.2610  -15.3060   -8.0570 N.am   95  GLU95      -0.1963
    108  CA        -2.0140  -16.7460   -8.2260 C.3    95  GLU95       0.1733
    109  C         -2.7940  -17.3860   -9.3800 C.2    95  GLU95       0.2616
    110  O         -2.2970  -18.2840  -10.0340 O.2    95  GLU95      -0.2715
    111  CB        -2.3390  -17.4940   -6.9350 C.3    95  GLU95       0.0429
    112  CG        -2.1710  -19.0130   -7.0310 C.3    95  GLU95       0.1163
    113  CD        -2.4130  -19.7250   -5.7050 C.2    95  GLU95       0.3649
    114  OE1       -2.5030  -19.0420   -4.6700 O.co2  95  GLU95      -0.2457
    115  OE2       -2.4900  -20.9700   -5.6980 O.co2  95  GLU95      -0.2457
    116  N         -4.0050  -16.9200   -9.6460 N.am   96  ASN96      -0.1958
    117  CA        -4.8150  -17.5900  -10.6590 C.3    96  ASN96       0.1819
    118  C         -4.7530  -16.9530  -12.0540 C.2    96  ASN96       0.2622
    119  O         -5.5180  -17.3110  -12.9430 O.2    96  ASN96      -0.2715
    120  CB        -6.2530  -17.6890  -10.1640 C.3    96  ASN96       0.1195
    121  CG        -6.4060  -18.7500   -9.0950 C.2    96  ASN96       0.2630
    122  OD1       -5.9120  -19.8670   -9.2530 O.2    96  ASN96      -0.2716
    123  ND2       -7.0480  -18.4000   -7.9900 N.am   96  ASN96      -0.0877
    124  N         -3.8200  -16.0300  -12.2480 N.am   97  GLY97      -0.1940
    125  CA        -3.4760  -15.5740  -13.5840 C.3    97  GLY97       0.2014
    126  C         -4.5550  -14.7450  -14.2430 C.2    97  GLY97       0.2639
    127  O         -5.4110  -14.1740  -13.5670 O.2    97  GLY97      -0.2714
    128  N         -4.5110  -14.6840  -15.5690 N.am   98  SER98      -0.1949
    129  CA        -5.4980  -13.9420  -16.3490 C.3    98  SER98       0.1924
    130  C         -6.8810  -14.5590  -16.1990 C.2    98  SER98       0.2314
    131  O         -7.0220  -15.7850  -16.1640 O.2    98  SER98      -0.2863
    132  CB        -5.1040  -13.9030  -17.8280 C.3    98  SER98       0.2116
    133  OG        -3.8110  -13.3560  -17.9980 O.3    98  SER98      -0.2180
    134  N         -6.4640   -9.7410  -13.8950 N.3   145  LEU145     -0.1245
    135  CA        -5.8290  -10.8280  -13.1430 C.3   145  LEU145      0.1561
    136  C         -6.6860  -11.2110  -11.9480 C.2   145  LEU145      0.2260
    137  O         -7.4370  -10.3960  -11.4320 O.2   145  LEU145     -0.2867
    138  CB        -4.4250  -10.4370  -12.6750 C.3   145  LEU145      0.0270
    139  CG        -3.3540  -10.1850  -13.7470 C.3   145  LEU145      0.0019
    140  CD1       -2.1150   -9.5460  -13.1070 C.3   145  LEU145      0.0001
    141  CD2       -2.9710  -11.4930  -14.4560 C.3   145  LEU145      0.0001
    142  N         -5.4260   -4.8110  -14.9080 N.3   155  SER155     -0.1202
    143  CA        -3.9960   -4.6920  -15.1510 C.3   155  SER155      0.2020
    144  C         -3.7210   -4.3320  -16.6060 C.2   155  SER155      0.2618
    145  O         -4.6320   -3.9590  -17.3500 O.2   155  SER155     -0.2717
    146  CB        -3.2740   -5.9880  -14.7780 C.3   155  SER155      0.2103
    147  OG        -3.8190   -7.0880  -15.4760 O.3   155  SER155     -0.2182
    148  N         -2.4560   -4.4430  -16.9920 N.am  156  ASP156     -0.1973
    149  CA        -2.0050   -4.1160  -18.3380 C.3   156  ASP156      0.1709
    150  C         -2.3590   -2.6990  -18.7500 C.2   156  ASP156      0.2293
    151  O         -3.3690   -2.4540  -19.4030 O.2   156  ASP156     -0.2864
    152  CB        -2.5670   -5.1090  -19.3520 C.3   156  ASP156      0.1436
    153  CG        -1.7530   -5.1400  -20.6220 C.2   156  ASP156      0.3671
    154  OD1       -2.0200   -4.3110  -21.5230 O.co2 156  ASP156     -0.2456
    155  OD2       -0.8320   -5.9810  -20.7020 O.co2 156  ASP156     -0.2456
@<TRIPOS>BOND
     1   154   153   ar
     2   155   153   ar
     3   153   152    1
     4   151   150    2
     5   152   149    1
     6   150   149    1
     7   149   148    1
     8    38    39    1
     9    37    36    1
    10   133   132    1
    11    42    43    1
    12    42    39    1
    13   132   129    1
    14    36    35    1
    15    46    44   ar
    16    44    45   ar
    17    44    43    1
    18    23    21    1
    19    39    40    1
    20    17    18    1
    21   145   144    2
    22   148   144   am
    23    13    12    2
    24    35    34    1
    25   144   143    1
    26    12    11    1
    27    21    18    1
    28    21    22    1
    29    34    33    1
    30   129   130    1
    31   129   128    1
    32    18    19    1
    33   130   131    2
    34    40    41    2
    35    33    30    1
    36    70    68    1
    37   128   126   am
    38    20    19    2
    39   147   146    1
    40    31    30    1
    41    31    32    2
    42    30    29    1
    43    11    10    1
    44    11    14    1
    45   143   142    1
    46   143   146    1
    47    68    67    1
    48   141   139    1
    49    16    14    1
    50   126   125    1
    51   126   127    2
    52    14    15    1
    53   134   135    1
    54   139   140    1
    55   139   138    1
    56    54    53    1
    57    67    69    1
    58    67    64    1
    59   125   124    1
    60    47    48    1
    61     9     8    1
    62    63    64    1
    63   135   138    1
    64   135   136    1
    65   119   118    2
    66    51    48    1
    67    51    52    1
    68    64    65    1
    69    48    49    1
    70   124   118   am
    71     3     4    2
    72     3     2    1
    73    61    59    1
    74   118   117    1
    75    53    52    1
    76    66    65    2
    77   136   137    2
    78     8     7    1
    79     6     7    1
    80     6     5    1
    81    49    50    2
    82    59    60    1
    83    59    56    1
    84     2     5    1
    85     2     1    1
    86    60    62    1
    87    77    75    1
    88   117   120    1
    89   117   116    1
    90    28    25    1
    91    26    27    2
    92    26    25    1
    93   102   101    2
    94   120   121    1
    95    55    56    1
    96    76    75    1
    97   110   109    2
    98    56    57    1
    99   103   104    1
   100   103   100    1
   101    25    24    1
   102   116   109   am
   103    75    72    1
   104    58    57    2
   105   104   105    1
   106   109   108    1
   107   122   121    2
   108   121   123   am
   109   101   100    1
   110   101   107   am
   111   106   105    1
   112    71    72    1
   113   100    99    1
   114    95    93   ar
   115    95    97   ar
   116    98    97    1
   117    72    73    1
   118    99    89   am
   119   108   107    1
   120   108   111    1
   121    81    80    2
   122    93    92   ar
   123    97    96   ar
   124    73    74    2
   125    73    78   am
   126    89    88    1
   127    89    90    2
   128    88    87    1
   129    88    91    1
   130   112   111    1
   131   112   113    1
   132    80    87   am
   133    80    79    1
   134    78    79    1
   135    92    91    1
   136    92    94   ar
   137    96    94   ar
   138    83    84    1
   139    83    82    1
   140    86    84   ar
   141    79    82    1
   142    84    85   ar
   143   113   115   ar
   144   113   114   ar
