@<TRIPOS>MOLECULE
tmp/4twpB00.pdb
 182 175 0 0 0
SMALL
GASTEIGER

@<TRIPOS>ATOM
      1  N         81.2230   48.6230   32.9150 N.3    16  LEU16      -0.1231
      2  CA        81.5350   47.3460   32.2880 C.3    16  LEU16       0.1693
      3  C         82.1870   47.4610   30.9130 C.2    16  LEU16       0.2592
      4  O         81.9650   48.4300   30.1820 O.2    16  LEU16      -0.2718
      5  CB        80.2690   46.4960   32.2010 C.3    16  LEU16       0.0284
      6  CG        79.8150   45.9810   33.5670 C.3    16  LEU16       0.0019
      7  CD1       78.3830   45.4720   33.5210 C.3    16  LEU16       0.0001
      8  CD2       80.7670   44.8950   34.0560 C.3    16  LEU16       0.0001
      9  N         83.0040   46.4640   30.5780 N.am   17  GLY17      -0.1957
     10  CA        83.5960   46.3460   29.2550 C.3    17  GLY17       0.1869
     11  C         84.3530   47.5610   28.7510 C.2    17  GLY17       0.2309
     12  O         84.3200   47.8580   27.5490 O.2    17  GLY17      -0.2863
     13  N         82.2020   50.1050   26.5820 N.3    20  GLN20      -0.1231
     14  CA        81.7320   49.7990   25.2330 C.3    20  GLN20       0.1698
     15  C         80.2130   49.7120   25.1550 C.2    20  GLN20       0.2592
     16  O         79.6280   49.7180   24.0650 O.2    20  GLN20      -0.2718
     17  CB        82.3510   48.4970   24.7200 C.3    20  GLN20       0.0381
     18  CG        81.7980   47.2310   25.3660 C.3    20  GLN20       0.0905
     19  CD        82.4840   45.9780   24.8400 C.2    20  GLN20       0.2608
     20  OE1       83.4560   45.4830   25.4310 O.2    20  GLN20      -0.2717
     21  NE2       81.9900   45.4660   23.7120 N.am   20  GLN20      -0.0878
     22  N         79.5760   49.6030   26.3150 N.am   21  TYR21      -0.1962
     23  CA        78.1210   49.5030   26.3780 C.3    21  TYR21       0.1771
     24  C         77.4890   50.8680   26.6330 C.2    21  TYR21       0.2620
     25  O         76.2800   50.9770   26.8400 O.2    21  TYR21      -0.2715
     26  CB        77.6960   48.4950   27.4480 C.3    21  TYR21       0.0574
     27  CG        78.3760   47.1470   27.3160 C.ar   21  TYR21      -0.0198
     28  CD1       79.3070   46.7230   28.2570 C.ar   21  TYR21      -0.0009
     29  CD2       78.0930   46.3030   26.2490 C.ar   21  TYR21      -0.0009
     30  CE1       79.9370   45.4920   28.1450 C.ar   21  TYR21       0.0417
     31  CE2       78.7150   45.0630   26.1290 C.ar   21  TYR21       0.0417
     32  CZ        79.6380   44.6640   27.0820 C.ar   21  TYR21       0.1957
     33  OH        80.2700   43.4400   26.9810 O.3    21  TYR21      -0.2866
     34  N         78.3110   51.9080   26.6320 N.am   22  GLY22      -0.1940
     35  CA        77.8540   53.1920   27.1200 C.3    22  GLY22       0.2014
     36  C         77.9890   53.1230   28.6290 C.2    22  GLY22       0.2639
     37  O         78.9540   52.5470   29.1460 O.2    22  GLY22      -0.2714
     38  N         77.0360   53.6970   29.3560 N.am   23  GLU23      -0.1963
     39  CA        77.1320   53.6340   30.8020 C.3    23  GLU23       0.1733
     40  C         76.3500   52.4480   31.3500 C.2    23  GLU23       0.2616
     41  O         75.1350   52.5100   31.5560 O.2    23  GLU23      -0.2715
     42  CB        76.5700   54.9230   31.3950 C.3    23  GLU23       0.0429
     43  CG        77.1440   56.1760   30.7670 C.3    23  GLU23       0.1163
     44  CD        78.2550   56.7630   31.5930 C.2    23  GLU23       0.3649
     45  OE1       78.0980   56.8070   32.8310 O.co2  23  GLU23      -0.2457
     46  OE2       79.2870   57.1710   31.0120 O.co2  23  GLU23      -0.2457
     47  N         77.0870   51.4010   31.6850 N.am   24  VAL24      -0.1977
     48  CA        76.5300   50.2460   32.3530 C.3    24  VAL24       0.1596
     49  C         77.5830   49.8730   33.3640 C.2    24  VAL24       0.2287
     50  O         78.7520   49.6960   33.0150 O.2    24  VAL24      -0.2864
     51  CB        76.2710   49.0800   31.3840 C.3    24  VAL24       0.0276
     52  CG1       75.8060   47.8440   32.1470 C.3    24  VAL24       0.0022
     53  CG2       75.2370   49.4840   30.3260 C.3    24  VAL24       0.0022
     54  N         74.6100   44.0010   36.7530 N.3    37  ALA37      -0.1245
     55  CA        74.9270   45.0850   35.8200 C.3    37  ALA37       0.1562
     56  C         73.8900   46.1960   35.9740 C.2    37  ALA37       0.2260
     57  O         72.6780   45.9300   35.9790 O.2    37  ALA37      -0.2867
     58  CB        74.9590   44.5780   34.3870 C.3    37  ALA37       0.0290
     59  N         72.3530   49.7000   34.4010 N.3    39  LYS39      -0.1245
     60  CA        72.2280   50.7430   33.3850 C.3    39  LYS39       0.1561
     61  C         71.8010   52.0240   34.0760 C.2    39  LYS39       0.2260
     62  O         70.8060   52.0510   34.8030 O.2    39  LYS39      -0.2867
     63  CB        71.1920   50.3650   32.3320 C.3    39  LYS39       0.0271
     64  CG        71.6100   49.2340   31.4230 C.3    39  LYS39       0.0035
     65  CD        70.4030   48.6740   30.7020 C.3    39  LYS39       0.0206
     66  CE        69.5970   49.7790   30.0340 C.3    39  LYS39       0.1093
     67  NZ        70.2280   50.2440   28.7630 N.3    39  LYS39      -0.1314
     68  N         62.4680   51.4760   27.9750 N.3    54  GLU54      -0.1245
     69  CA        63.3200   50.2960   27.9620 C.3    54  GLU54       0.1567
     70  C         63.0240   49.4020   29.1760 C.2    54  GLU54       0.2260
     71  O         62.8680   48.1830   29.0440 O.2    54  GLU54      -0.2867
     72  CB        64.7960   50.7070   27.9290 C.3    54  GLU54       0.0388
     73  CG        65.7580   49.5420   27.7220 C.3    54  GLU54       0.1160
     74  CD        67.2150   49.9880   27.5710 C.2    54  GLU54       0.3649
     75  OE1       67.4590   51.2080   27.3780 O.co2  54  GLU54      -0.2457
     76  OE2       68.1100   49.1080   27.6510 O.co2  54  GLU54      -0.2457
     77  N         68.3530   38.3670   28.4130 N.3    67  VAL67      -0.1245
     78  CA        68.8960   38.8170   29.7030 C.3    67  VAL67       0.1561
     79  C         67.7890   39.4460   30.5560 C.2    67  VAL67       0.2260
     80  O         66.9900   40.2610   30.0650 O.2    67  VAL67      -0.2867
     81  CB        70.1510   39.7400   29.5850 C.3    67  VAL67       0.0252
     82  CG1       70.5660   40.2530   30.9600 C.3    67  VAL67       0.0019
     83  CG2       71.2980   39.0370   28.9000 C.3    67  VAL67       0.0019
     84  N         70.1800   44.6530   35.9750 N.3    83  ILE83      -0.1231
     85  CA        70.1030   43.5490   35.0410 C.3    83  ILE83       0.1692
     86  C         71.0890   42.4730   35.4590 C.2    83  ILE83       0.2592
     87  O         72.1680   42.7700   35.9790 O.2    83  ILE83      -0.2718
     88  CB        70.4020   44.0440   33.6160 C.3    83  ILE83       0.0266
     89  CG1       69.2200   44.8820   33.1070 C.3    83  ILE83       0.0019
     90  CG2       70.6900   42.8780   32.6770 C.3    83  ILE83       0.0020
     91  CD1       69.5100   45.6290   31.8110 C.3    83  ILE83       0.0001
     92  N         70.7150   41.2180   35.2480 N.am   84  GLU84      -0.1966
     93  CA        71.5450   40.1140   35.7150 C.3    84  GLU84       0.1733
     94  C         72.9290   40.1990   35.0830 C.2    84  GLU84       0.2616
     95  O         73.0720   40.6310   33.9350 O.2    84  GLU84      -0.2715
     96  CB        70.8990   38.7720   35.3910 C.3    84  GLU84       0.0429
     97  CG        70.9760   38.4080   33.9380 C.3    84  GLU84       0.1163
     98  CD        70.2930   37.0980   33.6540 C.2    84  GLU84       0.3649
     99  OE1       69.4550   37.0600   32.7230 O.co2  84  GLU84      -0.2457
    100  OE2       70.5860   36.1080   34.3660 O.co2  84  GLU84      -0.2457
    101  N         73.9380   39.8000   35.8510 N.am   85  PHE85      -0.1960
    102  CA        75.3260   39.8470   35.4140 C.3    85  PHE85       0.1771
    103  C         75.6890   38.5850   34.6360 C.2    85  PHE85       0.2619
    104  O         75.5720   37.4670   35.1460 O.2    85  PHE85      -0.2715
    105  CB        76.2500   39.9960   36.6340 C.3    85  PHE85       0.0574
    106  CG        77.7150   40.1030   36.2910 C.ar   85  PHE85      -0.0200
    107  CD1       78.2140   41.2320   35.6520 C.ar   85  PHE85      -0.0042
    108  CD2       78.6020   39.0830   36.6270 C.ar   85  PHE85      -0.0042
    109  CE1       79.5740   41.3410   35.3400 C.ar   85  PHE85      -0.0003
    110  CE2       79.9690   39.1850   36.3220 C.ar   85  PHE85      -0.0003
    111  CZ        80.4510   40.3130   35.6790 C.ar   85  PHE85      -0.0000
    112  N         76.1690   38.7640   33.4140 N.am   86  MET86      -0.1963
    113  CA        76.6750   37.6430   32.6450 C.3    86  MET86       0.1736
    114  C         78.1880   37.6830   32.7530 C.2    86  MET86       0.2617
    115  O         78.8210   38.6650   32.3830 O.2    86  MET86      -0.2715
    116  CB        76.2320   37.7440   31.1900 C.3    86  MET86       0.0427
    117  CG        74.7380   37.9540   31.0130 C.3    86  MET86       0.0599
    118  SD        73.7640   36.5100   31.4660 S.3    86  MET86      -0.1393
    119  CE        74.3830   35.3020   30.3050 C.3    86  MET86       0.0692
    120  N         78.7600   36.6000   33.2620 N.am   87  THR87      -0.1937
    121  CA        80.1560   36.5710   33.6760 C.3    87  THR87       0.2028
    122  C         81.1570   36.8120   32.5550 C.2    87  THR87       0.2642
    123  O         82.1790   37.4540   32.7630 O.2    87  THR87      -0.2714
    124  CB        80.5010   35.2580   34.4010 C.3    87  THR87       0.1808
    125  OG1       81.8090   35.3530   34.9720 O.3    87  THR87      -0.2208
    126  CG2       80.4650   34.0980   33.4310 C.3    87  THR87       0.0379
    127  N         80.8780   36.2730   31.3770 N.am   88  TYR88      -0.1959
    128  CA        81.8310   36.3260   30.2760 C.3    88  TYR88       0.1771
    129  C         81.7180   37.5200   29.3220 C.2    88  TYR88       0.2620
    130  O         82.4700   37.6070   28.3570 O.2    88  TYR88      -0.2715
    131  CB        81.8390   35.0000   29.5150 C.3    88  TYR88       0.0574
    132  CG        82.4470   33.8810   30.3230 C.ar   88  TYR88      -0.0198
    133  CD1       81.6490   32.9370   30.9480 C.ar   88  TYR88      -0.0009
    134  CD2       83.8210   33.7850   30.4830 C.ar   88  TYR88      -0.0009
    135  CE1       82.2030   31.9200   31.6980 C.ar   88  TYR88       0.0417
    136  CE2       84.3830   32.7710   31.2310 C.ar   88  TYR88       0.0417
    137  CZ        83.5700   31.8420   31.8360 C.ar   88  TYR88       0.1957
    138  OH        84.1260   30.8310   32.5820 O.3    88  TYR88      -0.2866
    139  N         80.7880   38.4330   29.5760 N.am   89  GLY89      -0.1954
    140  CA        80.6690   39.6050   28.7230 C.3    89  GLY89       0.1869
    141  C         79.9260   39.3140   27.4230 C.2    89  GLY89       0.2309
    142  O         79.1080   38.3790   27.3690 O.2    89  GLY89      -0.2863
    143  N         77.8460   41.3230   19.2940 N.3   135  ARG135     -0.1231
    144  CA        78.2340   42.3180   20.2910 C.3   135  ARG135      0.1694
    145  C         77.0800   42.5660   21.2620 C.2   135  ARG135      0.2592
    146  O         77.2880   42.9930   22.3970 O.2   135  ARG135     -0.2718
    147  CB        78.6370   43.6330   19.6070 C.3   135  ARG135      0.0321
    148  CG        77.4920   44.2930   18.8560 C.3   135  ARG135      0.0489
    149  CD        77.8080   45.7190   18.4250 C.3   135  ARG135      0.2205
    150  NE        76.7290   46.2410   17.5800 N.pl3 135  ARG135     -0.0865
    151  CZ        76.6060   45.9670   16.2800 C.cat 135  ARG135      0.5346
    152  NH1       77.5020   45.1880   15.6760 N.pl3 135  ARG135      0.1354
    153  NH2       75.5930   46.4650   15.5840 N.pl3 135  ARG135      0.1354
    154  N         75.8580   42.3150   20.7910 N.am  136  ASN136     -0.1974
    155  CA        74.6560   42.5080   21.5970 C.3   136  ASN136      0.1688
    156  C         74.1420   41.2400   22.2710 C.2   136  ASN136      0.2292
    157  O         73.0260   41.2080   22.7790 O.2   136  ASN136     -0.2864
    158  CB        73.5630   43.2530   20.8270 C.3   136  ASN136      0.1181
    159  CG        73.9720   44.6790   20.4800 C.2   136  ASN136      0.2629
    160  OD1       74.8330   45.2780   21.1470 O.2   136  ASN136     -0.2716
    161  ND2       73.3620   45.2310   19.4300 N.am  136  ASN136     -0.0877
    162  N         75.1190   38.1540   25.2060 N.3   138  LEU138     -0.1245
    163  CA        75.9400   37.9930   26.4030 C.3   138  LEU138      0.1561
    164  C         76.1100   36.5330   26.7790 C.2   138  LEU138      0.2260
    165  O         75.2110   35.7070   26.5880 O.2   138  LEU138     -0.2867
    166  CB        75.3680   38.7850   27.5840 C.3   138  LEU138      0.0270
    167  CG        75.3310   40.3140   27.4700 C.3   138  LEU138      0.0019
    168  CD1       74.5270   40.8920   28.6330 C.3   138  LEU138      0.0001
    169  CD2       76.7440   40.9180   27.4220 C.3   138  LEU138      0.0001
    170  N         70.4800   40.7440   24.5140 N.3   148  ALA148     -0.1231
    171  CA        70.3660   41.9340   25.3590 C.3   148  ALA148      0.1694
    172  C         70.1360   43.1830   24.5110 C.2   148  ALA148      0.2592
    173  O         69.8360   43.0800   23.3150 O.2   148  ALA148     -0.2718
    174  CB        71.6080   42.1080   26.1950 C.3   148  ALA148      0.0304
    175  N         70.2550   44.3520   25.1490 N.am  149  ASP149     -0.1974
    176  CA        70.1480   45.6700   24.4970 C.3   149  ASP149      0.1709
    177  C         68.8010   45.9030   23.8150 C.2   149  ASP149      0.2293
    178  O         68.7060   46.0430   22.5910 O.2   149  ASP149     -0.2864
    179  CB        71.2970   45.9100   23.5110 C.3   149  ASP149      0.1436
    180  CG        71.4550   47.3860   23.1510 C.2   149  ASP149      0.3671
    181  OD1       71.0180   48.2510   23.9540 O.co2 149  ASP149     -0.2456
    182  OD2       72.0110   47.6760   22.0640 O.co2 149  ASP149     -0.2456
@<TRIPOS>BOND
     1   153   151    1
     2   152   151    1
     3   151   150    2
     4   150   149    1
     5   149   148    1
     6   148   147    1
     7   143   144    1
     8   161   159   am
     9   147   144    1
    10   144   145    1
    11   159   158    1
    12   159   160    2
    13   154   145   am
    14   154   155    1
    15   158   155    1
    16   145   146    2
    17   155   156    1
    18   182   180   ar
    19   156   157    2
    20   178   177    2
    21   180   179    1
    22   180   181   ar
    23   173   172    2
    24   179   176    1
    25    21    19   am
    26   177   176    1
    27    16    15    2
    28   176   175    1
    29   172   175   am
    30   172   171    1
    31   170   171    1
    32    17    14    1
    33    17    18    1
    34    19    18    1
    35    19    20    2
    36    15    14    1
    37    15    22   am
    38   162   163    1
    39    14    13    1
    40   171   174    1
    41    31    29   ar
    42    31    32   ar
    43    29    27   ar
    44    22    23    1
    45    23    24    1
    46    23    26    1
    47   163   164    1
    48   163   166    1
    49   165   164    2
    50    34    24   am
    51    34    35    1
    52    24    25    2
    53    33    32    1
    54    32    30   ar
    55    35    36    1
    56    27    26    1
    57    27    28   ar
    58   142   141    2
    59    75    74   ar
    60   169   167    1
    61   141   140    1
    62   167   166    1
    63   167   168    1
    64    12    11    2
    65    74    76   ar
    66    74    73    1
    67    73    72    1
    68    72    69    1
    69    69    68    1
    70    69    70    1
    71    30    28   ar
    72   130   129    2
    73    77    78    1
    74    36    37    2
    75    36    38   am
    76   140   139    1
    77    11    10    1
    78    67    66    1
    79    83    81    1
    80    71    70    2
    81    10     9    1
    82   129   139   am
    83   129   128    1
    84    38    39    1
    85   131   128    1
    86   131   132    1
    87    81    78    1
    88    81    82    1
    89    78    79    1
    90    66    65    1
    91    80    79    2
    92     4     3    2
    93   128   127    1
    94   119   118    1
    95   132   134   ar
    96   132   133   ar
    97    53    51    1
    98   134   136   ar
    99     9     3   am
   100    65    64    1
   101    43    42    1
   102    43    44    1
   103    39    40    1
   104    39    42    1
   105     3     2    1
   106   133   135   ar
   107    46    44   ar
   108   117   116    1
   109   117   118    1
   110   116   113    1
   111   136   137   ar
   112    40    41    2
   113    40    47   am
   114   127   122   am
   115    51    52    1
   116    51    48    1
   117    64    63    1
   118    44    45   ar
   119    47    48    1
   120   135   137   ar
   121    91    89    1
   122   137   138    1
   123     5     2    1
   124     5     6    1
   125     2     1    1
   126    63    60    1
   127    48    49    1
   128   115   114    2
   129   122   123    2
   130   122   121    1
   131   113   114    1
   132   113   112    1
   133    90    88    1
   134    99    98   ar
   135   114   120   am
   136    50    49    2
   137    89    88    1
   138   120   121    1
   139    60    61    1
   140    60    59    1
   141   112   103   am
   142   126   124    1
   143     7     6    1
   144     6     8    1
   145    88    85    1
   146    98    97    1
   147    98   100   ar
   148   121   124    1
   149    95    94    2
   150    97    96    1
   151    61    62    2
   152    58    55    1
   153   124   125    1
   154   103   104    2
   155   103   102    1
   156    85    86    1
   157    85    84    1
   158    94    93    1
   159    94   101   am
   160    92    86   am
   161    92    93    1
   162   109   107   ar
   163   109   111   ar
   164    96    93    1
   165   102   101    1
   166   102   105    1
   167    86    87    2
   168   107   106   ar
   169   111   110   ar
   170    55    56    1
   171    55    54    1
   172    56    57    2
   173   106   108   ar
   174   106   105    1
   175   110   108   ar
