@<TRIPOS>MOLECULE
tmp/4twtB00.pdb
 121 115 0 0 0
SMALL
GASTEIGER

@<TRIPOS>ATOM
      1  N        -19.7130   71.3050  221.5290 N.3     4  VAL4       -0.1245
      2  CA       -18.4770   71.3820  222.2820 C.3     4  VAL4        0.1561
      3  C        -17.7240   70.0510  222.2770 C.2     4  VAL4        0.2260
      4  O        -18.3160   68.9940  222.0640 O.2     4  VAL4       -0.2867
      5  CB       -18.7990   71.8090  223.7050 C.3     4  VAL4        0.0252
      6  CG1      -19.3950   70.6480  224.4820 C.3     4  VAL4        0.0019
      7  CG2      -17.5700   72.3330  224.4030 C.3     4  VAL4        0.0019
      8  N        -13.9820   67.9380  223.8980 N.3     6  HIS6       -0.1241
      9  CA       -12.7620   67.8950  224.6490 C.3     6  HIS6        0.1621
     10  C        -12.3030   66.4670  224.5530 C.2     6  HIS6        0.2264
     11  O        -12.9240   65.5670  225.1130 O.2     6  HIS6       -0.2867
     12  CB       -13.0110   68.3030  226.1070 C.3     6  HIS6        0.0745
     13  CG       -11.7800   68.3400  226.9470 C.ar    6  HIS6        0.0817
     14  ND1      -10.9340   69.4270  226.9700 N.ar    6  HIS6       -0.2268
     15  CD2      -11.2360   67.4170  227.7750 C.ar    6  HIS6        0.1154
     16  CE1       -9.9250   69.1750  227.7820 C.ar    6  HIS6        0.1986
     17  NE2      -10.0810   67.9590  228.2790 N.ar    6  HIS6       -0.2212
     18  N         -8.7970   63.7010  224.7010 N.3     8  VAL8       -0.1245
     19  CA        -7.5440   63.4900  225.3570 C.3     8  VAL8        0.1561
     20  C         -6.7110   62.4400  224.6460 C.2     8  VAL8        0.2260
     21  O         -7.1800   61.5980  223.8530 O.2     8  VAL8       -0.2867
     22  CB        -7.7340   63.0640  226.8170 C.3     8  VAL8        0.0252
     23  CG1       -8.3860   64.1730  227.5920 C.3     8  VAL8        0.0019
     24  CG2       -8.5810   61.8020  226.9350 C.3     8  VAL8        0.0019
     25  N        -13.9270   78.8440  220.1380 N.3    44  LEU44      -0.1245
     26  CA       -12.6530   78.8270  220.8140 C.3    44  LEU44       0.1561
     27  C        -12.0690   77.4620  220.5450 C.2    44  LEU44       0.2260
     28  O        -12.7290   76.4690  220.7550 O.2    44  LEU44      -0.2867
     29  CB       -12.8050   79.0290  222.3050 C.3    44  LEU44       0.0270
     30  CG       -11.4770   79.0720  223.0610 C.3    44  LEU44       0.0019
     31  CD1      -10.9380   80.5000  223.1030 C.3    44  LEU44       0.0001
     32  CD2      -11.6330   78.5910  224.4760 C.3    44  LEU44       0.0001
     33  N         -8.6020   75.0450  221.4790 N.3    46  TYR46      -0.1227
     34  CA        -7.4540   74.9600  222.4130 C.3    46  TYR46       0.1736
     35  C         -6.8010   73.6190  222.4710 C.2    46  TYR46       0.2596
     36  O         -7.3920   72.6210  222.0970 O.2    46  TYR46      -0.2718
     37  CB        -7.8860   75.3150  223.8340 C.3    46  TYR46       0.0548
     38  CG        -8.9030   74.3750  224.3800 C.ar   46  TYR46      -0.0200
     39  CD1      -10.2540   74.5070  224.0760 C.ar   46  TYR46      -0.0009
     40  CD2       -8.5270   73.3280  225.1880 C.ar   46  TYR46      -0.0009
     41  CE1      -11.2000   73.6190  224.5670 C.ar   46  TYR46       0.0417
     42  CE2       -9.4710   72.4410  225.6940 C.ar   46  TYR46       0.0417
     43  CZ       -10.8050   72.5980  225.3700 C.ar   46  TYR46       0.1957
     44  OH       -11.7240   71.7270  225.8900 O.3    46  TYR46      -0.2866
     45  N         -5.5710   73.5770  222.9590 N.am   47  SER47      -0.1952
     46  CA        -4.9560   72.2900  223.2640 C.3    47  SER47       0.1924
     47  C         -3.7220   72.4640  224.0880 C.2    47  SER47       0.2314
     48  O         -3.1450   73.5320  224.1230 O.2    47  SER47      -0.2863
     49  CB        -4.6120   71.5150  221.9820 C.3    47  SER47       0.2116
     50  OG        -3.6930   72.2420  221.2190 O.3    47  SER47      -0.2180
     51  N          0.8860   75.1500  225.2180 N.3   101  TYR101     -0.1227
     52  CA        -0.5450   75.3660  225.2000 C.3   101  TYR101      0.1736
     53  C         -0.8890   76.4440  224.1960 C.2   101  TYR101      0.2595
     54  O         -0.2190   77.4690  224.0750 O.2   101  TYR101     -0.2718
     55  CB        -1.0950   75.6390  226.6090 C.3   101  TYR101      0.0548
     56  CG        -0.2390   76.5180  227.4650 C.ar  101  TYR101     -0.0200
     57  CD1        0.7880   75.9800  228.2420 C.ar  101  TYR101     -0.0009
     58  CD2       -0.4720   77.8850  227.5340 C.ar  101  TYR101     -0.0009
     59  CE1        1.5550   76.7800  229.0510 C.ar  101  TYR101      0.0417
     60  CE2        0.2830   78.6800  228.3710 C.ar  101  TYR101      0.0417
     61  CZ         1.2900   78.1150  229.1100 C.ar  101  TYR101      0.1957
     62  OH         2.0540   78.9060  229.9040 O.3   101  TYR101     -0.2866
     63  N         -1.9720   76.1960  223.4970 N.am  102  LEU102     -0.1966
     64  CA        -2.3890   76.9680  222.3720 C.3   102  LEU102      0.1728
     65  C         -3.8780   77.2350  222.5450 C.2   102  LEU102      0.2616
     66  O         -4.5910   76.3470  222.9660 O.2   102  LEU102     -0.2715
     67  CB        -2.2000   76.0890  221.1470 C.3   102  LEU102      0.0311
     68  CG        -1.0140   76.2810  220.2340 C.3   102  LEU102      0.0022
     69  CD1        0.2760   76.4220  221.0070 C.3   102  LEU102      0.0001
     70  CD2       -0.9510   75.0300  219.3750 C.3   102  LEU102      0.0001
     71  N         -4.3510   78.4010  222.1260 N.am  103  GLY103     -0.1955
     72  CA        -5.7720   78.6670  222.1470 C.3   103  GLY103      0.1869
     73  C         -6.1290   79.9720  221.4730 C.2   103  GLY103      0.2309
     74  O         -5.2960   80.8700  221.3960 O.2   103  GLY103     -0.2863
     75  N         -1.8210   63.2160  234.4440 N.3   129  SER129     -0.1202
     76  CA        -3.1510   62.8860  233.9040 C.3   129  SER129      0.2020
     77  C         -4.0290   64.0430  233.4420 C.2   129  SER129      0.2619
     78  O         -4.2190   64.9920  234.1890 O.2   129  SER129     -0.2717
     79  CB        -3.9940   62.1510  234.9680 C.3   129  SER129      0.2103
     80  OG        -4.2400   62.9380  236.1370 O.3   129  SER129     -0.2182
     81  N         -4.6430   63.9040  232.2630 N.am  130  GLY130     -0.1942
     82  CA        -5.6940   64.8220  231.8080 C.3   130  GLY130      0.2014
     83  C         -5.1480   66.1210  231.2900 C.2   130  GLY130      0.2638
     84  O         -5.9100   67.0360  230.9290 O.2   130  GLY130     -0.2714
     85  N         -3.8230   66.1580  231.2020 N.am  131  GLN131     -0.1977
     86  CA        -3.0630   67.3260  230.8460 C.3   131  GLN131      0.1601
     87  C         -2.6570   67.3870  229.3530 C.2   131  GLN131      0.2287
     88  O         -2.1320   68.3910  228.9990 O.2   131  GLN131     -0.2864
     89  CB        -1.7810   67.3440  231.7280 C.3   131  GLN131      0.0394
     90  CG        -1.3410   68.7010  232.2910 C.3   131  GLN131      0.0908
     91  CD        -2.3660   69.5320  233.0330 C.2   131  GLN131      0.2608
     92  OE1       -3.1010   70.3010  232.4140 O.2   131  GLN131     -0.2717
     93  NE2       -2.3400   69.4750  234.3440 N.am  131  GLN131     -0.0878
     94  N         -4.4530   67.3490  225.7270 N.3   133  TYR133     -0.1241
     95  CA        -5.8390   67.4400  225.3110 C.3   133  TYR133      0.1605
     96  C         -6.0170   68.4620  224.2170 C.2   133  TYR133      0.2264
     97  O         -5.1040   69.2670  223.9430 O.2   133  TYR133     -0.2867
     98  CB        -6.7150   67.7920  226.5160 C.3   133  TYR133      0.0534
     99  CG        -6.2560   69.0450  227.2350 C.ar  133  TYR133     -0.0201
    100  CD1       -6.5940   70.2970  226.7610 C.ar  133  TYR133     -0.0009
    101  CD2       -5.4800   68.9760  228.3680 C.ar  133  TYR133     -0.0009
    102  CE1       -6.1770   71.4410  227.3940 C.ar  133  TYR133      0.0417
    103  CE2       -5.0660   70.1240  229.0100 C.ar  133  TYR133      0.0417
    104  CZ        -5.4190   71.3530  228.5110 C.ar  133  TYR133      0.1957
    105  OH        -4.9920   72.4930  229.1390 O.3   133  TYR133     -0.2866
    106  N        -15.1750   74.9150  221.5400 N.3   137  ILE137     -0.1245
    107  CA       -16.4130   75.3850  222.1650 C.3   137  ILE137      0.1561
    108  C        -17.0230   76.4470  221.3100 C.2   137  ILE137      0.2260
    109  O        -16.3530   77.4120  220.9860 O.2   137  ILE137     -0.2867
    110  CB       -16.1370   76.0500  223.5170 C.3   137  ILE137      0.0252
    111  CG1      -15.5210   75.0220  224.4510 C.3   137  ILE137      0.0019
    112  CG2      -17.4160   76.5450  224.1730 C.3   137  ILE137      0.0019
    113  CD1      -14.0970   75.3020  224.8070 C.3   137  ILE137      0.0001
    114  N        -19.2210   79.6540  220.4650 N.3   139  LEU139     -0.1245
    115  CA       -19.5000   80.8620  221.2410 C.3   139  LEU139      0.1561
    116  C        -20.9060   81.2520  220.8450 C.2   139  LEU139      0.2260
    117  O        -21.4890   80.7660  219.8460 O.2   139  LEU139     -0.2867
    118  CB       -18.5950   81.9720  220.7160 C.3   139  LEU139      0.0270
    119  CG       -17.0830   81.8360  221.1290 C.3   139  LEU139      0.0019
    120  CD1      -16.3340   83.1770  220.9660 C.3   139  LEU139      0.0001
    121  CD2      -16.7690   81.3800  222.5620 C.3   139  LEU139      0.0001
@<TRIPOS>BOND
     1    70    68    1
     2   117   116    2
     3    25    26    1
     4    68    69    1
     5    68    67    1
     6   114   115    1
     7    27    28    2
     8    27    26    1
     9   118   119    1
    10   118   115    1
    11    26    29    1
    12   116   115    1
    13   120   119    1
    14   109   108    2
    15   119   121    1
    16    67    64    1
    17    50    49    1
    18   108   107    1
    19    74    73    2
    20    73    72    1
    21    33    34    1
    22     1     2    1
    23   106   107    1
    24    49    46    1
    25     4     3    2
    26    36    35    2
    27    71    72    1
    28    71    65   am
    29   107   110    1
    30     3     2    1
    31     2     5    1
    32    29    30    1
    33    64    65    1
    34    64    63    1
    35    34    35    1
    36    34    37    1
    37    35    45   am
    38    65    66    2
    39    45    46    1
    40    30    31    1
    41    30    32    1
    42    46    47    1
    43    63    53   am
    44   110   112    1
    45   110   111    1
    46     5     7    1
    47     5     6    1
    48    37    38    1
    49    21    20    2
    50     8     9    1
    51    97    96    2
    52    54    53    2
    53    39    38   ar
    54    39    41   ar
    55    47    48    2
    56    53    52    1
    57    96    95    1
    58    38    40   ar
    59   111   113    1
    60    10     9    1
    61    10    11    2
    62    41    43   ar
    63    20    19    1
    64     9    12    1
    65    18    19    1
    66    40    42   ar
    67    52    51    1
    68    52    55    1
    69    95    94    1
    70    95    98    1
    71    19    22    1
    72    43    42   ar
    73    43    44    1
    74    12    13    1
    75    98    99    1
    76    55    56    1
    77   100    99   ar
    78   100   102   ar
    79    22    24    1
    80    22    23    1
    81    13    14   ar
    82    13    15   ar
    83    14    16   ar
    84    99   101   ar
    85   102   104   ar
    86    56    58   ar
    87    56    57   ar
    88    58    60   ar
    89    15    17   ar
    90    16    17   ar
    91    57    59   ar
    92   101   103   ar
    93    60    61   ar
    94   104   103   ar
    95   104   105    1
    96    88    87    2
    97    59    61   ar
    98    61    62    1
    99    87    86    1
   100    86    85    1
   101    86    89    1
   102    84    83    2
   103    85    83   am
   104    83    82    1
   105    89    90    1
   106    82    81    1
   107    81    77   am
   108    90    91    1
   109    92    91    2
   110    91    93   am
   111    77    76    1
   112    77    78    2
   113    76    75    1
   114    76    79    1
   115    79    80    1
