@<TRIPOS>MOLECULE
tmp/4twtA00.pdb
 80 76 0 0 0
SMALL
GASTEIGER

@<TRIPOS>ATOM
      1  N        -21.8580   88.2260  220.9120 N.3     4  LYS4       -0.1245
      2  CA       -20.7980   88.6280  221.8700 C.3     4  LYS4        0.1561
      3  C        -19.6380   89.3020  221.1550 C.2     4  LYS4        0.2260
      4  O        -19.1770   88.8300  220.1170 O.2     4  LYS4       -0.2867
      5  CB       -20.1340   87.4390  222.5930 C.3     4  LYS4        0.0271
      6  CG       -20.9220   86.4590  223.4570 C.3     4  LYS4        0.0035
      7  CD       -20.0960   85.1580  223.5670 C.3     4  LYS4        0.0206
      8  CE       -20.0470   84.6070  224.9900 C.3     4  LYS4        0.1093
      9  NZ       -19.5230   83.2180  224.9920 N.3     4  LYS4       -0.1314
     10  N        -12.2030   87.2690  228.3940 N.3    50  LEU50      -0.1245
     11  CA       -10.9860   86.4980  228.3330 C.3    50  LEU50       0.1561
     12  C        -10.0870   87.2070  227.3580 C.2    50  LEU50       0.2260
     13  O        -10.5020   87.5440  226.2740 O.2    50  LEU50      -0.2867
     14  CB       -11.2360   85.0720  227.8450 C.3    50  LEU50       0.0270
     15  CG        -9.9750   84.1990  227.8280 C.3    50  LEU50       0.0019
     16  CD1       -9.7630   83.5140  229.1520 C.3    50  LEU50       0.0001
     17  CD2      -10.0570   83.1530  226.7430 C.3    50  LEU50       0.0001
     18  N         -6.1730   87.0320  225.5520 N.3    52  TYR52      -0.1241
     19  CA        -5.0400   86.1190  225.3080 C.3    52  TYR52       0.1605
     20  C         -4.0750   86.6240  224.2290 C.2    52  TYR52       0.2264
     21  O         -4.4210   87.4530  223.3960 O.2    52  TYR52      -0.2867
     22  CB        -5.5470   84.7170  224.9070 C.3    52  TYR52       0.0534
     23  CG        -6.2890   84.7090  223.6120 C.ar   52  TYR52      -0.0201
     24  CD1       -5.6210   84.5650  222.3970 C.ar   52  TYR52      -0.0009
     25  CD2       -7.6670   84.9180  223.5740 C.ar   52  TYR52      -0.0009
     26  CE1       -6.3160   84.5950  221.1770 C.ar   52  TYR52       0.0417
     27  CE2       -8.3710   84.9560  222.3700 C.ar   52  TYR52       0.0417
     28  CZ        -7.6910   84.7870  221.1750 C.ar   52  TYR52       0.1957
     29  OH        -8.3970   84.8260  219.9990 O.3    52  TYR52      -0.2866
     30  N          2.8800   82.5070  225.9470 N.3   112  TYR112     -0.1227
     31  CA         1.4170   82.6000  225.8640 C.3   112  TYR112      0.1736
     32  C          0.8840   83.1640  227.1540 C.2   112  TYR112      0.2595
     33  O          1.2670   82.7420  228.2500 O.2   112  TYR112     -0.2718
     34  CB         0.7470   81.2140  225.6340 C.3   112  TYR112      0.0548
     35  CG        -0.7400   81.2420  225.2860 C.ar  112  TYR112     -0.0200
     36  CD1       -1.7100   81.2790  226.2750 C.ar  112  TYR112     -0.0009
     37  CD2       -1.1720   81.2580  223.9660 C.ar  112  TYR112     -0.0009
     38  CE1       -3.0670   81.3370  225.9640 C.ar  112  TYR112      0.0417
     39  CE2       -2.5190   81.3000  223.6380 C.ar  112  TYR112      0.0417
     40  CZ        -3.4670   81.3370  224.6390 C.ar  112  TYR112      0.1957
     41  OH        -4.8120   81.3780  224.3080 O.3   112  TYR112     -0.2866
     42  N         -0.0670   84.0660  227.0090 N.am  113  LEU113     -0.1966
     43  CA        -0.6330   84.8190  228.1000 C.3   113  LEU113      0.1728
     44  C         -2.1010   84.7690  227.9630 C.2   113  LEU113      0.2617
     45  O         -2.5990   84.8460  226.8480 O.2   113  LEU113     -0.2715
     46  CB        -0.2400   86.2600  227.9080 C.3   113  LEU113      0.0311
     47  CG         0.8750   86.8450  228.7370 C.3   113  LEU113      0.0022
     48  CD1        2.0590   85.9010  228.8070 C.3   113  LEU113      0.0001
     49  CD2        1.2460   88.1470  228.0530 C.3   113  LEU113      0.0001
     50  N         -2.8070   84.6730  229.0770 N.am  114  GLY114     -0.1940
     51  CA        -4.2580   84.6630  229.0170 C.3   114  GLY114      0.2014
     52  C         -4.8710   84.7860  230.3860 C.2   114  GLY114      0.2639
     53  O         -4.2820   84.3530  231.3770 O.2   114  GLY114     -0.2714
     54  N         -6.0670   85.3550  230.4430 N.am  115  GLY115     -0.1939
     55  CA        -6.7620   85.5050  231.7170 C.3   115  GLY115      0.2014
     56  C         -8.0540   86.2770  231.5890 C.2   115  GLY115      0.2638
     57  O         -8.3720   86.7830  230.5130 O.2   115  GLY115     -0.2714
     58  N         -8.8040   86.3550  232.6850 N.am  116  VAL116     -0.1977
     59  CA       -10.1200   86.9750  232.6480 C.3   116  VAL116      0.1596
     60  C        -10.1140   88.2810  233.3990 C.2   116  VAL116      0.2287
     61  O         -9.6050   88.3680  234.5140 O.2   116  VAL116     -0.2864
     62  CB       -11.1720   86.0780  233.2690 C.3   116  VAL116      0.0276
     63  CG1      -12.5390   86.7210  233.1650 C.3   116  VAL116      0.0022
     64  CG2      -11.1980   84.7490  232.5570 C.3   116  VAL116      0.0022
     65  N        -12.5040   87.7580  224.0630 N.3   148  ILE148     -0.1245
     66  CA       -13.8300   87.1810  223.9650 C.3   148  ILE148      0.1561
     67  C        -14.6490   87.6230  225.1620 C.2   148  ILE148      0.2260
     68  O        -14.2460   87.4050  226.2890 O.2   148  ILE148     -0.2867
     69  CB       -13.7600   85.6710  224.1160 C.3   148  ILE148      0.0252
     70  CG1      -12.7940   85.0320  223.1520 C.3   148  ILE148      0.0019
     71  CG2      -15.1220   85.0270  223.8990 C.3   148  ILE148      0.0019
     72  CD1      -12.1370   83.7910  223.7180 C.3   148  ILE148      0.0001
     73  N        -17.5110   87.3260  227.9400 N.3   150  LEU150     -0.1245
     74  CA       -18.0840   86.1350  228.5750 C.3   150  LEU150      0.1561
     75  C        -19.5290   86.4910  228.8770 C.2   150  LEU150      0.2260
     76  O        -19.9800   87.6560  228.7520 O.2   150  LEU150     -0.2867
     77  CB       -17.3880   86.0710  230.0170 C.3   150  LEU150      0.0270
     78  CG       -15.8840   85.6120  229.9980 C.3   150  LEU150      0.0019
     79  CD1      -15.4230   85.1420  231.3950 C.3   150  LEU150      0.0001
     80  CD2      -15.4940   84.4690  229.0490 C.3   150  LEU150      0.0001
@<TRIPOS>BOND
     1    29    28    1
     2     4     3    2
     3     1     2    1
     4     3     2    1
     5    28    26   ar
     6    28    27   ar
     7    26    24   ar
     8     2     5    1
     9    27    25   ar
    10    24    23   ar
    11     5     6    1
    12    70    72    1
    13    70    69    1
    14    21    20    2
    15     6     7    1
    16     7     8    1
    17    25    23   ar
    18    23    22    1
    19    39    37   ar
    20    39    40   ar
    21    71    69    1
    22    66    65    1
    23    66    69    1
    24    66    67    1
    25    37    35   ar
    26    20    19    1
    27    41    40    1
    28    40    38   ar
    29    22    19    1
    30     8     9    1
    31    67    68    2
    32    35    34    1
    33    35    36   ar
    34    19    18    1
    35    34    31    1
    36    31    30    1
    37    31    32    1
    38    38    36   ar
    39    13    12    2
    40    17    15    1
    41    45    44    2
    42    42    32   am
    43    42    43    1
    44    32    33    2
    45    12    11    1
    46    15    14    1
    47    15    16    1
    48    14    11    1
    49    46    43    1
    50    46    47    1
    51    73    74    1
    52    44    43    1
    53    44    50   am
    54    49    47    1
    55    11    10    1
    56    74    75    1
    57    74    77    1
    58    47    48    1
    59    76    75    2
    60    51    50    1
    61    51    52    1
    62    80    78    1
    63    78    77    1
    64    78    79    1
    65    52    54   am
    66    52    53    2
    67    54    55    1
    68    57    56    2
    69    56    55    1
    70    56    58   am
    71    64    62    1
    72    59    58    1
    73    59    62    1
    74    59    60    1
    75    63    62    1
    76    60    61    2
