@<TRIPOS>MOLECULE
tmp/4twwA00.pdb
 178 174 0 0 0
SMALL
GASTEIGER

@<TRIPOS>ATOM
      1  N          1.9970   25.4210   -4.6930 N.3    25  THR25      -0.1203
      2  CA         1.7220   23.9930   -4.5910 C.3    25  THR25       0.1994
      3  C          1.3540   23.5720   -3.1720 C.2    25  THR25       0.2619
      4  O          2.0930   23.8140   -2.2000 O.2    25  THR25      -0.2717
      5  CB         2.9390   23.1690   -5.0530 C.3    25  THR25       0.1784
      6  OG1        3.2370   23.4840   -6.4060 O.3    25  THR25      -0.2211
      7  CG2        2.6630   21.6740   -4.9840 C.3    25  THR25       0.0376
      8  N          0.2230   22.8750   -3.0590 N.am   26  THR26      -0.1938
      9  CA        -0.2090   22.2660   -1.7980 C.3    26  THR26       0.2028
     10  C         -0.3870   20.7440   -1.9010 C.2    26  THR26       0.2642
     11  O         -0.9760   20.2420   -2.8580 O.2    26  THR26      -0.2714
     12  CB        -1.5110   22.9000   -1.2750 C.3    26  THR26       0.1808
     13  OG1       -1.3010   24.2950   -1.0240 O.3    26  THR26      -0.2208
     14  CG2       -1.9580   22.2200    0.0100 C.3    26  THR26       0.0379
     15  N          0.1270   20.0230   -0.9050 N.am   27  LEU27      -0.1977
     16  CA         0.0260   18.5720   -0.8340 C.3    27  LEU27       0.1596
     17  C          0.0120   18.1980    0.6430 C.2    27  LEU27       0.2287
     18  O         -0.0090   19.0940    1.4720 O.2    27  LEU27      -0.2864
     19  CB         1.1690   17.9040   -1.6170 C.3    27  LEU27       0.0297
     20  CG         2.5980   18.1460   -1.1790 C.3    27  LEU27       0.0022
     21  CD1        2.9760   17.2880   -0.0120 C.3    27  LEU27       0.0001
     22  CD2        3.4960   17.8350   -2.3700 C.3    27  LEU27       0.0001
     23  N          8.7470   16.8140   -4.3500 N.3    41  HIS41      -0.1241
     24  CA         8.3710   17.4810   -5.5600 C.3    41  HIS41       0.1621
     25  C          7.4950   18.7090   -5.3340 C.2    41  HIS41       0.2264
     26  O          7.3310   19.4950   -6.2420 O.2    41  HIS41      -0.2867
     27  CB         7.7600   16.5080   -6.5880 C.3    41  HIS41       0.0745
     28  CG         6.4130   15.9550   -6.2410 C.ar   41  HIS41       0.0817
     29  ND1        5.2670   16.7270   -6.1780 N.ar   41  HIS41      -0.2268
     30  CD2        6.0110   14.6730   -6.0630 C.ar   41  HIS41       0.1154
     31  CE1        4.2280   15.9510   -5.9340 C.ar   41  HIS41       0.1986
     32  NE2        4.6520   14.6980   -5.8490 N.ar   41  HIS41      -0.2212
     33  N          8.7270   22.1440   -6.6260 N.3    44  CYS44      -0.1235
     34  CA         8.9990   22.2340   -8.0860 C.3    44  CYS44       0.1677
     35  C          8.0110   23.1740   -8.7140 C.2    44  CYS44       0.2270
     36  O          6.8310   23.0830   -8.4480 O.2    44  CYS44      -0.2867
     37  CB         8.9090   20.9020   -8.8530 C.3    44  CYS44       0.0956
     38  SG        10.2760   19.7290   -8.5980 S.3    44  CYS44      -0.0801
     39  N          6.4840   24.2510  -12.6430 N.3    46  ALA46      -0.1245
     40  CA         6.2010   23.5570  -13.9200 C.3    46  ALA46       0.1562
     41  C          7.4210   23.3190  -14.8130 C.2    46  ALA46       0.2260
     42  O          7.5700   22.2320  -15.3710 O.2    46  ALA46      -0.2867
     43  CB         5.1630   24.3320  -14.7010 C.3    46  ALA46       0.0290
     44  N         10.0580   20.6260  -13.2250 N.3    49  MET49      -0.1245
     45  CA         9.6490   19.2470  -13.0000 C.3    49  MET49       0.1570
     46  C          9.8700   18.3450  -14.1590 C.2    49  MET49       0.2261
     47  O          9.7770   17.1590  -13.9770 O.2    49  MET49      -0.2867
     48  CB         8.1960   19.1260  -12.5130 C.3    49  MET49       0.0387
     49  CG         7.0890   19.4680  -13.4890 C.3    49  MET49       0.0595
     50  SD         5.4270   19.4550  -12.7140 S.3    49  MET49      -0.1393
     51  CE         5.6050   20.4390  -11.2250 C.3    49  MET49       0.0692
     52  N         17.2600   18.0770   -7.8790 N.3    54  TYR54      -0.1241
     53  CA        16.5430   18.3080   -6.6230 C.3    54  TYR54       0.1605
     54  C         17.4410   18.8620   -5.5770 C.2    54  TYR54       0.2264
     55  O         16.9800   19.6060   -4.7440 O.2    54  TYR54      -0.2867
     56  CB        15.8250   17.0860   -6.0440 C.3    54  TYR54       0.0534
     57  CG        14.4500   16.8770   -6.5970 C.ar   54  TYR54      -0.0201
     58  CD1       13.4060   17.6530   -6.1730 C.ar   54  TYR54      -0.0009
     59  CD2       14.2090   15.9010   -7.5000 C.ar   54  TYR54      -0.0009
     60  CE1       12.1450   17.4690   -6.6670 C.ar   54  TYR54       0.0417
     61  CE2       12.9500   15.7050   -8.0150 C.ar   54  TYR54       0.0417
     62  CZ        11.9160   16.4860   -7.5920 C.ar   54  TYR54       0.1957
     63  OH        10.6530   16.2960   -8.0930 O.3    54  TYR54      -0.2866
     64  N         -6.8990    7.9420   -6.4890 N.3   140  PHE140     -0.1227
     65  CA        -6.3110    9.1800   -6.0200 C.3   140  PHE140      0.1736
     66  C         -6.6680   10.2860   -6.9800 C.2   140  PHE140      0.2595
     67  O         -6.6800   10.0600   -8.1750 O.2   140  PHE140     -0.2718
     68  CB        -4.7830    9.0390   -6.0270 C.3   140  PHE140      0.0547
     69  CG        -4.2460    8.1540   -4.9380 C.ar  140  PHE140     -0.0202
     70  CD1       -4.3270    8.5300   -3.6100 C.ar  140  PHE140     -0.0042
     71  CD2       -3.6440    6.9610   -5.2440 C.ar  140  PHE140     -0.0042
     72  CE1       -3.7870    7.7390   -2.6170 C.ar  140  PHE140     -0.0003
     73  CE2       -3.1420    6.1410   -4.2480 C.ar  140  PHE140     -0.0003
     74  CZ        -3.1980    6.5450   -2.9380 C.ar  140  PHE140     -0.0000
     75  N         -6.9050   11.4870   -6.4820 N.am  141  LEU141     -0.1966
     76  CA        -7.0160   12.6470   -7.3670 C.3   141  LEU141      0.1728
     77  C         -5.8570   13.6010   -7.1330 C.2   141  LEU141      0.2616
     78  O         -5.0350   13.3790   -6.2480 O.2   141  LEU141     -0.2715
     79  CB        -8.3400   13.3650   -7.1030 C.3   141  LEU141      0.0311
     80  CG        -9.6150   12.5110   -7.2410 C.3   141  LEU141      0.0022
     81  CD1      -10.8090   13.3060   -6.7040 C.3   141  LEU141      0.0001
     82  CD2       -9.8480   12.1390   -8.7210 C.3   141  LEU141      0.0001
     83  N         -5.7870   14.6710   -7.9190 N.am  142  ASN142     -0.1958
     84  CA        -4.7360   15.6460   -7.7380 C.3   142  ASN142      0.1819
     85  C         -4.9310   16.3210   -6.3850 C.2   142  ASN142      0.2622
     86  O         -6.0370   16.5420   -5.9270 O.2   142  ASN142     -0.2715
     87  CB        -4.6520   16.6190   -8.9140 C.3   142  ASN142      0.1195
     88  CG        -3.4950   17.6490   -8.7650 C.2   142  ASN142      0.2630
     89  OD1       -2.2940   17.3030   -8.6520 O.2   142  ASN142     -0.2716
     90  ND2       -3.8650   18.9330   -8.7790 N.am  142  ASN142     -0.0877
     91  N         -3.8450   16.5530   -5.6920 N.am  143  GLY143     -0.1940
     92  CA        -3.9010   17.0550   -4.3300 C.3   143  GLY143      0.2014
     93  C         -3.6420   15.9230   -3.3600 C.2   143  GLY143      0.2640
     94  O         -3.3480   16.1720   -2.1820 O.2   143  GLY143     -0.2714
     95  N         -3.7590   14.6690   -3.8240 N.am  144  SER144     -0.1935
     96  CA        -3.6210   13.5250   -2.9120 C.3   144  SER144      0.2055
     97  C         -2.1840   13.1860   -2.5190 C.2   144  SER144      0.2643
     98  O         -1.9810   12.3880   -1.5970 O.2   144  SER144     -0.2714
     99  CB        -4.2780   12.2640   -3.4620 C.3   144  SER144      0.2130
    100  OG        -3.6410   11.8510   -4.6240 O.3   144  SER144     -0.2179
    101  N         -1.2060   13.7800   -3.1810 N.am  145  CYS145     -0.1967
    102  CA         0.1790   13.5340   -2.7910 C.3   145  CYS145      0.1712
    103  C          0.4160   13.6510   -1.2840 C.2   145  CYS145      0.2296
    104  O         -0.1660   14.5330   -0.5890 O.2   145  CYS145     -0.2864
    105  CB         1.0900   14.5010   -3.4850 C.3   145  CYS145      0.0983
    106  SG         1.3210   14.0550   -5.1800 S.3   145  CYS145     -0.0798
    107  N          2.2070    8.6790   -1.1390 N.3   163  HIS163     -0.1226
    108  CA         1.8330    8.7710   -2.5420 C.3   163  HIS163      0.1752
    109  C          2.5110    9.9600   -3.1960 C.2   163  HIS163      0.2596
    110  O          2.5800   11.0370   -2.5840 O.2   163  HIS163     -0.2718
    111  CB         0.3460    8.8490   -2.6630 C.3   163  HIS163      0.0759
    112  CG        -0.1340    8.9720   -4.0720 C.ar  163  HIS163      0.0818
    113  ND1        0.1030    8.0090   -5.0210 N.ar  163  HIS163     -0.2268
    114  CD2       -0.8390    9.9540   -4.6950 C.ar  163  HIS163      0.1154
    115  CE1       -0.4460    8.3750   -6.1700 C.ar  163  HIS163      0.1986
    116  NE2       -1.0200    9.5550   -5.9990 N.ar  163  HIS163     -0.2212
    117  N          3.0440    9.7290   -4.4060 N.am  164  HIS164     -0.1961
    118  CA         3.7780   10.7470   -5.2200 C.3   164  HIS164      0.1787
    119  C          3.1590   11.0420   -6.6240 C.2   164  HIS164      0.2620
    120  O          3.1720   12.1950   -7.0940 O.2   164  HIS164     -0.2715
    121  CB         5.2360   10.3100   -5.4670 C.3   164  HIS164      0.0785
    122  CG         6.1720   10.5150   -4.3110 C.ar  164  HIS164      0.0821
    123  ND1        6.1500    9.7310   -3.1580 N.ar  164  HIS164     -0.2267
    124  CD2        7.2220   11.3530   -4.1670 C.ar  164  HIS164      0.1154
    125  CE1        7.1310   10.0970   -2.3500 C.ar  164  HIS164      0.1986
    126  NE2        7.8010   11.0730   -2.9430 N.ar  164  HIS164     -0.2212
    127  N          2.6320   10.0400   -7.3140 N.am  165  MET165     -0.1963
    128  CA         2.1540   10.2890   -8.6910 C.3   165  MET165      0.1736
    129  C          1.2710    9.1600   -9.2150 C.2   165  MET165      0.2616
    130  O          1.2090    8.0740   -8.6570 O.2   165  MET165     -0.2715
    131  CB         3.3600   10.4810   -9.6300 C.3   165  MET165      0.0427
    132  CG         4.2120    9.1960   -9.7410 C.3   165  MET165      0.0599
    133  SD         5.9200    9.5770  -10.0940 S.3   165  MET165     -0.1393
    134  CE         6.4900    8.1820  -11.0320 C.3   165  MET165      0.0692
    135  N          0.5650    9.4760  -10.2690 N.am  166  GLU166     -0.1977
    136  CA        -0.2520    8.5740  -11.0360 C.3   166  GLU166      0.1602
    137  C          0.4170    8.3860  -12.3960 C.2   166  GLU166      0.2287
    138  O          0.8340    9.3470  -13.0320 O.2   166  GLU166     -0.2864
    139  CB        -1.6570    9.1660  -11.2280 C.3   166  GLU166      0.0415
    140  CG        -2.5240    8.3780  -12.1930 C.3   166  GLU166      0.1163
    141  CD        -4.0220    8.7520  -12.1450 C.2   166  GLU166      0.3649
    142  OE1       -4.6190    9.1010  -13.2260 O.co2 166  GLU166     -0.2457
    143  OE2       -4.6230    8.6940  -11.0490 O.co2 166  GLU166     -0.2457
    144  N         -0.8050    3.9010   -9.5930 N.3   172  HIS172     -0.1241
    145  CA        -0.1400    4.8780   -8.7490 C.3   172  HIS172      0.1621
    146  C          1.2040    4.4240   -8.2570 C.2   172  HIS172      0.2264
    147  O          1.4730    3.2350   -8.0600 O.2   172  HIS172     -0.2867
    148  CB        -1.0520    5.0860   -7.5570 C.3   172  HIS172      0.0745
    149  CG        -2.4210    5.4710   -7.9700 C.ar  172  HIS172      0.0817
    150  ND1       -2.6960    6.6570   -8.6260 N.ar  172  HIS172     -0.2268
    151  CD2       -3.5750    4.7920   -7.9250 C.ar  172  HIS172      0.1154
    152  CE1       -3.9750    6.6920   -8.9490 C.ar  172  HIS172      0.1986
    153  NE2       -4.5340    5.5770   -8.5220 N.ar  172  HIS172     -0.2212
    154  N         10.6670   10.7510   -9.6650 N.3   187  ASP187     -0.1225
    155  CA         9.8010   11.9260   -9.4020 C.3   187  ASP187      0.1805
    156  C         10.0890   13.0920  -10.3340 C.2   187  ASP187      0.2598
    157  O         10.6970   14.1110   -9.9770 O.2   187  ASP187     -0.2718
    158  CB         9.7750   12.3740   -7.9000 C.3   187  ASP187      0.1424
    159  CG        11.1270   12.4390   -7.2410 C.2   187  ASP187      0.3668
    160  OD1       12.2110   12.1410   -7.8340 O.co2 187  ASP187     -0.2456
    161  OD2       11.1100   12.8210   -6.0590 O.co2 187  ASP187     -0.2456
    162  N          9.7240   12.8600  -11.5870 N.am  188  ILE188     -0.1966
    163  CA         9.7270   13.8750  -12.6150 C.3   188  ILE188      0.1727
    164  C          8.4710   13.6610  -13.4380 C.2   188  ILE188      0.2616
    165  O          8.0690   12.5260  -13.6900 O.2   188  ILE188     -0.2715
    166  CB        10.9620   13.7590  -13.5250 C.3   188  ILE188      0.0290
    167  CG1       10.9510   12.4220  -14.2710 C.3   188  ILE188      0.0022
    168  CG2       12.2390   13.9110  -12.7130 C.3   188  ILE188      0.0023
    169  CD1       12.1340   12.2280  -15.1930 C.3   188  ILE188      0.0001
    170  N          7.8560   14.7540  -13.8640 N.am  189  GLN189     -0.1977
    171  CA         6.6950   14.6790  -14.7510 C.3   189  GLN189      0.1601
    172  C          7.1030   14.2770  -16.1640 C.2   189  GLN189      0.2287
    173  O          7.3230   15.1290  -17.0180 O.2   189  GLN189     -0.2864
    174  CB         5.9760   16.0150  -14.7900 C.3   189  GLN189      0.0394
    175  CG         4.5970   15.9340  -15.4470 C.3   189  GLN189      0.0908
    176  CD         4.0620   17.2990  -15.8680 C.2   189  GLN189      0.2608
    177  OE1        2.8500   17.4840  -16.0170 O.2   189  GLN189     -0.2717
    178  NE2        4.9670   18.2750  -16.0560 N.am  189  GLN189     -0.0878
@<TRIPOS>BOND
     1   173   172    2
     2   172   171    1
     3   178   176   am
     4   177   176    2
     5   176   175    1
     6   175   174    1
     7    42    41    2
     8   169   167    1
     9    41    40    1
    10   174   171    1
    11   171   170    1
    12    43    40    1
    13   167   166    1
    14    46    47    2
    15    46    45    1
    16    40    39    1
    17   170   164   am
    18   165   164    2
    19   166   168    1
    20   166   163    1
    21    49    50    1
    22    49    48    1
    23   164   163    1
    24   142   141   ar
    25    44    45    1
    26   138   137    2
    27    45    48    1
    28    50    51    1
    29   163   162    1
    30   137   136    1
    31   140   141    1
    32   140   139    1
    33   141   143   ar
    34   162   156   am
    35   139   136    1
    36   136   135    1
    37   134   133    1
    38   156   157    2
    39   156   155    1
    40   135   129   am
    41   133   132    1
    42   132   131    1
    43   154   155    1
    44   131   128    1
    45   144   145    1
    46   155   158    1
    47   129   128    1
    48   129   130    2
    49   152   150   ar
    50   152   153   ar
    51    87    88    1
    52    87    84    1
    53    37    38    1
    54    37    34    1
    55    90    88   am
    56    88    89    2
    57   145   146    1
    58   145   148    1
    59    82    80    1
    60    35    36    2
    61    35    34    1
    62   128   127    1
    63   150   149   ar
    64   153   151   ar
    65   146   147    2
    66    67    66    2
    67    63    62    1
    68    34    33    1
    69    61    62   ar
    70    61    59   ar
    71   149   151   ar
    72   149   148    1
    73    83    84    1
    74    83    77   am
    75   158   159    1
    76    52    53    1
    77   160   159   ar
    78    84    85    1
    79    62    60   ar
    80    59    57   ar
    81    76    77    1
    82    76    79    1
    83    76    75    1
    84   127   119   am
    85   159   161   ar
    86    80    79    1
    87    80    81    1
    88    77    78    2
    89   120   119    2
    90    66    75   am
    91    66    65    1
    92    60    58   ar
    93   119   118    1
    94    53    56    1
    95    53    54    1
    96    57    58   ar
    97    57    56    1
    98    27    28    1
    99    27    24    1
   100    64    65    1
   101     6     5    1
   102    85    86    2
   103    85    91   am
   104    26    25    2
   105    28    29   ar
   106    28    30   ar
   107    29    31   ar
   108   115   116   ar
   109   115   113   ar
   110    30    32   ar
   111    68    65    1
   112    68    69    1
   113   116   114   ar
   114    31    32   ar
   115    91    92    1
   116    54    55    2
   117    24    25    1
   118    24    23    1
   119   121   118    1
   120   121   122    1
   121    71    69   ar
   122    71    73   ar
   123   118   117    1
   124   106   105    1
   125     5     7    1
   126     5     2    1
   127   113   112   ar
   128    69    70   ar
   129   114   112   ar
   130     1     2    1
   131   100    99    1
   132     2     3    1
   133   117   109   am
   134    92    93    1
   135   122   124   ar
   136   122   123   ar
   137    73    74   ar
   138   124   126   ar
   139   112   111    1
   140    95    93   am
   141    95    96    1
   142    70    72   ar
   143   105   102    1
   144    99    96    1
   145    93    94    2
   146   109   110    2
   147   109   108    1
   148   101   102    1
   149   101    97   am
   150     3     8   am
   151     3     4    2
   152   123   125   ar
   153     8     9    1
   154   126   125   ar
   155    74    72   ar
   156    96    97    1
   157    11    10    2
   158   102   103    1
   159   111   108    1
   160   108   107    1
   161    97    98    2
   162    22    20    1
   163    10     9    1
   164    10    15   am
   165     9    12    1
   166    19    20    1
   167    19    16    1
   168   103   104    2
   169    12    13    1
   170    12    14    1
   171    20    21    1
   172    15    16    1
   173    16    17    1
   174    17    18    2
