@<TRIPOS>MOLECULE
tmp/4twyA00.pdb
 182 179 0 0 0
SMALL
GASTEIGER

@<TRIPOS>ATOM
      1  N        -30.0230  -53.7500   -1.4860 N.3    24  THR24      -0.1203
      2  CA       -29.4490  -53.1060   -2.6750 C.3    24  THR24       0.1994
      3  C        -28.2810  -52.1380   -2.3000 C.2    24  THR24       0.2619
      4  O        -27.8640  -51.3170   -3.1410 O.2    24  THR24      -0.2717
      5  CB       -30.5010  -52.2930   -3.4540 C.3    24  THR24       0.1784
      6  OG1      -30.8710  -51.1540   -2.7020 O.3    24  THR24      -0.2211
      7  CG2      -31.7650  -53.1290   -3.7180 C.3    24  THR24       0.0376
      8  N        -27.8250  -52.2000   -1.0470 N.am   25  THR25      -0.1938
      9  CA       -26.7330  -51.2690   -0.5170 C.3    25  THR25       0.2028
     10  C        -25.4800  -52.1000   -0.5090 C.2    25  THR25       0.2643
     11  O        -25.4970  -53.2260   -0.0360 O.2    25  THR25      -0.2714
     12  CB       -26.9880  -50.7250    0.9110 C.3    25  THR25       0.1808
     13  OG1      -28.0790  -49.7930    0.8940 O.3    25  THR25      -0.2208
     14  CG2      -25.7300  -49.8980    1.5130 C.3    25  THR25       0.0379
     15  N        -24.4120  -51.5490   -1.0870 N.am   26  THR26      -0.1936
     16  CA       -23.1280  -52.2160   -1.0810 C.3    26  THR26       0.2028
     17  C        -22.1510  -51.1790   -0.5050 C.2    26  THR26       0.2642
     18  O        -22.3230  -49.9780   -0.7340 O.2    26  THR26      -0.2714
     19  CB       -22.7390  -52.7230   -2.4960 C.3    26  THR26       0.1808
     20  OG1      -23.4330  -53.9740   -2.7300 O.3    26  THR26      -0.2208
     21  CG2      -21.3050  -53.0880   -2.5800 C.3    26  THR26       0.0379
     22  N        -21.2050  -51.6730    0.2940 N.am   27  LEU27      -0.1977
     23  CA       -20.1680  -50.9080    0.9610 C.3    27  LEU27       0.1596
     24  C        -19.0630  -51.8120    1.4980 C.2    27  LEU27       0.2287
     25  O        -19.2390  -53.0300    1.5410 O.2    27  LEU27      -0.2864
     26  CB       -20.7290  -50.0210    2.0750 C.3    27  LEU27       0.0297
     27  CG       -21.3900  -50.7330    3.2580 C.3    27  LEU27       0.0022
     28  CD1      -20.3440  -51.2530    4.2330 C.3    27  LEU27       0.0001
     29  CD2      -22.3670  -49.8050    3.9630 C.3    27  LEU27       0.0001
     30  N        -25.1450  -49.0000    8.9580 N.3    41  HIS41      -0.1241
     31  CA       -26.0980  -48.3570    8.1120 C.3    41  HIS41       0.1621
     32  C        -26.2310  -49.1070    6.7770 C.2    41  HIS41       0.2264
     33  O        -26.9330  -48.6710    5.9270 O.2    41  HIS41      -0.2867
     34  CB       -25.9010  -46.8520    7.9760 C.3    41  HIS41       0.0745
     35  CG       -24.7810  -46.4230    7.0760 C.ar   41  HIS41       0.0817
     36  ND1      -24.7280  -46.7360    5.7430 N.ar   41  HIS41      -0.2268
     37  CD2      -23.7190  -45.6220    7.3080 C.ar   41  HIS41       0.1154
     38  CE1      -23.6720  -46.1710    5.1980 C.ar   41  HIS41       0.1986
     39  NE2      -23.0430  -45.4900    6.1270 N.ar   41  HIS41      -0.2212
     40  N        -29.8540  -50.0700    6.1000 N.3    44  CYS44      -0.1221
     41  CA       -30.8790  -49.0230    5.8620 C.3    44  CYS44       0.1808
     42  C        -31.2400  -48.8210    4.3740 C.2    44  CYS44       0.2602
     43  O        -30.4270  -49.0280    3.5030 O.2    44  CYS44      -0.2717
     44  CB       -30.3960  -47.6730    6.3930 C.3    44  CYS44       0.0970
     45  SG       -30.3560  -47.4840    8.1860 S.3    44  CYS44      -0.0800
     46  N        -32.4690  -48.3940    4.1130 N.am   45  THR45      -0.1939
     47  CA       -32.9080  -48.0520    2.7530 C.3    45  THR45       0.2028
     48  C        -33.1260  -46.5510    2.7200 C.2    45  THR45       0.2642
     49  O        -33.6530  -46.0060    3.6830 O.2    45  THR45      -0.2714
     50  CB       -34.2220  -48.7660    2.4020 C.3    45  THR45       0.1808
     51  OG1      -35.2180  -48.4500    3.3850 O.3    45  THR45      -0.2208
     52  CG2      -34.0280  -50.2780    2.3750 C.3    45  THR45       0.0379
     53  N        -32.9510  -45.8740    1.6040 N.am   46  ALA46      -0.1977
     54  CA       -32.7200  -44.4470    1.6920 C.3    46  ALA46       0.1597
     55  C        -33.7950  -43.8590    2.6090 C.2    46  ALA46       0.2287
     56  O        -33.5460  -42.8800    3.3140 O.2    46  ALA46      -0.2864
     57  CB       -32.7810  -43.8090    0.3150 C.3    46  ALA46       0.0319
     58  N        -33.4200  -44.3840    6.9000 N.3    49  MET49      -0.1245
     59  CA       -32.3490  -43.6390    7.5390 C.3    49  MET49       0.1570
     60  C        -32.7870  -42.2790    8.0700 C.2    49  MET49       0.2261
     61  O        -32.3640  -41.8830    9.1550 O.2    49  MET49      -0.2867
     62  CB       -31.1720  -43.4670    6.5750 C.3    49  MET49       0.0387
     63  CG       -31.4670  -42.5600    5.3920 C.3    49  MET49       0.0595
     64  SD       -30.2140  -42.6730    4.1000 S.3    49  MET49      -0.1393
     65  CE       -30.8570  -44.0310    3.1240 C.3    49  MET49       0.0692
     66  N        -32.0080  -48.7240   14.6920 N.3    54  TYR54      -0.1241
     67  CA       -31.1850  -49.8280   14.2170 C.3    54  TYR54       0.1605
     68  C        -31.4700  -51.1140   14.9210 C.2    54  TYR54       0.2264
     69  O        -31.3040  -52.2010   14.3640 O.2    54  TYR54      -0.2867
     70  CB       -29.6820  -49.4920   14.3320 C.3    54  TYR54       0.0534
     71  CG       -29.2470  -48.4900   13.3030 C.ar   54  TYR54      -0.0201
     72  CD1      -29.0050  -48.8830   11.9760 C.ar   54  TYR54      -0.0009
     73  CD2      -29.0850  -47.1730   13.6280 C.ar   54  TYR54      -0.0009
     74  CE1      -28.6330  -47.9580   11.0070 C.ar   54  TYR54       0.0417
     75  CE2      -28.6880  -46.2530   12.6670 C.ar   54  TYR54       0.0417
     76  CZ       -28.4310  -46.6640   11.3650 C.ar   54  TYR54       0.1957
     77  OH       -28.0760  -45.7400   10.3910 O.3    54  TYR54      -0.2866
     78  N        -13.5050  -38.8520   -0.7220 N.3   140  PHE140     -0.1227
     79  CA       -14.3770  -40.0430   -0.6400 C.3   140  PHE140      0.1736
     80  C        -15.5660  -39.7620   -1.5610 C.2   140  PHE140      0.2595
     81  O        -16.0700  -38.5990   -1.6030 O.2   140  PHE140     -0.2718
     82  CB       -14.8820  -40.1960    0.7690 C.3   140  PHE140      0.0547
     83  CG       -13.9400  -40.8650    1.7400 C.ar  140  PHE140     -0.0202
     84  CD1      -13.3110  -42.0580    1.4520 C.ar  140  PHE140     -0.0042
     85  CD2      -13.7580  -40.3080    3.0150 C.ar  140  PHE140     -0.0042
     86  CE1      -12.4990  -42.6700    2.4240 C.ar  140  PHE140     -0.0003
     87  CE2      -12.9210  -40.8890    3.9270 C.ar  140  PHE140     -0.0003
     88  CZ       -12.2950  -42.0570    3.6360 C.ar  140  PHE140     -0.0000
     89  N        -16.0130  -40.7900   -2.2610 N.am  141  LEU141     -0.1966
     90  CA       -17.2240  -40.6900   -3.1110 C.3   141  LEU141      0.1728
     91  C        -18.2470  -41.6720   -2.6070 C.2   141  LEU141      0.2616
     92  O        -17.9290  -42.4590   -1.7020 O.2   141  LEU141     -0.2715
     93  CB       -16.8270  -41.0890   -4.5390 C.3   141  LEU141      0.0311
     94  CG       -15.8040  -40.1830   -5.2100 C.3   141  LEU141      0.0022
     95  CD1      -15.5390  -40.7070   -6.6310 C.3   141  LEU141      0.0001
     96  CD2      -16.2530  -38.7430   -5.3380 C.3   141  LEU141      0.0001
     97  N        -19.4770  -41.7170   -3.1940 N.am  142  ASN142     -0.1958
     98  CA       -20.4590  -42.7020   -2.7280 C.3   142  ASN142      0.1819
     99  C        -19.8720  -44.0800   -2.9400 C.2   142  ASN142      0.2622
    100  O        -19.1780  -44.2730   -3.9270 O.2   142  ASN142     -0.2715
    101  CB       -21.7990  -42.5550   -3.4670 C.3   142  ASN142      0.1195
    102  CG       -22.9860  -43.1610   -2.6800 C.2   142  ASN142      0.2630
    103  OD1      -22.8270  -43.8420   -1.6610 O.2   142  ASN142     -0.2716
    104  ND2      -24.2020  -42.8990   -3.1760 N.am  142  ASN142     -0.0877
    105  N        -20.0860  -44.9510   -1.9660 N.am  143  GLY143     -0.1940
    106  CA       -19.5840  -46.3200   -1.9230 C.3   143  GLY143      0.2014
    107  C        -18.3220  -46.4880   -1.0910 C.2   143  GLY143      0.2640
    108  O        -17.8360  -47.5620   -0.9260 O.2   143  GLY143     -0.2714
    109  N        -17.7710  -45.3930   -0.6240 N.am  144  SER144     -0.1935
    110  CA       -16.5550  -45.5080    0.1430 C.3   144  SER144      0.2055
    111  C        -16.7640  -45.8760    1.5870 C.2   144  SER144      0.2643
    112  O        -15.7840  -46.1380    2.3060 O.2   144  SER144     -0.2714
    113  CB       -15.8360  -44.1970    0.1040 C.3   144  SER144      0.2130
    114  OG       -16.5900  -43.1850    0.6690 O.3   144  SER144     -0.2179
    115  N        -17.9900  -45.9860    2.0430 N.am  145  CYS145     -0.1967
    116  CA       -18.2200  -46.3400    3.4240 C.3   145  CYS145      0.1712
    117  C        -17.5340  -47.6430    3.8010 C.2   145  CYS145      0.2296
    118  O        -17.4570  -48.5190    3.0240 O.2   145  CYS145     -0.2864
    119  CB       -19.7130  -46.3660    3.7380 C.3   145  CYS145      0.0983
    120  SG       -20.5100  -44.7770    3.6670 S.3   145  CYS145     -0.0798
    121  N        -15.0070  -45.3110    7.7700 N.3   163  HIS163     -0.1226
    122  CA       -15.7530  -44.2150    7.1430 C.3   163  HIS163      0.1752
    123  C        -17.2340  -44.5810    7.1830 C.2   163  HIS163      0.2596
    124  O        -17.5750  -45.7040    6.8070 O.2   163  HIS163     -0.2718
    125  CB       -15.3300  -43.9740    5.7340 C.3   163  HIS163      0.0759
    126  CG       -15.9470  -42.7500    5.1280 C.ar  163  HIS163      0.0818
    127  ND1      -15.9300  -41.5230    5.7490 N.ar  163  HIS163     -0.2268
    128  CD2      -16.5600  -42.5620    3.9390 C.ar  163  HIS163      0.1154
    129  CE1      -16.5920  -40.6530    5.0130 C.ar  163  HIS163      0.1986
    130  NE2      -16.9310  -41.2430    3.8800 N.ar  163  HIS163     -0.2212
    131  N        -18.0370  -43.5910    7.5290 N.am  164  HIS164     -0.1961
    132  CA       -19.5530  -43.7070    7.6120 C.3   164  HIS164      0.1787
    133  C        -20.2290  -42.6170    6.7760 C.2   164  HIS164      0.2620
    134  O        -21.2100  -42.8980    6.1150 O.2   164  HIS164     -0.2715
    135  CB       -20.0980  -43.6290    9.0620 C.3   164  HIS164      0.0785
    136  CG       -19.9620  -44.8790    9.8710 C.ar  164  HIS164      0.0821
    137  ND1      -18.7470  -45.3700   10.3020 N.ar  164  HIS164     -0.2267
    138  CD2      -20.9060  -45.7140   10.3890 C.ar  164  HIS164      0.1154
    139  CE1      -18.9340  -46.4700   11.0120 C.ar  164  HIS164      0.1986
    140  NE2      -20.2440  -46.7080   11.0640 N.ar  164  HIS164     -0.2212
    141  N        -19.7650  -41.3730    6.7520 N.am  165  MET165     -0.1963
    142  CA       -20.5020  -40.3490    5.9780 C.3   165  MET165      0.1736
    143  C        -19.7690  -39.0470    5.6860 C.2   165  MET165      0.2616
    144  O        -18.7500  -38.7110    6.3520 O.2   165  MET165     -0.2715
    145  CB       -21.7360  -39.9370    6.7460 C.3   165  MET165      0.0427
    146  CG       -21.3350  -39.4080    8.1250 C.3   165  MET165      0.0599
    147  SD       -22.8000  -39.4160    9.2220 S.3   165  MET165     -0.1393
    148  CE       -23.3420  -37.7690    8.8150 C.3   165  MET165      0.0692
    149  N        -20.3100  -38.3160    4.7060 N.am  166  GLU166     -0.1977
    150  CA       -19.8620  -36.9890    4.3570 C.3   166  GLU166      0.1602
    151  C        -20.8320  -35.9380    4.8730 C.2   166  GLU166      0.2287
    152  O        -22.0500  -36.1790    4.7700 O.2   166  GLU166     -0.2864
    153  CB       -19.7280  -36.8660    2.8310 C.3   166  GLU166      0.0415
    154  CG       -19.2050  -35.4850    2.4250 C.3   166  GLU166      0.1163
    155  CD       -18.7820  -35.4010    0.9510 C.2   166  GLU166      0.3649
    156  OE1      -19.4610  -34.6540    0.2430 O.co2 166  GLU166     -0.2457
    157  OE2      -17.7870  -36.0420    0.4810 O.co2 166  GLU166     -0.2457
    158  N        -25.2670  -41.7620   12.8890 N.3   187  ASP187     -0.1225
    159  CA       -25.4850  -42.3330   11.5660 C.3   187  ASP187      0.1805
    160  C        -26.9610  -42.2520   11.2160 C.2   187  ASP187      0.2598
    161  O        -27.6160  -43.2890   11.1570 O.2   187  ASP187     -0.2718
    162  CB       -24.9020  -43.7360   11.4320 C.3   187  ASP187      0.1424
    163  CG       -25.2680  -44.6730   12.5460 C.2   187  ASP187      0.3668
    164  OD1      -25.8850  -44.2320   13.5520 O.co2 187  ASP187     -0.2456
    165  OD2      -24.9120  -45.8790   12.4510 O.co2 187  ASP187     -0.2456
    166  N        -27.4260  -41.0200   11.0350 N.am  188  ILE188     -0.1966
    167  CA       -28.7320  -40.6440   10.5410 C.3   188  ILE188      0.1727
    168  C        -28.5990  -39.5750    9.4390 C.2   188  ILE188      0.2616
    169  O        -27.8590  -38.5980    9.5900 O.2   188  ILE188     -0.2715
    170  CB       -29.5720  -40.0090   11.6880 C.3   188  ILE188      0.0290
    171  CG1      -29.7490  -41.0120   12.8320 C.3   188  ILE188      0.0022
    172  CG2      -30.9260  -39.5290   11.1770 C.3   188  ILE188      0.0023
    173  CD1      -30.5050  -40.4590   14.0150 C.3   188  ILE188      0.0001
    174  N        -29.3540  -39.6940    8.3480 N.am  189  GLN189     -0.1977
    175  CA       -29.2830  -38.6490    7.2960 C.3   189  GLN189      0.1601
    176  C        -30.1320  -37.4270    7.6490 C.2   189  GLN189      0.2287
    177  O        -31.1910  -37.1900    7.0680 O.2   189  GLN189     -0.2864
    178  CB       -29.6420  -39.1690    5.9070 C.3   189  GLN189      0.0394
    179  CG       -29.4320  -38.0960    4.8400 C.3   189  GLN189      0.0908
    180  CD       -29.3440  -38.6450    3.4330 C.2   189  GLN189      0.2608
    181  OE1      -28.3790  -38.3850    2.7210 O.2   189  GLN189     -0.2717
    182  NE2      -30.3630  -39.3920    3.0150 N.am  189  GLN189     -0.0878
@<TRIPOS>BOND
     1    95    94    1
     2    96    94    1
     3    94    93    1
     4    93    90    1
     5   100    99    2
     6     7     5    1
     7   101    98    1
     8   101   102    1
     9     5     6    1
    10     5     2    1
    11    97    98    1
    12    97    91   am
    13   104   102   am
    14     4     3    2
    15    90    91    1
    16    90    89    1
    17    99    98    1
    18    99   105   am
    19    20    19    1
    20   102   103    2
    21     2     3    1
    22     2     1    1
    23    91    92    2
    24    21    19    1
    25    19    16    1
    26     3     8   am
    27    89    80   am
    28   105   106    1
    29   106   107    1
    30    81    80    2
    31    80    79    1
    32   107   108    2
    33   107   109   am
    34    15    16    1
    35    15    10   am
    36    16    17    1
    37     8     9    1
    38    18    17    2
    39    78    79    1
    40    79    82    1
    41   109   110    1
    42     9    10    1
    43     9    12    1
    44    10    11    2
    45    17    22   am
    46   113   110    1
    47   113   114    1
    48   110   111    1
    49   156   155   ar
    50    22    23    1
    51    57    54    1
    52   157   155   ar
    53    82    83    1
    54    13    12    1
    55    12    14    1
    56   155   154    1
    57    23    24    1
    58    23    26    1
    59    84    83   ar
    60    84    86   ar
    61    24    25    2
    62   111   115   am
    63   111   112    2
    64    53    54    1
    65    53    48   am
    66    54    55    1
    67    83    85   ar
    68   115   116    1
    69    26    27    1
    70    52    50    1
    71    50    47    1
    72    50    51    1
    73    86    88   ar
    74   154   153    1
    75    55    56    2
    76    48    47    1
    77    48    49    2
    78   181   180    2
    79    47    46    1
    80   153   150    1
    81    85    87   ar
    82   182   180   am
    83   118   117    2
    84    65    64    1
    85    27    29    1
    86    27    28    1
    87   116   119    1
    88   116   117    1
    89   180   179    1
    90    43    42    2
    91    88    87   ar
    92   120   119    1
    93   130   128   ar
    94   130   129   ar
    95   128   126   ar
    96    64    63    1
    97    46    42   am
    98   150   149    1
    99   150   151    1
   100    42    41    1
   101   149   143   am
   102   152   151    2
   103   179   178    1
   104   129   127   ar
   105   126   125    1
   106   126   127   ar
   107    38    36   ar
   108    38    39   ar
   109    63    62    1
   110   143   142    1
   111   143   144    2
   112   125   122    1
   113    36    35   ar
   114    41    40    1
   115    41    44    1
   116   178   175    1
   117    33    32    2
   118   142   145    1
   119   142   141    1
   120   134   133    2
   121    39    37   ar
   122    44    45    1
   123    62    59    1
   124   145   146    1
   125   141   133   am
   126   133   132    1
   127    32    31    1
   128   124   123    2
   129    58    59    1
   130   177   176    2
   131    35    37   ar
   132    35    34    1
   133   122   123    1
   134   122   121    1
   135   123   131   am
   136   175   176    1
   137   175   174    1
   138   131   132    1
   139    59    60    1
   140   132   135    1
   141    34    31    1
   142    60    61    2
   143    31    30    1
   144   146   147    1
   145   174   168   am
   146   148   147    1
   147   135   136    1
   148   168   169    2
   149   168   167    1
   150   136   137   ar
   151   136   138   ar
   152   137   139   ar
   153   138   140   ar
   154    77    76    1
   155   167   166    1
   156   167   170    1
   157    74    76   ar
   158    74    72   ar
   159   139   140   ar
   160   166   160   am
   161   161   160    2
   162   172   170    1
   163   160   159    1
   164    76    75   ar
   165   162   159    1
   166   162   163    1
   167   159   158    1
   168   170   171    1
   169    72    71   ar
   170   165   163   ar
   171   163   164   ar
   172    75    73   ar
   173   171   173    1
   174    71    73   ar
   175    71    70    1
   176    67    70    1
   177    67    66    1
   178    67    68    1
   179    69    68    2
