@<TRIPOS>MOLECULE
tmp/4tx0A00.pdb
 157 153 0 0 0
SMALL
GASTEIGER

@<TRIPOS>ATOM
      1  N          2.4030  -18.1060  -11.3010 N.3    45  TYR45      -0.1241
      2  CA         2.4790  -16.6730  -11.3890 C.3    45  TYR45       0.1605
      3  C          1.4570  -16.1180  -12.3720 C.2    45  TYR45       0.2264
      4  O          0.9400  -16.8080  -13.2550 O.2    45  TYR45      -0.2867
      5  CB         3.8770  -16.2070  -11.8220 C.3    45  TYR45       0.0534
      6  CG         4.1810  -16.5210  -13.2670 C.ar   45  TYR45      -0.0201
      7  CD1        4.0270  -15.5860  -14.2640 C.ar   45  TYR45      -0.0009
      8  CD2        4.6060  -17.7790  -13.6620 C.ar   45  TYR45      -0.0009
      9  CE1        4.2740  -15.8850  -15.5930 C.ar   45  TYR45       0.0417
     10  CE2        4.8690  -18.0810  -14.9940 C.ar   45  TYR45       0.0417
     11  CZ         4.6690  -17.1380  -15.9600 C.ar   45  TYR45       0.1957
     12  OH         4.9350  -17.5130  -17.2510 O.3    45  TYR45      -0.2866
     13  N         -0.5820  -10.1640  -19.1320 N.3    55  PHE55      -0.1227
     14  CA         0.1420  -10.6890  -20.2930 C.3    55  PHE55       0.1736
     15  C          0.4960  -12.1650  -20.2000 C.2    55  PHE55       0.2595
     16  O          0.8470  -12.7640  -21.2140 O.2    55  PHE55      -0.2718
     17  CB         1.3620   -9.8730  -20.6580 C.3    55  PHE55       0.0547
     18  CG         2.5000   -9.9470  -19.6450 C.ar   55  PHE55      -0.0202
     19  CD1        3.4590  -10.9330  -19.7130 C.ar   55  PHE55      -0.0042
     20  CD2        2.5980   -9.0550  -18.5990 C.ar   55  PHE55      -0.0042
     21  CE1        4.4490  -11.0050  -18.7740 C.ar   55  PHE55      -0.0003
     22  CE2        3.6170   -9.1010  -17.6780 C.ar   55  PHE55      -0.0003
     23  CZ         4.5520  -10.0790  -17.7980 C.ar   55  PHE55      -0.0000
     24  N          0.4570  -12.7510  -18.9960 N.am   56  ASP56      -0.1974
     25  CA         0.7950  -14.1770  -18.8790 C.3    56  ASP56       0.1709
     26  C          0.2620  -14.6920  -17.5620 C.2    56  ASP56       0.2293
     27  O          0.0940  -13.9410  -16.5950 O.2    56  ASP56      -0.2864
     28  CB         2.2890  -14.3450  -18.9440 C.3    56  ASP56       0.1436
     29  CG         2.7360  -15.7800  -19.1810 C.2    56  ASP56       0.3671
     30  OD1        1.9540  -16.5610  -19.6260 O.co2  56  ASP56      -0.2456
     31  OD2        3.9350  -16.0700  -18.9960 O.co2  56  ASP56      -0.2456
     32  N         -2.4300  -22.2200  -17.6970 N.3    61  ARG61      -0.1245
     33  CA        -1.8530  -23.3680  -18.3670 C.3    61  ARG61       0.1563
     34  C         -2.0260  -24.6690  -17.5850 C.2    61  ARG61       0.2260
     35  O         -1.6590  -25.7230  -18.0580 O.2    61  ARG61      -0.2867
     36  CB        -0.3530  -23.1350  -18.6500 C.3    61  ARG61       0.0307
     37  CG        -0.0580  -22.0970  -19.7200 C.3    61  ARG61       0.0489
     38  CD         1.4030  -22.0440  -20.0900 C.3    61  ARG61       0.2205
     39  NE         2.2500  -21.5150  -19.0360 N.pl3  61  ARG61      -0.0865
     40  CZ         2.6390  -20.3110  -18.8260 C.cat  61  ARG61       0.5346
     41  NH1        2.2160  -19.4060  -19.6950 N.pl3  61  ARG61       0.1354
     42  NH2        3.4100  -20.0000  -17.8090 N.pl3  61  ARG61       0.1354
     43  N          5.5300  -23.0800  -13.6220 N.3    65  PHE65      -0.1241
     44  CA         6.7620  -22.7370  -14.3120 C.3    65  PHE65       0.1605
     45  C          7.9100  -23.1970  -13.4340 C.2    65  PHE65       0.2264
     46  O          7.9230  -22.9540  -12.2130 O.2    65  PHE65      -0.2867
     47  CB         6.8010  -21.2480  -14.5750 C.3    65  PHE65       0.0534
     48  CG         8.0580  -20.8040  -15.2340 C.ar   65  PHE65      -0.0203
     49  CD1        8.3220  -21.0900  -16.5280 C.ar   65  PHE65      -0.0042
     50  CD2        8.9700  -20.0370  -14.5820 C.ar   65  PHE65      -0.0042
     51  CE1        9.4800  -20.6670  -17.1420 C.ar   65  PHE65      -0.0003
     52  CE2       10.1220  -19.6180  -15.1620 C.ar   65  PHE65      -0.0003
     53  CZ        10.4350  -19.9930  -16.4040 C.ar   65  PHE65      -0.0000
     54  N         20.3010  -17.1770  -14.3150 N.3    72  GLY72      -0.1210
     55  CA        20.0130  -16.3590  -15.4740 C.3    72  GLY72       0.1956
     56  C         19.0800  -16.9840  -16.4790 C.2    72  GLY72       0.2612
     57  O         19.0290  -16.5730  -17.6510 O.2    72  GLY72      -0.2717
     58  N         18.2840  -17.9520  -16.0120 N.am   73  GLN73      -0.1965
     59  CA        17.2860  -18.5900  -16.8770 C.3    73  GLN73       0.1733
     60  C         16.0140  -17.7420  -16.9900 C.2    73  GLN73       0.2616
     61  O         15.1520  -18.0010  -17.8300 O.2    73  GLN73      -0.2715
     62  CB        16.9070  -19.9840  -16.3940 C.3    73  GLN73       0.0408
     63  CG        18.0760  -20.9490  -16.4140 C.3    73  GLN73       0.0908
     64  CD        17.7410  -22.3250  -15.9510 C.2    73  GLN73       0.2608
     65  OE1       16.6350  -22.6080  -15.5120 O.2    73  GLN73      -0.2717
     66  NE2       18.6950  -23.2240  -16.1040 N.am   73  GLN73      -0.0878
     67  N         15.8930  -16.7530  -16.0990 N.am   74  VAL74      -0.1963
     68  CA        14.7600  -15.8410  -16.0430 C.3    74  VAL74       0.1727
     69  C         15.3100  -14.4470  -15.9280 C.2    74  VAL74       0.2616
     70  O         16.5130  -14.2490  -15.6820 O.2    74  VAL74      -0.2715
     71  CB        13.8920  -16.1680  -14.8180 C.3    74  VAL74       0.0290
     72  CG1       13.2090  -17.5190  -14.9870 C.3    74  VAL74       0.0023
     73  CG2       14.6990  -16.1360  -13.5330 C.3    74  VAL74       0.0023
     74  N         14.4390  -13.4570  -16.0690 N.am   75  ILE75      -0.1977
     75  CA        14.8440  -12.0610  -15.8690 C.3    75  ILE75       0.1596
     76  C         15.4400  -11.8730  -14.4870 C.2    75  ILE75       0.2287
     77  O         15.1400  -12.5760  -13.5110 O.2    75  ILE75      -0.2864
     78  CB        13.6670  -11.0850  -16.1040 C.3    75  ILE75       0.0276
     79  CG1       12.4540  -11.4040  -15.2230 C.3    75  ILE75       0.0022
     80  CG2       13.3360  -11.0650  -17.6120 C.3    75  ILE75       0.0022
     81  CD1       11.3900  -10.3600  -15.2980 C.3    75  ILE75       0.0001
     82  N         13.3600  -11.8340  -11.2620 N.3    78  TRP78      -0.1241
     83  CA        12.8980  -13.1300  -10.7980 C.3    78  TRP78       0.1605
     84  C         13.9690  -13.8830  -10.0560 C.2    78  TRP78       0.2264
     85  O         13.6980  -14.4890   -9.0010 O.2    78  TRP78      -0.2867
     86  CB        12.3610  -13.9740  -11.9410 C.3    78  TRP78       0.0550
     87  CG        10.9080  -13.7970  -12.2090 C.ar   78  TRP78       0.0003
     88  CD1       10.1920  -12.6720  -12.4500 C.ar   78  TRP78       0.0946
     89  CD2        9.9630  -14.8640  -12.2260 C.ar   78  TRP78       0.0152
     90  NE1        8.8750  -12.9700  -12.6620 N.ar   78  TRP78      -0.2442
     91  CE2        8.6950  -14.3210  -12.5250 C.ar   78  TRP78       0.0810
     92  CE3       10.0850  -16.2460  -12.0280 C.ar   78  TRP78       0.0012
     93  CZ2        7.5620  -15.1070  -12.6210 C.ar   78  TRP78       0.0191
     94  CZ3        8.9620  -17.0130  -12.1200 C.ar   78  TRP78       0.0001
     95  CH2        7.7270  -16.4700  -12.4260 C.ar   78  TRP78       0.0015
     96  N         13.2370   -6.7020  -19.2430 N.3   101  TYR101     -0.1241
     97  CA        13.5470   -6.7810  -20.6630 C.3   101  TYR101      0.1605
     98  C         14.1270   -5.4830  -21.2250 C.2   101  TYR101      0.2264
     99  O         14.3890   -5.4210  -22.4310 O.2   101  TYR101     -0.2867
    100  CB        12.3590   -7.3190  -21.4760 C.3   101  TYR101      0.0534
    101  CG        12.0390   -8.7520  -21.1190 C.ar  101  TYR101     -0.0201
    102  CD1       12.7560   -9.7920  -21.6410 C.ar  101  TYR101     -0.0009
    103  CD2       11.0460   -9.0210  -20.2120 C.ar  101  TYR101     -0.0009
    104  CE1       12.4610  -11.1180  -21.3240 C.ar  101  TYR101      0.0417
    105  CE2       10.7300  -10.3510  -19.8660 C.ar  101  TYR101      0.0417
    106  CZ        11.4880  -11.3580  -20.4180 C.ar  101  TYR101      0.1957
    107  OH        11.1680  -12.6500  -20.0240 O.3   101  TYR101     -0.2866
    108  N         10.4970   -7.4970  -25.4410 N.3   106  SER106     -0.1202
    109  CA        10.4610   -8.8700  -25.9810 C.3   106  SER106      0.2020
    110  C          9.1140   -9.0390  -26.6280 C.2   106  SER106      0.2618
    111  O          8.1390   -9.3890  -26.0360 O.2   106  SER106     -0.2717
    112  CB        10.5960   -9.8870  -24.8060 C.3   106  SER106      0.2103
    113  OG        10.8310  -11.1980  -25.3220 O.3   106  SER106     -0.2182
    114  N          9.1000   -8.7200  -27.9480 N.am  107  LEU107     -0.1979
    115  CA         7.9560   -8.7840  -28.7790 C.3   107  LEU107      0.1596
    116  C          7.4510  -10.2110  -28.9510 C.2   107  LEU107      0.2287
    117  O          8.2220  -11.0680  -29.0430 O.2   107  LEU107     -0.2864
    118  CB         8.3410   -8.2270  -30.1730 C.3   107  LEU107      0.0297
    119  CG         8.6840   -6.7270  -30.3180 C.3   107  LEU107      0.0022
    120  CD1        9.4470   -6.4160  -31.6470 C.3   107  LEU107      0.0001
    121  CD2        7.4150   -5.8430  -30.1460 C.3   107  LEU107      0.0001
    122  N          4.8670   -9.3760  -26.8280 N.3   109  LYS109     -0.1231
    123  CA         4.1210   -8.9630  -25.6590 C.3   109  LYS109      0.1693
    124  C          4.7130   -7.9020  -24.7640 C.2   109  LYS109      0.2591
    125  O          3.9880   -7.0740  -24.1980 O.2   109  LYS109     -0.2718
    126  CB         3.9500  -10.1420  -24.7920 C.3   109  LYS109      0.0285
    127  CG         3.2370  -11.3580  -25.3650 C.3   109  LYS109      0.0035
    128  CD         2.5360  -12.1160  -24.2630 C.3   109  LYS109      0.0206
    129  CE         1.6210  -13.2330  -24.6990 C.3   109  LYS109      0.1093
    130  NZ         0.4300  -13.3670  -23.8650 N.3   109  LYS109     -0.1314
    131  N          6.0300   -7.9010  -24.6940 N.am  110  ILE110     -0.1980
    132  CA         6.6600   -7.0150  -23.7080 C.3   110  ILE110      0.1595
    133  C          7.2070   -5.7950  -24.4870 C.2   110  ILE110      0.2287
    134  O          8.1510   -5.9740  -25.2210 O.2   110  ILE110     -0.2864
    135  CB         7.7870   -7.7060  -22.9060 C.3   110  ILE110      0.0276
    136  CG1        7.4060   -9.0420  -22.2580 C.3   110  ILE110      0.0022
    137  CG2        8.2870   -6.6970  -21.8410 C.3   110  ILE110      0.0022
    138  CD1        6.2560   -8.9570  -21.3560 C.3   110  ILE110      0.0001
    139  N          7.2400   -4.3650  -15.0600 N.3   116  LEU116     -0.1245
    140  CA         6.4020   -5.5350  -14.9860 C.3   116  LEU116      0.1561
    141  C          5.9140   -5.7370  -13.5490 C.2   116  LEU116      0.2260
    142  O          6.6720   -5.5160  -12.5950 O.2   116  LEU116     -0.2867
    143  CB         7.1180   -6.7660  -15.4690 C.3   116  LEU116      0.0270
    144  CG         7.7610   -6.7070  -16.8590 C.3   116  LEU116      0.0019
    145  CD1        8.4340   -8.0210  -17.1970 C.3   116  LEU116      0.0001
    146  CD2        6.7480   -6.3250  -17.9280 C.3   116  LEU116      0.0001
    147  N          4.2700   -8.7990  -11.1000 N.3   118  PHE118     -0.1241
    148  CA         3.9560  -10.2160  -10.9530 C.3   118  PHE118      0.1605
    149  C          3.3620  -10.5170   -9.6100 C.2   118  PHE118      0.2264
    150  O          3.7840   -9.9490   -8.5790 O.2   118  PHE118     -0.2867
    151  CB         5.2030  -11.0850  -11.0860 C.3   118  PHE118      0.0534
    152  CG         5.8520  -11.0480  -12.4350 C.ar  118  PHE118     -0.0203
    153  CD1        5.4650  -11.9230  -13.4540 C.ar  118  PHE118     -0.0042
    154  CD2        6.8690  -10.1530  -12.6950 C.ar  118  PHE118     -0.0042
    155  CE1        6.0740  -11.8900  -14.6960 C.ar  118  PHE118     -0.0003
    156  CE2        7.4820  -10.1080  -13.9550 C.ar  118  PHE118     -0.0003
    157  CZ         7.0830  -10.9900  -14.9340 C.ar  118  PHE118     -0.0000
@<TRIPOS>BOND
     1   120   119    1
     2   119   118    1
     3   119   121    1
     4   118   115    1
     5   117   116    2
     6   116   115    1
     7   115   114    1
     8   114   110   am
     9   122   123    1
    10   110   111    2
    11   110   109    1
    12   109   108    1
    13   109   112    1
    14   123   126    1
    15   123   124    1
    16   127   126    1
    17   127   128    1
    18   113   112    1
    19   134   133    2
    20   124   131   am
    21   124   125    2
    22   129   128    1
    23   129   130    1
    24   131   132    1
    25   133   132    1
    26   132   135    1
    27   135   136    1
    28   135   137    1
    29    99    98    2
    30   136   138    1
    31   102   104   ar
    32   102   101   ar
    33   100   101    1
    34   100    97    1
    35   104   106   ar
    36    98    97    1
    37    16    15    2
    38   101   103   ar
    39    97    96    1
    40    17    14    1
    41    17    18    1
    42   106   107    1
    43   106   105   ar
    44    14    15    1
    45    14    13    1
    46   103   105   ar
    47    15    24   am
    48    38    37    1
    49    38    39    1
    50    37    36    1
    51    19    18   ar
    52    19    21   ar
    53    41    40    1
    54    18    20   ar
    55    30    29   ar
    56    29    31   ar
    57    29    28    1
    58    39    40    2
    59    24    25    1
    60    28    25    1
    61    25    26    1
    62    40    42    1
    63    21    23   ar
    64    36    33    1
    65    20    22   ar
    66    33    32    1
    67    33    34    1
    68    35    34    2
    69   146   144    1
    70    61    60    2
    71    23    22   ar
    72    57    56    2
    73    80    78    1
    74    26    27    2
    75    12    11    1
    76   145   144    1
    77    51    49   ar
    78    51    53   ar
    79    60    59    1
    80    60    67   am
    81    59    62    1
    82    59    58    1
    83   144   143    1
    84    49    48   ar
    85    56    58   am
    86    56    55    1
    87    63    62    1
    88    63    64    1
    89    53    52   ar
    90    66    64   am
    91    78    75    1
    92    78    79    1
    93    67    68    1
    94    74    69   am
    95    74    75    1
    96    68    69    1
    97    68    71    1
    98    11     9   ar
    99    11    10   ar
   100    64    65    2
   101    69    70    2
   102    75    76    1
   103     9     7   ar
   104    55    54    1
   105   143   140    1
   106    81    79    1
   107    48    50   ar
   108    48    47    1
   109    52    50   ar
   110   139   140    1
   111    10     8   ar
   112    72    71    1
   113   140   141    1
   114   157   155   ar
   115   157   156   ar
   116    71    73    1
   117   155   153   ar
   118    47    44    1
   119    76    77    2
   120    44    43    1
   121    44    45    1
   122     7     6   ar
   123   156   154   ar
   124     8     6   ar
   125   141   142    2
   126   153   152   ar
   127    45    46    2
   128     6     5    1
   129     4     3    2
   130   154   152   ar
   131    90    91   ar
   132    90    88   ar
   133    93    91   ar
   134    93    95   ar
   135    91    89   ar
   136    88    87   ar
   137   152   151    1
   138    95    94   ar
   139     3     2    1
   140    89    87   ar
   141    89    92   ar
   142    87    86    1
   143    94    92   ar
   144    86    83    1
   145     5     2    1
   146     2     1    1
   147    82    83    1
   148   147   148    1
   149   151   148    1
   150   148   149    1
   151    83    84    1
   152    84    85    2
   153   149   150    2
