@<TRIPOS>MOLECULE
tmp/4tx6B00.pdb
 136 130 0 0 0
SMALL
GASTEIGER

@<TRIPOS>ATOM
      1  N         16.6480    2.5220   72.7280 N.3     7  TYR7       -0.1241
      2  CA        16.6520    2.8070   71.2930 C.3     7  TYR7        0.1605
      3  C         15.6420    1.9780   70.5290 C.2     7  TYR7        0.2264
      4  O         15.3890    0.8350   70.8940 O.2     7  TYR7       -0.2867
      5  CB        18.0590    2.5890   70.7060 C.3     7  TYR7        0.0534
      6  CG        19.0350    3.6970   71.0600 C.ar    7  TYR7       -0.0201
      7  CD1       19.7120    3.7100   72.2930 C.ar    7  TYR7       -0.0009
      8  CD2       19.2820    4.7230   70.1840 C.ar    7  TYR7       -0.0009
      9  CE1       20.5990    4.7310   72.6140 C.ar    7  TYR7        0.0417
     10  CE2       20.1680    5.7470   70.4940 C.ar    7  TYR7        0.0417
     11  CZ        20.8190    5.7730   71.7250 C.ar    7  TYR7        0.1957
     12  OH        21.7060    6.7890   72.0320 O.3     7  TYR7       -0.2866
     13  N         16.2000    0.4580   64.6010 N.3    10  GLN10      -0.1245
     14  CA        17.1920   -0.3690   63.9270 C.3    10  GLN10       0.1566
     15  C         17.0480   -1.8630   64.2720 C.2    10  GLN10       0.2260
     16  O         17.9560   -2.6400   64.0200 O.2    10  GLN10      -0.2867
     17  CB        18.6040    0.1060   64.2860 C.3    10  GLN10       0.0367
     18  CG        18.8600    1.5410   63.9220 C.3    10  GLN10       0.0905
     19  CD        18.8960    1.7630   62.4340 C.2    10  GLN10       0.2608
     20  OE1       19.6370    1.0950   61.7580 O.2    10  GLN10      -0.2717
     21  NE2       18.0740    2.6580   61.9170 N.am   10  GLN10      -0.0878
     22  N         17.9320    6.1780   62.9150 N.3    33  PHE33      -0.1241
     23  CA        18.9410    7.2610   63.0530 C.3    33  PHE33       0.1605
     24  C         18.8190    8.2510   61.8910 C.2    33  PHE33       0.2264
     25  O         18.4760    7.8870   60.7400 O.2    33  PHE33      -0.2867
     26  CB        20.3900    6.7600   63.0270 C.3    33  PHE33       0.0534
     27  CG        20.7850    5.9780   64.2200 C.ar   33  PHE33      -0.0203
     28  CD1       21.0560    6.6220   65.4000 C.ar   33  PHE33      -0.0042
     29  CD2       20.8980    4.5760   64.1610 C.ar   33  PHE33      -0.0042
     30  CE1       21.3790    5.8930   66.5280 C.ar   33  PHE33      -0.0003
     31  CE2       21.2590    3.8450   65.2740 C.ar   33  PHE33      -0.0003
     32  CZ        21.5000    4.4980   66.4570 C.ar   33  PHE33      -0.0000
     33  N         24.7430    6.8900   64.9250 N.3    96  GLY96      -0.1210
     34  CA        24.6900    5.4430   64.9650 C.3    96  GLY96       0.1956
     35  C         25.9530    4.8530   64.3500 C.2    96  GLY96       0.2612
     36  O         26.7550    5.5620   63.7690 O.2    96  GLY96      -0.2717
     37  N         26.1020    3.5490   64.4470 N.am   97  ALA97      -0.1965
     38  CA        27.3780    2.8980   64.0660 C.3    97  ALA97       0.1728
     39  C         27.6070    2.7930   62.5600 C.2    97  ALA97       0.2616
     40  O         28.7530    2.6070   62.1550 O.2    97  ALA97      -0.2715
     41  CB        27.4920    1.5090   64.7120 C.3    97  ALA97       0.0334
     42  N         26.5630    2.9210   61.7290 N.am   98  TYR98      -0.1974
     43  CA        26.6950    2.7310   60.2790 C.3    98  TYR98       0.1639
     44  C         25.9640    3.7860   59.4700 C.2    98  TYR98       0.2290
     45  O         24.8000    4.0700   59.7310 O.2    98  TYR98      -0.2864
     46  CB        26.1700    1.3460   59.8470 C.3    98  TYR98       0.0560
     47  CG        26.5080    1.0460   58.4100 C.ar   98  TYR98      -0.0198
     48  CD1       27.7390    0.4890   58.0840 C.ar   98  TYR98      -0.0009
     49  CD2       25.6350    1.3780   57.3830 C.ar   98  TYR98      -0.0009
     50  CE1       28.0820    0.2470   56.7590 C.ar   98  TYR98       0.0417
     51  CE2       25.9680    1.1540   56.0510 C.ar   98  TYR98       0.0417
     52  CZ        27.1930    0.5970   55.7550 C.ar   98  TYR98       0.1957
     53  OH        27.5350    0.3660   54.4490 O.3    98  TYR98      -0.2866
     54  N         24.3910   10.2080   69.0360 N.3   145  ASP145     -0.1239
     55  CA        25.0330    8.9030   69.0470 C.3   145  ASP145      0.1674
     56  C         26.1190    8.8810   67.9970 C.2   145  ASP145      0.2266
     57  O         26.0560    8.1480   67.0250 O.2   145  ASP145     -0.2867
     58  CB        24.0320    7.7910   68.8390 C.3   145  ASP145      0.1410
     59  CG        24.6820    6.4100   68.8320 C.2   145  ASP145      0.3668
     60  OD1       25.7870    6.2680   69.4370 O.co2 145  ASP145     -0.2456
     61  OD2       24.0560    5.4640   68.2750 O.co2 145  ASP145     -0.2456
     62  N         29.6120    7.9310   66.6250 N.3   147  GLU147     -0.1245
     63  CA        30.4420    6.7680   66.8960 C.3   147  GLU147      0.1567
     64  C         31.7310    6.6980   66.0990 C.2   147  GLU147      0.2260
     65  O         32.5330    5.7750   66.3260 O.2   147  GLU147     -0.2867
     66  CB        29.6270    5.5050   66.6390 C.3   147  GLU147      0.0388
     67  CG        28.3290    5.5260   67.4420 C.3   147  GLU147      0.1160
     68  CD        27.9240    4.2220   68.0000 C.2   147  GLU147      0.3649
     69  OE1       28.4760    3.1950   67.5490 O.co2 147  GLU147     -0.2457
     70  OE2       27.0650    4.2370   68.9180 O.co2 147  GLU147     -0.2457
     71  N         25.5280    9.7420   73.6560 N.3   178  ALA178     -0.1245
     72  CA        25.7980    8.3200   73.8600 C.3   178  ALA178      0.1562
     73  C         27.2840    7.9770   73.6380 C.2   178  ALA178      0.2260
     74  O         27.6380    7.2380   72.7090 O.2   178  ALA178     -0.2867
     75  CB        24.9160    7.4810   72.9220 C.3   178  ALA178      0.0290
     76  N         27.5860    3.9440   76.7270 N.3   203  GLN203     -0.1245
     77  CA        27.5150    2.5950   76.1930 C.3   203  GLN203      0.1566
     78  C         28.5260    1.7290   76.9380 C.2   203  GLN203      0.2260
     79  O         29.7450    1.8980   76.7840 O.2   203  GLN203     -0.2867
     80  CB        27.7670    2.5630   74.6960 C.3   203  GLN203      0.0367
     81  CG        26.8010    3.3790   73.8650 C.3   203  GLN203      0.0905
     82  CD        27.1770    3.2920   72.3960 C.2   203  GLN203      0.2608
     83  OE1       27.3600    2.1870   71.8560 O.2   203  GLN203     -0.2717
     84  NE2       27.3090    4.4460   71.7390 N.am  203  GLN203     -0.0878
     85  N         29.0200   -1.5410   76.7120 N.3   205  TYR205     -0.1227
     86  CA        29.2680   -2.7410   75.9780 C.3   205  TYR205      0.1736
     87  C         30.2250   -2.4710   74.8070 C.2   205  TYR205      0.2595
     88  O         30.3250   -1.3530   74.2860 O.2   205  TYR205     -0.2718
     89  CB        27.9340   -3.3040   75.4590 C.3   205  TYR205      0.0548
     90  CG        27.0410   -2.2610   74.8190 C.ar  205  TYR205     -0.0200
     91  CD1       26.1980   -1.4750   75.5860 C.ar  205  TYR205     -0.0009
     92  CD2       27.0400   -2.0590   73.4360 C.ar  205  TYR205     -0.0009
     93  CE1       25.3710   -0.5220   75.0060 C.ar  205  TYR205      0.0417
     94  CE2       26.2260   -1.0990   72.8500 C.ar  205  TYR205      0.0417
     95  CZ        25.3950   -0.3210   73.6400 C.ar  205  TYR205      0.1957
     96  OH        24.5730    0.6270   73.0440 O.3   205  TYR205     -0.2866
     97  N         30.9250   -3.5390   74.4260 N.am  206  ASN206     -0.1974
     98  CA        31.7610   -3.6360   73.2430 C.3   206  ASN206      0.1688
     99  C         33.1720   -3.1040   73.4100 C.2   206  ASN206      0.2292
    100  O         33.9390   -3.2030   72.4700 O.2   206  ASN206     -0.2864
    101  CB        31.1120   -3.0640   71.9770 C.3   206  ASN206      0.1181
    102  CG        29.9310   -3.8680   71.5000 C.2   206  ASN206      0.2629
    103  OD1       29.6870   -4.9770   71.9430 O.2   206  ASN206     -0.2716
    104  ND2       29.1970   -3.3020   70.5610 N.am  206  ASN206     -0.0877
    105  N         22.5040   -8.6790   71.3610 N.3   252  ALA252     -0.1231
    106  CA        22.2550   -7.2990   70.9800 C.3   252  ALA252      0.1694
    107  C         23.5640   -6.5710   70.7560 C.2   252  ALA252      0.2591
    108  O         23.6040   -5.6460   69.9500 O.2   252  ALA252     -0.2718
    109  CB        21.4280   -6.5730   72.0530 C.3   252  ALA252      0.0304
    110  N         24.6060   -6.9660   71.4940 N.am  253  ALA253     -0.1980
    111  CA        25.9410   -6.4040   71.3400 C.3   253  ALA253      0.1597
    112  C         26.9220   -7.5470   71.0850 C.2   253  ALA253      0.2287
    113  O         26.5070   -8.6710   70.8580 O.2   253  ALA253     -0.2864
    114  CB        26.3450   -5.6460   72.6000 C.3   253  ALA253      0.0319
    115  N         20.1020    2.8020   80.0940 N.3   283  MET283     -0.1245
    116  CA        19.7700    2.8630   78.6740 C.3   283  MET283      0.1570
    117  C         19.9460    1.4790   78.0830 C.2   283  MET283      0.2261
    118  O         20.8490    0.7380   78.5140 O.2   283  MET283     -0.2867
    119  CB        20.6440    3.9040   77.9640 C.3   283  MET283      0.0387
    120  CG        20.4580    3.9460   76.4590 C.3   283  MET283      0.0595
    121  SD        21.3580    2.6540   75.5460 S.3   283  MET283     -0.1393
    122  CE        22.9930    3.4300   75.4700 C.3   283  MET283      0.0692
    123  N         20.2060   -0.9190   74.4940 N.3   285  TRP285     -0.1241
    124  CA        20.2760   -1.2030   73.0750 C.3   285  TRP285      0.1605
    125  C         19.7300   -2.6370   72.9110 C.2   285  TRP285      0.2264
    126  O         20.3990   -3.5390   73.3140 O.2   285  TRP285     -0.2867
    127  CB        21.7300   -1.1620   72.5490 C.3   285  TRP285      0.0550
    128  CG        21.6930   -1.4360   71.0720 C.ar  285  TRP285      0.0003
    129  CD1       21.8930   -2.6570   70.4340 C.ar  285  TRP285      0.0946
    130  CD2       21.3420   -0.5070   70.0460 C.ar  285  TRP285      0.0152
    131  NE1       21.6700   -2.5140   69.0750 N.ar  285  TRP285     -0.2442
    132  CE2       21.3460   -1.2140   68.8040 C.ar  285  TRP285      0.0810
    133  CE3       21.0350    0.8500   70.0370 C.ar  285  TRP285      0.0012
    134  CZ2       21.0530   -0.5870   67.5810 C.ar  285  TRP285      0.0191
    135  CZ3       20.7150    1.4610   68.8340 C.ar  285  TRP285      0.0001
    136  CH2       20.7240    0.7440   67.6180 C.ar  285  TRP285      0.0015
@<TRIPOS>BOND
     1    53    52    1
     2    52    51   ar
     3    52    50   ar
     4    51    49   ar
     5    50    48   ar
     6    49    47   ar
     7    48    47   ar
     8    47    46    1
     9    44    45    2
    10    44    43    1
    11    46    43    1
    12    43    42    1
    13    25    24    2
    14    42    39   am
    15    20    19    2
    16    24    23    1
    17    21    19   am
    18    40    39    2
    19    19    18    1
    20    39    38    1
    21    22    23    1
    22    26    23    1
    23    26    27    1
    24    36    35    2
    25    18    17    1
    26    14    15    1
    27    14    17    1
    28    14    13    1
    29    16    15    2
    30    38    37    1
    31    38    41    1
    32    29    27   ar
    33    29    31   ar
    34    27    28   ar
    35    35    37   am
    36    35    34    1
    37    33    34    1
    38    31    32   ar
    39    28    30   ar
    40    64    65    2
    41    64    63    1
    42    32    30   ar
    43    62    63    1
    44    66    63    1
    45    66    67    1
    46    57    56    2
    47    67    68    1
    48    69    68   ar
    49   134   136   ar
    50   134   132   ar
    51   136   135   ar
    52    56    55    1
    53    68    70   ar
    54    61    59   ar
    55   132   131   ar
    56   132   130   ar
    57    59    58    1
    58    59    60   ar
    59   135   133   ar
    60    58    55    1
    61    54    55    1
    62   131   129   ar
    63   108   107    2
    64   133   130   ar
    65   130   128   ar
    66     8    10   ar
    67     8     6   ar
    68   129   128   ar
    69    10    11   ar
    70     3     4    2
    71     3     2    1
    72   104   102   am
    73     5     6    1
    74     5     2    1
    75   107   106    1
    76   107   110   am
    77   113   112    2
    78   106   105    1
    79   106   109    1
    80     6     7   ar
    81   128   127    1
    82   112   111    1
    83     2     1    1
    84   111   110    1
    85   111   114    1
    86   102   103    2
    87   102   101    1
    88    11    12    1
    89    11     9   ar
    90    84    82   am
    91    83    82    2
    92   101    98    1
    93     7     9   ar
    94    82    81    1
    95   100    99    2
    96   127   124    1
    97    74    73    2
    98    94    92   ar
    99    94    95   ar
   100   125   124    1
   101   125   126    2
   102    75    72    1
   103    96    95    1
   104   124   123    1
   105    98    99    1
   106    98    97    1
   107    92    90   ar
   108    73    72    1
   109    95    93   ar
   110    71    72    1
   111    81    80    1
   112    88    87    2
   113    97    87   am
   114    80    77    1
   115    87    86    1
   116    90    89    1
   117    90    91   ar
   118    93    91   ar
   119    89    86    1
   120   122   121    1
   121   121   120    1
   122    86    85    1
   123    77    76    1
   124    77    78    1
   125   120   119    1
   126    79    78    2
   127   119   116    1
   128   117   118    2
   129   117   116    1
   130   116   115    1
