@<TRIPOS>MOLECULE
tmp/4tx8A03.pdb
 105 101 0 0 0
SMALL
GASTEIGER

@<TRIPOS>ATOM
      1  N        -28.7850  -20.9850   -5.1010 N.3    95  PHE95      -0.1241
      2  CA       -29.1100  -19.8260   -4.2740 C.3    95  PHE95       0.1605
      3  C        -27.9490  -18.8420   -4.2390 C.2    95  PHE95       0.2264
      4  O        -26.8650  -19.1270   -4.7450 O.2    95  PHE95      -0.2867
      5  CB       -29.4150  -20.2430   -2.8330 C.3    95  PHE95       0.0534
      6  CG       -30.6020  -21.1440   -2.6840 C.ar   95  PHE95      -0.0203
      7  CD1      -31.8680  -20.6140   -2.4810 C.ar   95  PHE95      -0.0042
      8  CD2      -30.4500  -22.5210   -2.7110 C.ar   95  PHE95      -0.0042
      9  CE1      -32.9690  -21.4450   -2.3270 C.ar   95  PHE95      -0.0003
     10  CE2      -31.5470  -23.3590   -2.5570 C.ar   95  PHE95      -0.0003
     11  CZ       -32.8060  -22.8190   -2.3650 C.ar   95  PHE95      -0.0000
     12  N        -31.3300  -18.2820    0.2990 N.3   137  GLY137     -0.1210
     13  CA       -31.6890  -19.4970    1.0060 C.3   137  GLY137      0.1956
     14  C        -30.6610  -20.5990    0.8190 C.2   137  GLY137      0.2612
     15  O        -29.5010  -20.3340    0.5060 O.2   137  GLY137     -0.2717
     16  N        -31.0880  -21.8390    1.0240 N.am  138  GLY138     -0.1942
     17  CA       -30.2380  -22.9950    0.8090 C.3   138  GLY138      0.2014
     18  C        -29.1680  -23.1770    1.8670 C.2   138  GLY138      0.2638
     19  O        -29.2360  -22.6080    2.9530 O.2   138  GLY138     -0.2714
     20  N        -28.1610  -23.9700    1.5300 N.am  139  GLN139     -0.1977
     21  CA       -27.1330  -24.3690    2.4790 C.3   139  GLN139      0.1601
     22  C        -26.4990  -23.1730    3.1930 C.2   139  GLN139      0.2287
     23  O        -26.2350  -23.2250    4.3920 O.2   139  GLN139     -0.2864
     24  CB       -26.0700  -25.1850    1.7570 C.3   139  GLN139      0.0394
     25  CG       -25.0560  -25.8310    2.6540 C.3   139  GLN139      0.0908
     26  CD       -24.0850  -26.6610    1.8580 C.2   139  GLN139      0.2608
     27  OE1      -24.4610  -27.6740    1.2690 O.2   139  GLN139     -0.2717
     28  NE2      -22.8330  -26.2210    1.8050 N.am  139  GLN139     -0.0878
     29  N        -28.0700  -20.2020    3.6150 N.3   141  GLY141     -0.1210
     30  CA       -29.2180  -19.3160    3.6830 C.3   141  GLY141      0.1956
     31  C        -29.4590  -18.7410    5.0650 C.2   141  GLY141      0.2612
     32  O        -30.5880  -18.3950    5.4120 O.2   141  GLY141     -0.2717
     33  N        -28.3970  -18.6420    5.8590 N.am  142  SER142     -0.1952
     34  CA       -28.4920  -18.0680    7.1970 C.3   142  SER142      0.1924
     35  C        -28.0060  -16.6260    7.1970 C.2   142  SER142      0.2314
     36  O        -26.8180  -16.3640    7.3740 O.2   142  SER142     -0.2863
     37  CB       -27.6870  -18.8940    8.2040 C.3   142  SER142      0.2116
     38  OG       -28.1530  -20.2340    8.2660 O.3   142  SER142     -0.2180
     39  N        -36.1450  -17.0470    0.6530 N.3   173  ASP173     -0.1225
     40  CA       -36.3610  -18.4350    1.0400 C.3   173  ASP173      0.1805
     41  C        -35.3970  -18.7570    2.1740 C.2   173  ASP173      0.2598
     42  O        -34.7510  -19.8010    2.1780 O.2   173  ASP173     -0.2718
     43  CB       -36.1410  -19.3630   -0.1600 C.3   173  ASP173      0.1424
     44  CG       -36.5440  -20.8000    0.1200 C.2   173  ASP173      0.3668
     45  OD1      -37.3230  -21.0360    1.0630 O.co2 173  ASP173     -0.2456
     46  OD2      -36.0810  -21.6970   -0.6120 O.co2 173  ASP173     -0.2456
     47  N        -35.2950  -17.8440    3.1340 N.am  174  LEU174     -0.1966
     48  CA       -34.1810  -17.8560    4.0770 C.3   174  LEU174      0.1728
     49  C        -34.5710  -18.0550    5.5380 C.2   174  LEU174      0.2616
     50  O        -33.7180  -17.9750    6.4220 O.2   174  LEU174     -0.2715
     51  CB       -33.3940  -16.5450    3.9460 C.3   174  LEU174      0.0311
     52  CG       -34.1850  -15.2300    3.8410 C.3   174  LEU174      0.0022
     53  CD1      -34.9660  -14.9010    5.1090 C.3   174  LEU174      0.0001
     54  CD2      -33.2570  -14.0810    3.4880 C.3   174  LEU174      0.0001
     55  N        -35.8490  -18.3050    5.7970 N.am  175  GLU175     -0.1963
     56  CA       -36.3610  -18.1990    7.1590 C.3   175  GLU175      0.1733
     57  C        -35.8420  -19.2830    8.1010 C.2   175  GLU175      0.2617
     58  O        -35.7590  -19.0720    9.3090 O.2   175  GLU175     -0.2715
     59  CB       -37.8930  -18.2160    7.1550 C.3   175  GLU175      0.0429
     60  CG       -38.5220  -19.5680    6.8550 C.3   175  GLU175      0.1163
     61  CD       -38.7900  -19.7850    5.3790 C.2   175  GLU175      0.3649
     62  OE1      -38.1560  -19.1030    4.5430 O.co2 175  GLU175     -0.2457
     63  OE2      -39.6470  -20.6370    5.0600 O.co2 175  GLU175     -0.2457
     64  N        -35.4800  -20.4360    7.5590 N.am  176  SER176     -0.1936
     65  CA       -35.1780  -21.5770    8.4100 C.3   176  SER176      0.2055
     66  C        -33.8300  -21.4510    9.1040 C.2   176  SER176      0.2643
     67  O        -33.6490  -21.9680   10.2040 O.2   176  SER176     -0.2714
     68  CB       -35.2260  -22.8630    7.5970 C.3   176  SER176      0.2130
     69  OG       -34.8470  -23.9920    8.3640 O.3   176  SER176     -0.2179
     70  N        -32.8870  -20.7680    8.4650 N.am  177  GLY177     -0.1954
     71  CA       -31.5780  -20.5740    9.0610 C.3   177  GLY177      0.1869
     72  C        -31.3160  -19.1690    9.5760 C.2   177  GLY177      0.2309
     73  O        -30.2630  -18.9070   10.1520 O.2   177  GLY177     -0.2863
     74  N        -42.4660  -21.0960    4.6580 N.3   212  GLU212     -0.1245
     75  CA       -43.2660  -22.2650    4.9960 C.3   212  GLU212      0.1567
     76  C        -44.4970  -21.8160    5.7720 C.2   212  GLU212      0.2260
     77  O        -44.4360  -20.8300    6.5080 O.2   212  GLU212     -0.2867
     78  CB       -42.4290  -23.2590    5.7990 C.3   212  GLU212      0.0388
     79  CG       -41.1290  -23.6190    5.0950 C.3   212  GLU212      0.1160
     80  CD       -40.2030  -24.4720    5.9370 C.2   212  GLU212      0.3649
     81  OE1      -40.6830  -25.4280    6.5810 O.co2 212  GLU212     -0.2457
     82  OE2      -38.9880  -24.1830    5.9510 O.co2 212  GLU212     -0.2457
     83  N        -44.8730  -22.1830    0.9280 N.3   247  GLN247     -0.1245
     84  CA       -44.5560  -23.5850    0.7210 C.3   247  GLN247      0.1566
     85  C        -45.5510  -24.4530    1.4840 C.2   247  GLN247      0.2260
     86  O        -45.5320  -24.5150    2.7100 O.2   247  GLN247     -0.2867
     87  CB       -43.1130  -23.8740    1.1540 C.3   247  GLN247      0.0367
     88  CG       -42.0750  -23.1160    0.3180 C.3   247  GLN247      0.0905
     89  CD       -40.6790  -23.1230    0.9240 C.2   247  GLN247      0.2608
     90  OE1      -40.4630  -23.6410    2.0160 O.2   247  GLN247     -0.2717
     91  NE2      -39.7220  -22.5480    0.2060 N.am  247  GLN247     -0.0878
     92  N        -40.7470  -26.3290   -6.2660 N.3   352  TRP352     -0.1241
     93  CA       -39.4140  -26.8980   -6.1930 C.3   352  TRP352      0.1605
     94  C        -39.4710  -28.2400   -6.9120 C.2   352  TRP352      0.2264
     95  O        -40.0930  -29.1660   -6.4020 O.2   352  TRP352     -0.2867
     96  CB       -38.9720  -27.0870   -4.7440 C.3   352  TRP352      0.0550
     97  CG       -37.5600  -27.5530   -4.5950 C.ar  352  TRP352      0.0003
     98  CD1      -37.1210  -28.8430   -4.5160 C.ar  352  TRP352      0.0946
     99  CD2      -36.3950  -26.7260   -4.5050 C.ar  352  TRP352      0.0152
    100  NE1      -35.7520  -28.8710   -4.3810 N.ar  352  TRP352     -0.2442
    101  CE2      -35.2820  -27.5830   -4.3750 C.ar  352  TRP352      0.0810
    102  CE3      -36.1850  -25.3450   -4.5220 C.ar  352  TRP352      0.0012
    103  CZ2      -33.9800  -27.1030   -4.2640 C.ar  352  TRP352      0.0191
    104  CZ3      -34.8860  -24.8690   -4.4120 C.ar  352  TRP352      0.0001
    105  CH2      -33.8020  -25.7460   -4.2840 C.ar  352  TRP352      0.0015
@<TRIPOS>BOND
     1    94    95    2
     2    94    93    1
     3    92    93    1
     4    93    96    1
     5     1     2    1
     6     4     3    2
     7    96    97    1
     8    97    98   ar
     9    97    99   ar
    10   102    99   ar
    11   102   104   ar
    12    98   100   ar
    13    99   101   ar
    14   104   105   ar
    15   100   101   ar
    16   101   103   ar
    17   105   103   ar
    18     2     3    1
    19     2     5    1
    20     5     6    1
    21     8     6   ar
    22     8    10   ar
    23     6     7   ar
    24    10    11   ar
    25     7     9   ar
    26    11     9   ar
    27    46    44   ar
    28    43    44    1
    29    43    40    1
    30    44    45   ar
    31    91    89   am
    32    12    13    1
    33    88    89    1
    34    88    87    1
    35    15    14    2
    36    39    40    1
    37    84    83    1
    38    84    87    1
    39    84    85    1
    40    17    16    1
    41    17    18    1
    42    14    13    1
    43    14    16   am
    44    89    90    2
    45    40    41    1
    46    27    26    2
    47    85    86    2
    48    20    18   am
    49    20    21    1
    50    24    21    1
    51    24    25    1
    52    28    26   am
    53    26    25    1
    54    18    19    2
    55    41    42    2
    56    41    47   am
    57    21    22    1
    58    47    48    1
    59    22    23    2
    60    54    52    1
    61    29    30    1
    62    30    31    1
    63    52    51    1
    64    52    53    1
    65    51    48    1
    66    48    49    1
    67    62    61   ar
    68    74    75    1
    69    75    76    1
    70    75    78    1
    71    63    61   ar
    72    31    32    2
    73    31    33   am
    74    79    78    1
    75    79    80    1
    76    61    60    1
    77    49    55   am
    78    49    50    2
    79    76    77    2
    80    55    56    1
    81    33    34    1
    82    80    82   ar
    83    80    81   ar
    84    60    59    1
    85    59    56    1
    86    56    57    1
    87    34    35    1
    88    34    37    1
    89    35    36    2
    90    64    57   am
    91    64    65    1
    92    68    69    1
    93    68    65    1
    94    57    58    2
    95    37    38    1
    96    65    66    1
    97    70    71    1
    98    70    66   am
    99    71    72    1
   100    66    67    2
   101    72    73    2
