@<TRIPOS>MOLECULE
tmp/4tx8A02.pdb
 93 89 0 0 0
SMALL
GASTEIGER

@<TRIPOS>ATOM
      1  N        -37.6860  -23.0510   -9.2050 N.3    67  TYR67      -0.1241
      2  CA       -36.3120  -22.8430   -8.7660 C.3    67  TYR67       0.1605
      3  C        -35.3240  -23.5980   -9.6470 C.2    67  TYR67       0.2264
      4  O        -35.5020  -24.7820   -9.9310 O.2    67  TYR67      -0.2867
      5  CB       -36.1370  -23.2710   -7.3070 C.3    67  TYR67       0.0534
      6  CG       -36.7930  -22.3430   -6.3120 C.ar   67  TYR67      -0.0201
      7  CD1      -38.1600  -22.4110   -6.0630 C.ar   67  TYR67      -0.0009
      8  CD2      -36.0460  -21.3870   -5.6320 C.ar   67  TYR67      -0.0009
      9  CE1      -38.7650  -21.5550   -5.1580 C.ar   67  TYR67       0.0417
     10  CE2      -36.6400  -20.5300   -4.7210 C.ar   67  TYR67       0.0417
     11  CZ       -37.9990  -20.6160   -4.4920 C.ar   67  TYR67       0.1957
     12  OH       -38.5880  -19.7640   -3.5890 O.3    67  TYR67      -0.2866
     13  N        -28.7850  -20.9850   -5.1010 N.3    95  PHE95      -0.1241
     14  CA       -29.1100  -19.8260   -4.2740 C.3    95  PHE95       0.1605
     15  C        -27.9490  -18.8420   -4.2390 C.2    95  PHE95       0.2264
     16  O        -26.8650  -19.1270   -4.7450 O.2    95  PHE95      -0.2867
     17  CB       -29.4150  -20.2430   -2.8330 C.3    95  PHE95       0.0534
     18  CG       -30.6020  -21.1440   -2.6840 C.ar   95  PHE95      -0.0203
     19  CD1      -31.8680  -20.6140   -2.4810 C.ar   95  PHE95      -0.0042
     20  CD2      -30.4500  -22.5210   -2.7110 C.ar   95  PHE95      -0.0042
     21  CE1      -32.9690  -21.4450   -2.3270 C.ar   95  PHE95      -0.0003
     22  CE2      -31.5470  -23.3590   -2.5570 C.ar   95  PHE95      -0.0003
     23  CZ       -32.8060  -22.8190   -2.3650 C.ar   95  PHE95      -0.0000
     24  N        -31.0880  -21.8390    1.0240 N.3   138  GLY138     -0.1225
     25  CA       -30.2380  -22.9950    0.8090 C.3   138  GLY138      0.1811
     26  C        -29.1680  -23.1770    1.8670 C.2   138  GLY138      0.2280
     27  O        -29.2360  -22.6080    2.9530 O.2   138  GLY138     -0.2866
     28  N        -36.1450  -17.0470    0.6530 N.3   173  ASP173     -0.1239
     29  CA       -36.3610  -18.4350    1.0400 C.3   173  ASP173      0.1674
     30  C        -35.3970  -18.7570    2.1740 C.2   173  ASP173      0.2266
     31  O        -34.7510  -19.8010    2.1780 O.2   173  ASP173     -0.2867
     32  CB       -36.1410  -19.3630   -0.1600 C.3   173  ASP173      0.1410
     33  CG       -36.5440  -20.8000    0.1200 C.2   173  ASP173      0.3668
     34  OD1      -37.3230  -21.0360    1.0630 O.co2 173  ASP173     -0.2456
     35  OD2      -36.0810  -21.6970   -0.6120 O.co2 173  ASP173     -0.2456
     36  N        -42.4660  -21.0960    4.6580 N.3   212  GLU212     -0.1245
     37  CA       -43.2660  -22.2650    4.9960 C.3   212  GLU212      0.1567
     38  C        -44.4970  -21.8160    5.7720 C.2   212  GLU212      0.2260
     39  O        -44.4360  -20.8300    6.5080 O.2   212  GLU212     -0.2867
     40  CB       -42.4290  -23.2590    5.7990 C.3   212  GLU212      0.0388
     41  CG       -41.1290  -23.6190    5.0950 C.3   212  GLU212      0.1160
     42  CD       -40.2030  -24.4720    5.9370 C.2   212  GLU212      0.3649
     43  OE1      -40.6830  -25.4280    6.5810 O.co2 212  GLU212     -0.2457
     44  OE2      -38.9880  -24.1830    5.9510 O.co2 212  GLU212     -0.2457
     45  N        -44.8730  -22.1830    0.9280 N.3   247  GLN247     -0.1245
     46  CA       -44.5560  -23.5850    0.7210 C.3   247  GLN247      0.1566
     47  C        -45.5510  -24.4530    1.4840 C.2   247  GLN247      0.2260
     48  O        -45.5320  -24.5150    2.7100 O.2   247  GLN247     -0.2867
     49  CB       -43.1130  -23.8740    1.1540 C.3   247  GLN247      0.0367
     50  CG       -42.0750  -23.1160    0.3180 C.3   247  GLN247      0.0905
     51  CD       -40.6790  -23.1230    0.9240 C.2   247  GLN247      0.2608
     52  OE1      -40.4630  -23.6410    2.0160 O.2   247  GLN247     -0.2717
     53  NE2      -39.7220  -22.5480    0.2060 N.am  247  GLN247     -0.0878
     54  N        -45.6720  -27.6050    1.8380 N.3   249  TYR249     -0.1227
     55  CA       -45.1090  -28.9440    1.9740 C.3   249  TYR249      0.1736
     56  C        -44.1500  -29.0320    3.1520 C.2   249  TYR249      0.2595
     57  O        -43.6950  -28.0110    3.6740 O.2   249  TYR249     -0.2718
     58  CB       -44.4010  -29.3830    0.6840 C.3   249  TYR249      0.0548
     59  CG       -43.5210  -28.3440    0.0080 C.ar  249  TYR249     -0.0200
     60  CD1      -44.0700  -27.3930   -0.8460 C.ar  249  TYR249     -0.0009
     61  CD2      -42.1410  -28.3380    0.1910 C.ar  249  TYR249     -0.0009
     62  CE1      -43.2790  -26.4540   -1.4780 C.ar  249  TYR249      0.0417
     63  CE2      -41.3380  -27.4010   -0.4430 C.ar  249  TYR249      0.0417
     64  CZ       -41.9170  -26.4620   -1.2740 C.ar  249  TYR249      0.1957
     65  OH       -41.1390  -25.5250   -1.9100 O.3   249  TYR249     -0.2866
     66  N        -43.8690  -30.2680    3.5640 N.am  250  ASN250     -0.1974
     67  CA       -42.9530  -30.5700    4.6600 C.3   250  ASN250      0.1688
     68  C        -43.4250  -30.0850    6.0290 C.2   250  ASN250      0.2292
     69  O        -42.6670  -30.1400    6.9880 O.2   250  ASN250     -0.2864
     70  CB       -41.5630  -29.9770    4.3850 C.3   250  ASN250      0.1181
     71  CG       -40.8140  -30.7100    3.2950 C.2   250  ASN250      0.2629
     72  OD1      -41.1770  -31.8210    2.9090 O.2   250  ASN250     -0.2716
     73  ND2      -39.7480  -30.0930    2.8000 N.am  250  ASN250     -0.0877
     74  N        -38.9390  -34.1710   -4.4860 N.3   310  SER310     -0.1217
     75  CA       -38.7820  -32.7390   -4.2350 C.3   310  SER310      0.1889
     76  C        -39.0350  -32.3310   -2.7840 C.2   310  SER310      0.2288
     77  O        -38.7210  -31.2080   -2.3860 O.2   310  SER310     -0.2866
     78  CB       -39.7160  -31.9470   -5.1520 C.3   310  SER310      0.2089
     79  OG       -39.4280  -32.1930   -6.5190 O.3   310  SER310     -0.2183
     80  N        -40.7470  -26.3290   -6.2660 N.3   352  TRP352     -0.1241
     81  CA       -39.4140  -26.8980   -6.1930 C.3   352  TRP352      0.1605
     82  C        -39.4710  -28.2400   -6.9120 C.2   352  TRP352      0.2264
     83  O        -40.0930  -29.1660   -6.4020 O.2   352  TRP352     -0.2867
     84  CB       -38.9720  -27.0870   -4.7440 C.3   352  TRP352      0.0550
     85  CG       -37.5600  -27.5530   -4.5950 C.ar  352  TRP352      0.0003
     86  CD1      -37.1210  -28.8430   -4.5160 C.ar  352  TRP352      0.0946
     87  CD2      -36.3950  -26.7260   -4.5050 C.ar  352  TRP352      0.0152
     88  NE1      -35.7520  -28.8710   -4.3810 N.ar  352  TRP352     -0.2442
     89  CE2      -35.2820  -27.5830   -4.3750 C.ar  352  TRP352      0.0810
     90  CE3      -36.1850  -25.3450   -4.5220 C.ar  352  TRP352      0.0012
     91  CZ2      -33.9800  -27.1030   -4.2640 C.ar  352  TRP352      0.0191
     92  CZ3      -34.8860  -24.8690   -4.4120 C.ar  352  TRP352      0.0001
     93  CH2      -33.8020  -25.7460   -4.2840 C.ar  352  TRP352      0.0015
@<TRIPOS>BOND
     1     4     3    2
     2     3     2    1
     3     1     2    1
     4     2     5    1
     5     5     6    1
     6    82    83    2
     7    82    81    1
     8    79    78    1
     9     6     7   ar
    10     6     8   ar
    11    80    81    1
    12    81    84    1
    13     7     9   ar
    14     8    10   ar
    15     9    11   ar
    16    78    75    1
    17    13    14    1
    18    16    15    2
    19    84    85    1
    20    10    11   ar
    21    85    86   ar
    22    85    87   ar
    23    90    87   ar
    24    90    92   ar
    25    86    88   ar
    26    87    89   ar
    27    11    12    1
    28    74    75    1
    29    92    93   ar
    30    88    89   ar
    31    89    91   ar
    32    93    91   ar
    33    14    15    1
    34    14    17    1
    35    75    76    1
    36    17    18    1
    37    76    77    2
    38    20    18   ar
    39    20    22   ar
    40    18    19   ar
    41    22    23   ar
    42    19    21   ar
    43    23    21   ar
    44    65    64    1
    45    62    64   ar
    46    62    60   ar
    47    64    63   ar
    48    60    59   ar
    49    35    33   ar
    50    63    61   ar
    51    32    33    1
    52    32    29    1
    53    59    61   ar
    54    59    58    1
    55    33    34   ar
    56    53    51   am
    57    50    51    1
    58    50    49    1
    59    28    29    1
    60    58    55    1
    61    46    45    1
    62    46    49    1
    63    46    47    1
    64    25    24    1
    65    25    26    1
    66    51    52    2
    67    29    30    1
    68    47    48    2
    69    54    55    1
    70    26    27    2
    71    55    56    1
    72    30    31    2
    73    73    71   am
    74    72    71    2
    75    56    66   am
    76    56    57    2
    77    71    70    1
    78    66    67    1
    79    70    67    1
    80    36    37    1
    81    67    68    1
    82    37    38    1
    83    37    40    1
    84    41    40    1
    85    41    42    1
    86    38    39    2
    87    42    44   ar
    88    42    43   ar
    89    68    69    2
