@<TRIPOS>MOLECULE
tmp/4tx9A00.pdb
 186 176 0 0 0
SMALL
GASTEIGER

@<TRIPOS>ATOM
      1  N         34.1860   15.7170   15.7160 N.3    15  ASP15      -0.1239
      2  CA        33.9820   17.1810   15.7030 C.3    15  ASP15       0.1674
      3  C         33.8310   17.5720   14.2270 C.2    15  ASP15       0.2266
      4  O         34.6850   17.2520   13.4410 O.2    15  ASP15      -0.2867
      5  CB        35.1520   17.9290   16.3360 C.3    15  ASP15       0.1410
      6  CG        35.4500   17.4650   17.7600 C.2    15  ASP15       0.3668
      7  OD1       34.5300   17.1170   18.5000 O.co2  15  ASP15      -0.2456
      8  OD2       36.6440   17.4190   18.1180 O.co2  15  ASP15      -0.2456
      9  N         41.5200   19.9490   15.8540 N.3    24  LEU24      -0.1245
     10  CA        42.2040   21.2330   15.8990 C.3    24  LEU24       0.1561
     11  C         43.3440   21.1890   16.9170 C.2    24  LEU24       0.2260
     12  O         43.5960   20.1440   17.5200 O.2    24  LEU24      -0.2867
     13  CB        41.1950   22.3360   16.2340 C.3    24  LEU24       0.0270
     14  CG        40.1920   22.7490   15.1470 C.3    24  LEU24       0.0019
     15  CD1       39.2320   21.6230   14.7410 C.3    24  LEU24       0.0001
     16  CD2       39.3990   23.9180   15.6320 C.3    24  LEU24       0.0001
     17  N         41.7940   24.0850   19.8900 N.3    27  GLY27      -0.1225
     18  CA        40.5740   24.5190   19.2710 C.3    27  GLY27       0.1811
     19  C         40.6850   25.7570   18.4080 C.2    27  GLY27       0.2280
     20  O         39.6840   26.4230   18.1760 O.2    27  GLY27      -0.2866
     21  N         30.9990   11.1840   21.1860 N.3    54  HIS54      -0.1241
     22  CA        30.9530   12.5970   21.5530 C.3    54  HIS54       0.1621
     23  C         30.9460   13.4160   20.2580 C.2    54  HIS54       0.2264
     24  O         31.9890   13.5440   19.6110 O.2    54  HIS54      -0.2867
     25  CB        32.1370   12.9970   22.4480 C.3    54  HIS54       0.0745
     26  CG        32.1150   14.4240   22.8910 C.ar   54  HIS54       0.0817
     27  ND1       31.3690   14.8630   23.9610 N.ar   54  HIS54      -0.2268
     28  CD2       32.7930   15.5070   22.4310 C.ar   54  HIS54       0.1154
     29  CE1       31.5860   16.1590   24.1400 C.ar   54  HIS54       0.1986
     30  NE2       32.4410   16.5760   23.2130 N.ar   54  HIS54      -0.2212
     31  N         30.2020   16.8330   18.0510 N.3    56  VAL56      -0.1245
     32  CA        30.1930   18.2870   18.1910 C.3    56  VAL56       0.1561
     33  C         30.0220   18.9300   16.8080 C.2    56  VAL56       0.2260
     34  O         30.7680   18.6210   15.8760 O.2    56  VAL56      -0.2867
     35  CB        31.4940   18.7890   18.8100 C.3    56  VAL56       0.0252
     36  CG1       31.4240   20.2850   19.0040 C.3    56  VAL56       0.0019
     37  CG2       31.7760   18.1040   20.1350 C.3    56  VAL56       0.0019
     38  N         31.0250   21.8850   15.3280 N.3    58  LEU58      -0.1245
     39  CA        31.9730   22.9790   15.6230 C.3    58  LEU58       0.1561
     40  C         31.6240   24.2630   14.8690 C.2    58  LEU58       0.2260
     41  O         31.8530   25.3700   15.3920 O.2    58  LEU58      -0.2867
     42  CB        33.4020   22.5690   15.2600 C.3    58  LEU58       0.0270
     43  CG        34.3130   21.8300   16.1740 C.3    58  LEU58       0.0019
     44  CD1       35.6860   21.9010   15.5250 C.3    58  LEU58       0.0001
     45  CD2       34.3280   22.4860   17.5390 C.3    58  LEU58       0.0001
     46  N         29.2640   25.9250   17.0690 N.3    61  ALA61      -0.1231
     47  CA        29.9470   26.5380   18.2450 C.3    61  ALA61       0.1694
     48  C         30.6190   27.8590   17.8510 C.2    61  ALA61       0.2592
     49  O         30.4990   28.8790   18.5690 O.2    61  ALA61      -0.2718
     50  CB        30.9700   25.5650   18.8450 C.3    61  ALA61       0.0304
     51  N         31.2820   27.8880   16.7000 N.am   62  PHE62      -0.1976
     52  CA        31.9620   29.1110   16.2230 C.3    62  PHE62       0.1639
     53  C         31.0340   30.1500   15.6850 C.2    62  PHE62       0.2290
     54  O         31.4180   31.3210   15.5500 O.2    62  PHE62      -0.2864
     55  CB        32.9610   28.8090   15.1180 C.3    62  PHE62       0.0560
     56  CG        34.2770   28.2940   15.5980 C.ar   62  PHE62      -0.0200
     57  CD1       35.1520   29.1110   16.2760 C.ar   62  PHE62      -0.0042
     58  CD2       34.6630   26.9990   15.3130 C.ar   62  PHE62      -0.0042
     59  CE1       36.3840   28.6300   16.6950 C.ar   62  PHE62      -0.0003
     60  CE2       35.8920   26.5100   15.7380 C.ar   62  PHE62      -0.0003
     61  CZ        36.7490   27.3280   16.4020 C.ar   62  PHE62      -0.0000
     62  N         26.6230   18.2260   20.9950 N.3    84  SER84      -0.1202
     63  CA        26.7980   19.6080   21.3950 C.3    84  SER84       0.2020
     64  C         27.1270   20.4930   20.2060 C.2    84  SER84       0.2619
     65  O         27.3730   20.0160   19.0840 O.2    84  SER84      -0.2717
     66  CB        27.8880   19.7040   22.4470 C.3    84  SER84       0.2103
     67  OG        29.1530   19.3680   21.9180 O.3    84  SER84      -0.2182
     68  N         27.1530   21.7990   20.4780 N.am   85  GLY85      -0.1942
     69  CA        27.4530   22.8210   19.4910 C.3    85  GLY85       0.2014
     70  C         26.1960   23.6110   19.1110 C.2    85  GLY85       0.2639
     71  O         25.2590   23.0800   18.4440 O.2    85  GLY85      -0.2714
     72  N         26.1570   24.8810   19.5130 N.am   86  GLY86      -0.1939
     73  CA        25.0570   25.7840   19.1910 C.3    86  GLY86       0.2014
     74  C         23.8060   25.6770   20.0410 C.2    86  GLY86       0.2639
     75  O         22.7950   26.3210   19.7040 O.2    86  GLY86      -0.2714
     76  N         23.8420   24.9000   21.1250 N.am   87  ILE87      -0.1963
     77  CA        22.6070   24.6340   21.8840 C.3    87  ILE87       0.1727
     78  C         22.5130   25.7320   22.9410 C.2    87  ILE87       0.2616
     79  O         23.0800   25.6450   24.0360 O.2    87  ILE87      -0.2715
     80  CB        22.5730   23.2350   22.4900 C.3    87  ILE87       0.0290
     81  CG1       22.7890   22.1690   21.4270 C.3    87  ILE87       0.0022
     82  CG2       21.2610   23.0140   23.2430 C.3    87  ILE87       0.0023
     83  CD1       23.0000   20.8020   21.9550 C.3    87  ILE87       0.0001
     84  N         21.7950   26.7850   22.5820 N.am   88  ARG88      -0.1977
     85  CA        21.8540   28.0590   23.3040 C.3    88  ARG88       0.1597
     86  C         20.5060   28.7080   23.6010 C.2    88  ARG88       0.2287
     87  O         20.4400   29.7640   24.2460 O.2    88  ARG88      -0.2864
     88  CB        22.6790   29.0260   22.4820 C.3    88  ARG88       0.0334
     89  CG        24.1450   28.6240   22.4050 C.3    88  ARG88       0.0492
     90  CD        24.9170   29.5220   21.5350 C.3    88  ARG88       0.2205
     91  NE        26.2360   28.9620   21.2660 N.pl3  88  ARG88      -0.0865
     92  CZ        27.1710   29.5680   20.5410 C.cat  88  ARG88       0.5346
     93  NH1       26.9480   30.7840   20.0510 N.pl3  88  ARG88       0.1354
     94  NH2       28.3150   28.9730   20.3390 N.pl3  88  ARG88       0.1354
     95  N         25.4700   18.5900   25.5700 N.3   105  ASN105     -0.1225
     96  CA        26.3300   19.4520   26.3950 C.3   105  ASN105      0.1785
     97  C         26.0560   20.9020   26.0540 C.2   105  ASN105      0.2597
     98  O         25.9710   21.2520   24.8620 O.2   105  ASN105     -0.2718
     99  CB        27.8490   19.2500   26.1950 C.3   105  ASN105      0.1169
    100  CG        28.3740   17.9000   26.5660 C.2   105  ASN105      0.2627
    101  OD1       29.5710   17.6210   26.3070 O.2   105  ASN105     -0.2716
    102  ND2       27.5620   17.0670   27.2220 N.am  105  ASN105     -0.0877
    103  N         25.9270   21.7450   27.0770 N.am  106  LEU106     -0.1966
    104  CA        25.7880   23.1920   26.8860 C.3   106  LEU106      0.1728
    105  C         27.0860   23.8640   27.2620 C.2   106  LEU106      0.2617
    106  O         27.5840   23.6420   28.3570 O.2   106  LEU106     -0.2715
    107  CB        24.6690   23.7420   27.7630 C.3   106  LEU106      0.0311
    108  CG        23.3850   22.9320   27.7420 C.3   106  LEU106      0.0022
    109  CD1       22.4140   23.5070   28.7770 C.3   106  LEU106      0.0001
    110  CD2       22.8110   22.9490   26.3480 C.3   106  LEU106      0.0001
    111  N         27.5890   24.7570   26.4140 N.am  107  GLY107     -0.1940
    112  CA        28.8200   25.5000   26.6990 C.3   107  GLY107      0.2014
    113  C         28.5570   26.9840   26.9100 C.2   107  GLY107      0.2640
    114  O         28.4160   27.4380   28.0350 O.2   107  GLY107     -0.2714
    115  N         28.4770   27.7260   25.8050 N.am  108  THR108     -0.1936
    116  CA        28.2740   29.1660   25.8360 C.3   108  THR108      0.2028
    117  C         27.1060   29.5630   26.7080 C.2   108  THR108      0.2642
    118  O         27.1610   30.5900   27.3770 O.2   108  THR108     -0.2714
    119  CB        28.0540   29.7230   24.3870 C.3   108  THR108      0.1808
    120  OG1       29.2270   29.4420   23.6190 O.3   108  THR108     -0.2208
    121  CG2       27.7970   31.2020   24.3830 C.3   108  THR108      0.0379
    122  N         26.0030   28.8160   26.6300 N.am  109  ALA109     -0.1977
    123  CA        24.8100   29.2370   27.3650 C.3   109  ALA109      0.1597
    124  C         25.0190   29.2620   28.8580 C.2   109  ALA109      0.2287
    125  O         24.4020   30.0510   29.5460 O.2   109  ALA109     -0.2864
    126  CB        23.6430   28.3420   27.0360 C.3   109  ALA109      0.0319
    127  N         29.2880   21.7220   29.5010 N.3   131  GLY131     -0.1225
    128  CA        30.6670   21.7180   29.0580 C.3   131  GLY131      0.1811
    129  C         31.3900   22.9440   29.5880 C.2   131  GLY131      0.2280
    130  O         31.0500   24.0840   29.2330 O.2   131  GLY131     -0.2866
    131  N         34.9340   24.5390   29.5350 N.3   133  ASP133     -0.1239
    132  CA        36.1670   24.5320   28.7600 C.3   133  ASP133      0.1674
    133  C         36.9920   25.7000   29.1810 C.2   133  ASP133      0.2266
    134  O         36.5450   26.8280   29.1190 O.2   133  ASP133     -0.2867
    135  CB        35.8210   24.5670   27.2800 C.3   133  ASP133      0.1410
    136  CG        35.0130   23.3630   26.8560 C.2   133  ASP133      0.3668
    137  OD1       35.0890   22.2800   27.5040 O.co2 133  ASP133     -0.2456
    138  OD2       34.2800   23.4850   25.8610 O.co2 133  ASP133     -0.2456
    139  N         33.8200   30.5930   25.8870 N.3   141  GLY141     -0.1210
    140  CA        32.6390   30.3020   25.0640 C.3   141  GLY141      0.1956
    141  C         32.8150   30.6150   23.6050 C.2   141  GLY141      0.2612
    142  O         33.9070   30.9570   23.1430 O.2   141  GLY141     -0.2717
    143  N         31.7270   30.4860   22.8410 N.am  142  ARG142     -0.1965
    144  CA        31.6950   30.8190   21.4400 C.3   142  ARG142      0.1729
    145  C         32.8660   30.2120   20.6340 C.2   142  ARG142      0.2617
    146  O         33.5620   30.9060   19.8880 O.2   142  ARG142     -0.2715
    147  CB        31.6400   32.3220   21.2750 C.3   142  ARG142      0.0348
    148  CG        30.3130   32.8460   21.8200 C.3   142  ARG142      0.0492
    149  CD        29.9730   34.2220   21.3960 C.3   142  ARG142      0.2205
    150  NE        28.6250   34.5480   21.8540 N.pl3 142  ARG142     -0.0865
    151  CZ        27.5470   34.6390   21.0730 C.cat 142  ARG142      0.5346
    152  NH1       27.6160   34.4590   19.7460 N.pl3 142  ARG142      0.1354
    153  NH2       26.3760   34.9590   21.6200 N.pl3 142  ARG142      0.1354
    154  N         33.0390   28.9080   20.7760 N.am  143  GLY143     -0.1940
    155  CA        34.0960   28.2340   20.0250 C.3   143  GLY143      0.2014
    156  C         35.4600   28.5130   20.6450 C.2   143  GLY143      0.2638
    157  O         36.5130   28.3380   19.9930 O.2   143  GLY143     -0.2714
    158  N         35.4110   28.9460   21.8920 N.am  144  TRP144     -0.1973
    159  CA        36.5320   29.2910   22.7690 C.3   144  TRP144      0.1640
    160  C         37.1470   30.6520   22.4110 C.2   144  TRP144      0.2290
    161  O         38.3230   30.9300   22.7420 O.2   144  TRP144     -0.2864
    162  CB        37.5940   28.1870   22.7730 C.3   144  TRP144      0.0576
    163  CG        37.0470   26.8360   23.2130 C.ar  144  TRP144      0.0006
    164  CD1       35.8670   26.5940   23.8390 C.ar  144  TRP144      0.0946
    165  CD2       37.6750   25.5710   23.0450 C.ar  144  TRP144      0.0152
    166  NE1       35.7180   25.2580   24.0860 N.ar  144  TRP144     -0.2442
    167  CE2       36.8150   24.5980   23.5940 C.ar  144  TRP144      0.0810
    168  CE3       38.8900   25.1580   22.5010 C.ar  144  TRP144      0.0012
    169  CZ2       37.1340   23.2530   23.6180 C.ar  144  TRP144      0.0191
    170  CZ3       39.1980   23.8050   22.5090 C.ar  144  TRP144      0.0001
    171  CH2       38.3140   22.8630   23.0390 C.ar  144  TRP144      0.0015
    172  N         37.1070   20.4590   29.5900 N.3   169  THR169     -0.1218
    173  CA        38.2210   20.4520   28.6220 C.3   169  THR169      0.1862
    174  C         39.2920   21.4010   29.0630 C.2   169  THR169      0.2287
    175  O         38.9870   22.5610   29.3460 O.2   169  THR169     -0.2866
    176  CB        37.7870   20.8770   27.1970 C.3   169  THR169      0.1770
    177  OG1       36.6600   20.0960   26.7550 O.3   169  THR169     -0.2211
    178  CG2       38.9380   20.7200   26.2110 C.3   169  THR169      0.0375
    179  N         44.1120   20.4570   24.4050 N.3   174  ASP174     -0.1239
    180  CA        43.3060   19.8770   23.3760 C.3   174  ASP174      0.1674
    181  C         44.0140   19.9050   22.0250 C.2   174  ASP174      0.2266
    182  O         44.5320   20.9290   21.5830 O.2   174  ASP174     -0.2867
    183  CB        41.9720   20.5840   23.3260 C.3   174  ASP174      0.1410
    184  CG        40.8890   19.7160   22.7350 C.2   174  ASP174      0.3668
    185  OD1       40.5190   20.0200   21.5860 O.co2 174  ASP174     -0.2456
    186  OD2       40.4540   18.7250   23.3910 O.co2 174  ASP174     -0.2456
@<TRIPOS>BOND
     1     4     3    2
     2     3     2    1
     3    15    14    1
     4    40    41    2
     5    40    39    1
     6    55    56    1
     7    55    52    1
     8    14    16    1
     9    14    13    1
    10    42    39    1
    11    42    43    1
    12    58    56   ar
    13    58    60   ar
    14    38    39    1
    15    44    43    1
    16    54    53    2
    17    56    57   ar
    18    53    52    1
    19     2     1    1
    20     2     5    1
    21    60    61   ar
    22     9    10    1
    23    34    33    2
    24    10    13    1
    25    10    11    1
    26    43    45    1
    27    52    51    1
    28    57    59   ar
    29     5     6    1
    30    61    59   ar
    31    51    48   am
    32    33    32    1
    33    11    12    2
    34    46    47    1
    35     6     8   ar
    36     6     7   ar
    37    48    47    1
    38    48    49    2
    39    31    32    1
    40    20    19    2
    41    32    35    1
    42    47    50    1
    43    19    18    1
    44    71    70    2
    45    35    36    1
    46    35    37    1
    47    65    64    2
    48    70    69    1
    49    70    72   am
    50    73    72    1
    51    73    74    1
    52    18    17    1
    53    69    68    1
    54    24    23    2
    55    75    74    2
    56   152   151    1
    57   146   145    2
    58   157   156    2
    59   155   156    1
    60   155   154    1
    61    74    76   am
    62    93    92    1
    63    64    68   am
    64    64    63    1
    65    23    22    1
    66    94    92    1
    67    92    91    2
    68   145   154   am
    69   145   144    1
    70   156   158   am
    71    62    63    1
    72   151   153    1
    73   151   150    2
    74    76    77    1
    75    21    22    1
    76    91    90    1
    77   147   144    1
    78   147   148    1
    79    63    66    1
    80   149   148    1
    81   149   150    1
    82    81    83    1
    83    81    80    1
    84   144   143    1
    85    90    89    1
    86    22    25    1
    87   182   181    2
    88   185   184   ar
    89    77    80    1
    90    77    78    1
    91   158   159    1
    92    67    66    1
    93   181   180    1
    94    89    88    1
    95   160   161    2
    96   160   159    1
    97    28    26   ar
    98    28    30   ar
    99    25    26    1
   100    88    85    1
   101    80    82    1
   102   168   170   ar
   103   168   165   ar
   104   170   171   ar
   105    84    78   am
   106    84    85    1
   107   184   183    1
   108   184   186   ar
   109   159   162    1
   110   162   163    1
   111   143   141   am
   112    26    27   ar
   113    78    79    2
   114   171   169   ar
   115   165   163   ar
   116   165   167   ar
   117   142   141    2
   118   163   164   ar
   119    30    29   ar
   120    85    86    1
   121   183   180    1
   122   180   179    1
   123   167   169   ar
   124   167   166   ar
   125    86    87    2
   126   141   140    1
   127   120   119    1
   128   164   166   ar
   129    27    29   ar
   130   121   119    1
   131   119   116    1
   132    98    97    2
   133   140   139    1
   134    95    96    1
   135   115   116    1
   136   115   113   am
   137   116   117    1
   138   138   136   ar
   139    97    96    1
   140    97   103   am
   141    99    96    1
   142    99   100    1
   143   178   176    1
   144   101   100    2
   145   110   108    1
   146   111   112    1
   147   111   105   am
   148   100   102   am
   149   122   117   am
   150   122   123    1
   151   112   113    1
   152   117   118    2
   153   177   176    1
   154   136   135    1
   155   136   137   ar
   156   104   103    1
   157   104   105    1
   158   104   107    1
   159   113   114    2
   160   126   123    1
   161   176   173    1
   162   105   106    2
   163   135   132    1
   164   123   124    1
   165   108   107    1
   166   108   109    1
   167   173   174    1
   168   173   172    1
   169   132   133    1
   170   132   131    1
   171   124   125    2
   172   128   127    1
   173   128   129    1
   174   174   175    2
   175   134   133    2
   176   130   129    2
