@<TRIPOS>MOLECULE
tmp/4txcA00.pdb
 183 169 0 0 0
SMALL
GASTEIGER

@<TRIPOS>ATOM
      1  N         54.2740   87.8310   19.4410 N.3    18  LEU18      -0.1231
      2  CA        54.8770   86.8640   18.5330 C.3    18  LEU18       0.1693
      3  C         56.1510   86.2750   19.1190 C.2    18  LEU18       0.2593
      4  O         56.5040   85.1260   18.8570 O.2    18  LEU18      -0.2718
      5  CB        55.1700   87.5220   17.1820 C.3    18  LEU18       0.0284
      6  CG        53.9550   88.0470   16.4130 C.3    18  LEU18       0.0019
      7  CD1       54.3840   88.8480   15.1840 C.3    18  LEU18       0.0001
      8  CD2       53.0450   86.8810   16.0230 C.3    18  LEU18       0.0001
      9  N         56.8410   87.0750   19.9160 N.am   19  GLY19      -0.1942
     10  CA        58.0860   86.6510   20.5210 C.3    19  GLY19       0.2014
     11  C         58.5270   87.6930   21.5240 C.2    19  GLY19       0.2640
     12  O         58.0040   88.8070   21.5390 O.2    19  GLY19      -0.2714
     13  N         59.4850   87.3380   22.3690 N.am   20  SER20      -0.1935
     14  CA        59.9890   88.2910   23.3510 C.3    20  SER20       0.2055
     15  C         61.4190   87.9570   23.7530 C.2    20  SER20       0.2643
     16  O         61.7880   86.7870   23.8750 O.2    20  SER20      -0.2714
     17  CB        59.0880   88.3200   24.5860 C.3    20  SER20       0.2130
     18  OG        59.1150   87.0710   25.2470 O.3    20  SER20      -0.2179
     19  N         62.2210   88.9990   23.9370 N.am   21  GLY21      -0.1954
     20  CA        63.5980   88.8410   24.3550 C.3    21  GLY21       0.1869
     21  C         63.7660   89.4630   25.7200 C.2    21  GLY21       0.2309
     22  O         62.7770   89.7950   26.3810 O.2    21  GLY21      -0.2863
     23  N         63.0280   93.2450   24.7180 N.3    24  ALA24      -0.1245
     24  CA        62.1260   93.5350   23.6080 C.3    24  ALA24       0.1562
     25  C         60.9580   92.5590   23.5440 C.2    24  ALA24       0.2260
     26  O         61.0590   91.4200   24.0100 O.2    24  ALA24      -0.2867
     27  CB        62.9070   93.5280   22.2910 C.3    24  ALA24       0.0290
     28  N         57.9520   91.4780   20.4660 N.3    26  VAL26      -0.1245
     29  CA        57.4070   91.6740   19.1230 C.3    26  VAL26       0.1561
     30  C         55.9270   91.2710   19.0980 C.2    26  VAL26       0.2260
     31  O         55.5710   90.1690   19.5490 O.2    26  VAL26      -0.2867
     32  CB        58.1880   90.8630   18.0590 C.3    26  VAL26       0.0252
     33  CG1       57.5920   91.0830   16.6490 C.3    26  VAL26       0.0019
     34  CG2       59.6690   91.2320   18.0720 C.3    26  VAL26       0.0019
     35  N         54.6000   93.9240   11.8850 N.3    39  ALA39      -0.1245
     36  CA        55.0800   93.5220   13.2020 C.3    39  ALA39       0.1562
     37  C         55.5910   94.7630   13.9400 C.2    39  ALA39       0.2260
     38  O         56.1750   95.6620   13.3190 O.2    39  ALA39      -0.2867
     39  CB        56.2020   92.4700   13.0780 C.3    39  ALA39       0.0290
     40  N         58.1150   95.8560   16.9980 N.3    41  LYS41      -0.1245
     41  CA        59.1110   95.5000   18.0090 C.3    41  LYS41       0.1561
     42  C         59.2610   96.6310   19.0290 C.2    41  LYS41       0.2260
     43  O         59.7460   97.7150   18.6910 O.2    41  LYS41      -0.2867
     44  CB        60.4760   95.1990   17.3830 C.3    41  LYS41       0.0271
     45  CG        61.5180   94.6760   18.4110 C.3    41  LYS41       0.0035
     46  CD        62.9270   94.6080   17.7950 C.3    41  LYS41       0.0206
     47  CE        63.9420   93.9730   18.7650 C.3    41  LYS41       0.1093
     48  NZ        65.2940   93.8760   18.1160 N.3    41  LYS41      -0.1314
     49  N         70.9280   99.7040   15.2090 N.3    63  GLU63      -0.1245
     50  CA        70.0250   98.7680   14.5300 C.3    63  GLU63       0.1567
     51  C         69.0960   99.4940   13.5600 C.2    63  GLU63       0.2260
     52  O         68.8920   99.0310   12.4400 O.2    63  GLU63      -0.2867
     53  CB        69.1870   97.9440   15.5110 C.3    63  GLU63       0.0388
     54  CG        68.1210   97.1360   14.7480 C.3    63  GLU63       0.1160
     55  CD        67.4160   96.0700   15.5490 C.2    63  GLU63       0.3649
     56  OE1       67.4740   96.0960   16.7890 O.co2  63  GLU63      -0.2457
     57  OE2       66.7780   95.2070   14.9100 O.co2  63  GLU63      -0.2457
     58  N         68.7740   98.8080    9.4390 N.3    67  LEU67      -0.1245
     59  CA        67.4780   98.4230    8.8800 C.3    67  LEU67       0.1561
     60  C         66.9870   99.4210    7.8370 C.2    67  LEU67       0.2260
     61  O         66.3720   99.0300    6.8390 O.2    67  LEU67      -0.2867
     62  CB        66.4340   98.2860   10.0040 C.3    67  LEU67       0.0270
     63  CG        66.6100   97.1300   10.9850 C.3    67  LEU67       0.0019
     64  CD1       65.6200   97.2510   12.1590 C.3    67  LEU67       0.0001
     65  CD2       66.4390   95.8140   10.2830 C.3    67  LEU67       0.0001
     66  N         64.1760   91.1280    6.3960 N.3    76  ILE76      -0.1245
     67  CA        63.0990   91.9660    6.9080 C.3    76  ILE76       0.1561
     68  C         63.2620   93.4580    6.5370 C.2    76  ILE76       0.2260
     69  O         64.3760   93.9830    6.4560 O.2    76  ILE76      -0.2867
     70  CB        62.9970   91.7880    8.4550 C.3    76  ILE76       0.0252
     71  CG1       61.5660   91.9870    8.9080 C.3    76  ILE76       0.0019
     72  CG2       64.0470   92.6190    9.2410 C.3    76  ILE76       0.0019
     73  CD1       60.7560   90.8030    8.5300 C.3    76  ILE76       0.0001
     74  N         59.7170   99.7830   16.6380 N.3    90  LEU90      -0.1245
     75  CA        60.0010   99.5360   15.2280 C.3    90  LEU90       0.1561
     76  C         58.7970   98.8710   14.5590 C.2    90  LEU90       0.2260
     77  O         58.3940   97.7770   14.9610 O.2    90  LEU90      -0.2867
     78  CB        61.2330   98.6320   15.0490 C.3    90  LEU90       0.0270
     79  CG        62.5490   98.9730   15.7610 C.3    90  LEU90       0.0019
     80  CD1       63.7040   98.1100   15.2330 C.3    90  LEU90       0.0001
     81  CD2       62.8830  100.4370   15.6090 C.3    90  LEU90       0.0001
     82  N         57.7630   96.8710   11.4900 N.3    92  LEU92      -0.1231
     83  CA        58.5240   96.0380   10.5670 C.3    92  LEU92       0.1693
     84  C         57.6110   95.1940    9.6890 C.2    92  LEU92       0.2592
     85  O         56.4900   94.8680   10.0920 O.2    92  LEU92      -0.2718
     86  CB        59.4560   95.1060   11.3500 C.3    92  LEU92       0.0284
     87  CG        60.4380   95.8000   12.3010 C.3    92  LEU92       0.0019
     88  CD1       60.5980   94.9880   13.5760 C.3    92  LEU92       0.0001
     89  CD2       61.7770   95.9730   11.5820 C.3    92  LEU92       0.0001
     90  N         58.1080   94.8390    8.5050 N.am   93  GLU93      -0.1966
     91  CA        57.4440   93.8530    7.6400 C.3    93  GLU93       0.1733
     92  C         57.0940   92.6180    8.4700 C.2    93  GLU93       0.2616
     93  O         57.9370   92.1100    9.2030 O.2    93  GLU93      -0.2715
     94  CB        58.3500   93.4690    6.4630 C.3    93  GLU93       0.0429
     95  CG        57.8000   92.3390    5.5600 C.3    93  GLU93       0.1163
     96  CD        58.7890   91.9170    4.4690 C.2    93  GLU93       0.3649
     97  OE1       60.0010   92.1680    4.6350 O.co2  93  GLU93      -0.2457
     98  OE2       58.3570   91.3450    3.4420 O.co2  93  GLU93      -0.2457
     99  N         55.8570   92.1400    8.3750 N.am   94  LEU94      -0.1963
    100  CA        55.4540   90.9500    9.1270 C.3    94  LEU94       0.1728
    101  C         55.9160   89.6570    8.4650 C.2    94  LEU94       0.2616
    102  O         55.7250   89.4700    7.2590 O.2    94  LEU94      -0.2715
    103  CB        53.9300   90.9180    9.3020 C.3    94  LEU94       0.0311
    104  CG        53.3170   89.6820    9.9770 C.3    94  LEU94       0.0022
    105  CD1       53.7070   89.5870   11.4570 C.3    94  LEU94       0.0001
    106  CD2       51.7920   89.7040    9.8230 C.3    94  LEU94       0.0001
    107  N         56.5200   88.7670    9.2520 N.am   95  VAL95      -0.1977
    108  CA        56.7960   87.4160    8.7770 C.3    95  VAL95       0.1596
    109  C         56.0440   86.4270    9.6770 C.2    95  VAL95       0.2287
    110  O         56.3840   86.2210   10.8370 O.2    95  VAL95      -0.2864
    111  CB        58.3260   87.1060    8.7130 C.3    95  VAL95       0.0276
    112  CG1       58.9690   87.9780    7.6540 C.3    95  VAL95       0.0022
    113  CG2       59.0140   87.3460   10.0330 C.3    95  VAL95       0.0022
    114  N         59.5030   79.8230   12.5250 N.3    99  GLU99      -0.1245
    115  CA        60.9060   79.4790   12.2910 C.3    99  GLU99       0.1567
    116  C         61.0310   78.4130   11.2050 C.2    99  GLU99       0.2260
    117  O         60.2330   77.4730   11.1420 O.2    99  GLU99      -0.2867
    118  CB        61.5660   79.0000   13.5910 C.3    99  GLU99       0.0388
    119  CG        61.4990   80.0330   14.7020 C.3    99  GLU99       0.1160
    120  CD        62.0340   79.5270   16.0390 C.2    99  GLU99       0.3649
    121  OE1       62.8740   78.6000   16.0490 O.co2  99  GLU99      -0.2457
    122  OE2       61.6150   80.0740   17.0840 O.co2  99  GLU99      -0.2457
    123  N         71.4010   82.4400   13.3890 N.3   140  LYS140     -0.1245
    124  CA        71.1200   81.1640   14.0400 C.3   140  LYS140      0.1561
    125  C         69.7200   80.7780   13.6080 C.2   140  LYS140      0.2260
    126  O         68.9850   81.6260   13.1200 O.2   140  LYS140     -0.2867
    127  CB        71.2450   81.2710   15.5690 C.3   140  LYS140      0.0271
    128  CG        70.3870   82.3270   16.1870 C.3   140  LYS140      0.0035
    129  CD        70.6670   82.4620   17.6760 C.3   140  LYS140      0.0206
    130  CE        69.8940   83.6260   18.2570 C.3   140  LYS140      0.1093
    131  NZ        69.8460   83.5470   19.7450 N.3   140  LYS140     -0.1314
    132  N         66.8650   80.3190   14.9790 N.3   142  GLU142     -0.1231
    133  CA        65.6720   81.0610   15.4120 C.3   142  GLU142      0.1699
    134  C         65.5230   82.4380   14.7320 C.2   142  GLU142      0.2592
    135  O         64.4500   83.0260   14.7900 O.2   142  GLU142     -0.2718
    136  CB        65.6390   81.2170   16.9460 C.3   142  GLU142      0.0402
    137  CG        66.8740   81.8550   17.5440 C.3   142  GLU142      0.1161
    138  CD        66.9680   81.6070   19.0570 C.2   142  GLU142      0.3649
    139  OE1       65.9110   81.5740   19.7310 O.co2 142  GLU142     -0.2457
    140  OE2       68.0940   81.4260   19.5850 O.co2 142  GLU142     -0.2457
    141  N         66.5710   82.9330   14.0780 N.am  143  ASN143     -0.1974
    142  CA        66.4470   84.1980   13.3540 C.3   143  ASN143      0.1688
    143  C         66.2240   84.0090   11.8520 C.2   143  ASN143      0.2292
    144  O         66.2880   84.9700   11.0680 O.2   143  ASN143     -0.2864
    145  CB        67.6840   85.0630   13.6030 C.3   143  ASN143      0.1181
    146  CG        67.7250   85.6090   15.0160 C.2   143  ASN143      0.2629
    147  OD1       66.6840   85.7630   15.6500 O.2   143  ASN143     -0.2716
    148  ND2       68.9250   85.8890   15.5220 N.am  143  ASN143     -0.0877
    149  N         63.2940   83.0210    9.5450 N.3   145  MET145     -0.1245
    150  CA        61.8310   82.8830    9.5970 C.3   145  MET145      0.1570
    151  C         61.2350   82.6050    8.2150 C.2   145  MET145      0.2261
    152  O         61.9130   82.7500    7.1980 O.2   145  MET145     -0.2867
    153  CB        61.1920   84.1490   10.1700 C.3   145  MET145      0.0387
    154  CG        61.5560   84.4490   11.6250 C.3   145  MET145      0.0595
    155  SD        60.8220   83.2680   12.7660 S.3   145  MET145     -0.1393
    156  CE        59.2440   84.0170   13.0380 C.3   145  MET145      0.0692
    157  N         65.8130   87.7650   10.3060 N.3   159  ILE159     -0.1231
    158  CA        65.4060   88.7970   11.2490 C.3   159  ILE159      0.1692
    159  C         66.4530   89.0600   12.3440 C.2   159  ILE159      0.2592
    160  O         67.5280   88.4600   12.3460 O.2   159  ILE159     -0.2718
    161  CB        64.0890   88.4220   11.9440 C.3   159  ILE159      0.0266
    162  CG1       64.2970   87.1620   12.7960 C.3   159  ILE159      0.0019
    163  CG2       62.9620   88.2260   10.9220 C.3   159  ILE159      0.0020
    164  CD1       63.1970   86.9400   13.8260 C.3   159  ILE159      0.0001
    165  N         66.0840   89.9490   13.2640 N.am  160  ASP160     -0.1960
    166  CA        66.8440   90.3330   14.4630 C.3   160  ASP160      0.1840
    167  C         68.2270   90.9150   14.1670 C.2   160  ASP160      0.2622
    168  O         69.2390   90.2010   14.1560 O.2   160  ASP160     -0.2715
    169  CB        66.9860   89.1570   15.4290 C.3   160  ASP160      0.1450
    170  CG        67.4390   89.6070   16.8120 C.2   160  ASP160      0.3671
    171  OD1       67.9360   90.7480   16.9410 O.co2 160  ASP160     -0.2456
    172  OD2       67.2940   88.8320   17.7720 O.co2 160  ASP160     -0.2456
    173  N         68.2500   92.2280   13.9730 N.am  161  PHE161     -0.1974
    174  CA        69.4680   92.9560   13.6440 C.3   161  PHE161      0.1639
    175  C         70.0240   93.6970   14.8720 C.2   161  PHE161      0.2290
    176  O         70.7080   94.7070   14.7440 O.2   161  PHE161     -0.2864
    177  CB        69.2010   93.9100   12.4790 C.3   161  PHE161      0.0560
    178  CG        69.1880   93.2110   11.1500 C.ar  161  PHE161     -0.0200
    179  CD1       68.1230   92.3940   10.8000 C.ar  161  PHE161     -0.0042
    180  CD2       70.2700   93.3120   10.2880 C.ar  161  PHE161     -0.0042
    181  CE1       68.1210   91.7080    9.5860 C.ar  161  PHE161     -0.0003
    182  CE2       70.2810   92.6350    9.0760 C.ar  161  PHE161     -0.0003
    183  CZ        69.2120   91.8380    8.7230 C.ar  161  PHE161     -0.0000
@<TRIPOS>BOND
     1    98    96   ar
     2    96    97   ar
     3    96    95    1
     4    95    94    1
     5    66    67    1
     6    69    68    2
     7    94    91    1
     8    68    67    1
     9    61    60    2
    10    67    70    1
    11   152   151    2
    12   102   101    2
    13    91    92    1
    14    91    90    1
    15   112   111    1
    16    60    59    1
    17   151   150    1
    18    99    92   am
    19    99   100    1
    20    70    71    1
    21    70    72    1
    22   101   100    1
    23   101   107   am
    24    92    93    2
    25    90    84   am
    26    73    71    1
    27   111   108    1
    28   111   113    1
    29   183   182   ar
    30   183   181   ar
    31   108   107    1
    32   108   109    1
    33    59    58    1
    34    59    62    1
    35   182   180   ar
    36   100   103    1
    37   103   104    1
    38   149   150    1
    39   181   179   ar
    40   150   153    1
    41   109   110    2
    42    84    85    2
    43    84    83    1
    44   106   104    1
    45   104   105    1
    46    62    63    1
    47   153   154    1
    48    65    63    1
    49   180   178   ar
    50   157   158    1
    51    83    86    1
    52    83    82    1
    53   179   178   ar
    54   163   161    1
    55    63    64    1
    56   144   143    2
    57   117   116    2
    58   178   177    1
    59   116   115    1
    60   158   161    1
    61   158   159    1
    62    86    87    1
    63    89    87    1
    64   154   155    1
    65   143   142    1
    66    35    36    1
    67   161   162    1
    68   115   114    1
    69   115   118    1
    70    87    88    1
    71   159   160    2
    72   159   165   am
    73    52    51    2
    74   177   174    1
    75   155   156    1
    76   162   164    1
    77    39    36    1
    78   126   125    2
    79    36    37    1
    80   165   166    1
    81    38    37    2
    82   142   145    1
    83   142   141    1
    84   123   124    1
    85    51    50    1
    86   118   119    1
    87   145   146    1
    88   125   124    1
    89   174   173    1
    90   174   175    1
    91   173   167   am
    92   124   127    1
    93   141   134   am
    94   168   167    2
    95   167   166    1
    96   166   169    1
    97    50    49    1
    98    50    53    1
    99    76    77    2
   100    76    75    1
   101   119   120    1
   102   134   135    2
   103   134   133    1
   104   176   175    2
   105    54    53    1
   106    54    55    1
   107    57    55   ar
   108   132   133    1
   109   146   148   am
   110   146   147    2
   111    78    75    1
   112    78    79    1
   113     7     6    1
   114    75    74    1
   115    80    79    1
   116   133   136    1
   117   169   170    1
   118    55    56   ar
   119   127   128    1
   120    81    79    1
   121     8     6    1
   122   120   121   ar
   123   120   122   ar
   124   128   129    1
   125     6     5    1
   126    33    32    1
   127   170   171   ar
   128   170   172   ar
   129   136   137    1
   130    40    41    1
   131     5     2    1
   132    44    41    1
   133    44    45    1
   134   137   138    1
   135   129   130    1
   136    46    45    1
   137    46    47    1
   138    41    42    1
   139    32    34    1
   140    32    29    1
   141    48    47    1
   142   130   131    1
   143     2     3    1
   144     2     1    1
   145    43    42    2
   146     4     3    2
   147   138   140   ar
   148   138   139   ar
   149    30    29    1
   150    30    31    2
   151     3     9   am
   152    29    28    1
   153     9    10    1
   154    10    11    1
   155    11    12    2
   156    11    13   am
   157    27    24    1
   158    13    14    1
   159    14    15    1
   160    14    17    1
   161    25    24    1
   162    25    26    2
   163    24    23    1
   164    15    16    2
   165    15    19   am
   166    19    20    1
   167    20    21    1
   168    17    18    1
   169    21    22    2
