@<TRIPOS>MOLECULE
tmp/4txeA00.pdb
 142 132 0 0 0
SMALL
GASTEIGER

@<TRIPOS>ATOM
      1  N         46.4180   22.8710   27.3720 N.3     8  TYR8       -0.1241
      2  CA        45.9780   21.5080   27.0290 C.3     8  TYR8        0.1605
      3  C         47.0320   20.8090   26.2040 C.2     8  TYR8        0.2264
      4  O         47.6450   21.4130   25.3350 O.2     8  TYR8       -0.2867
      5  CB        44.5830   21.5270   26.3490 C.3     8  TYR8        0.0534
      6  CG        43.5010   21.8020   27.3870 C.ar    8  TYR8       -0.0201
      7  CD1       43.1620   23.1020   27.7140 C.ar    8  TYR8       -0.0009
      8  CD2       42.8470   20.7610   28.0590 C.ar    8  TYR8       -0.0009
      9  CE1       42.1870   23.3720   28.6360 C.ar    8  TYR8        0.0417
     10  CE2       41.8850   21.0100   29.0090 C.ar    8  TYR8        0.0417
     11  CZ        41.5520   22.3230   29.2970 C.ar    8  TYR8        0.1957
     12  OH        40.6740   22.6310   30.2990 O.3     8  TYR8       -0.2866
     13  N         45.6570   16.0790   22.4270 N.3    11  GLN11      -0.1245
     14  CA        44.7940   15.9550   21.2500 C.3    11  GLN11       0.1566
     15  C         45.3760   16.5110   19.9610 C.2    11  GLN11       0.2260
     16  O         44.7280   16.3900   18.9290 O.2    11  GLN11      -0.2867
     17  CB        43.3850   16.5210   21.5080 C.3    11  GLN11       0.0367
     18  CG        42.5940   15.7020   22.5390 C.3    11  GLN11       0.0905
     19  CD        42.3210   14.2720   22.0700 C.2    11  GLN11       0.2608
     20  OE1       41.7960   14.0610   20.9860 O.2    11  GLN11      -0.2717
     21  NE2       42.7690   13.2990   22.8270 N.am   11  GLN11      -0.0878
     22  N         46.0090   19.2950   18.3440 N.3    13  SER13      -0.1217
     23  CA        45.3010   20.2430   17.4670 C.3    13  SER13       0.1889
     24  C         46.1070   20.6850   16.2430 C.2    13  SER13       0.2288
     25  O         45.5550   20.7370   15.1560 O.2    13  SER13      -0.2866
     26  CB        44.8210   21.4590   18.2760 C.3    13  SER13       0.2089
     27  OG        44.1900   22.4140   17.4330 O.3    13  SER13      -0.2183
     28  N         42.6640   13.3930   26.6690 N.3    36  PHE36      -0.1241
     29  CA        41.6560   13.3460   27.7450 C.3    36  PHE36       0.1605
     30  C         41.4910   11.9210   28.3070 C.2    36  PHE36       0.2264
     31  O         41.7070   10.9020   27.6030 O.2    36  PHE36      -0.2867
     32  CB        40.2820   13.7110   27.1960 C.3    36  PHE36       0.0534
     33  CG        40.1440   15.1520   26.7610 C.ar   36  PHE36      -0.0203
     34  CD1       40.0360   16.1810   27.7030 C.ar   36  PHE36      -0.0042
     35  CD2       40.0600   15.4710   25.4160 C.ar   36  PHE36      -0.0042
     36  CE1       39.9000   17.5060   27.2980 C.ar   36  PHE36      -0.0003
     37  CE2       39.9160   16.8030   25.0020 C.ar   36  PHE36      -0.0003
     38  CZ        39.8430   17.8110   25.9380 C.ar   36  PHE36      -0.0000
     39  N         38.5410   10.3950   28.2240 N.3    38  ASN38      -0.1240
     40  CA        37.3570   10.7350   27.4410 C.3    38  ASN38       0.1653
     41  C         36.2140    9.7450   27.6370 C.2    38  ASN38       0.2266
     42  O         35.1210    9.8910   27.0470 O.2    38  ASN38      -0.2867
     43  CB        37.7180   10.8650   25.9590 C.3    38  ASN38       0.1155
     44  CG        38.0890    9.5730   25.2830 C.2    38  ASN38       0.2627
     45  OD1       37.8180    9.4350   24.1060 O.2    38  ASN38      -0.2716
     46  ND2       38.7210    8.6590   25.9480 N.am   38  ASN38      -0.0877
     47  N         42.4170    8.8440   25.6940 N.3    46  ASN46      -0.1240
     48  CA        42.8230    9.0830   24.3090 C.3    46  ASN46       0.1653
     49  C         43.8270   10.2310   24.2690 C.2    46  ASN46       0.2266
     50  O         43.5310   11.3270   24.7770 O.2    46  ASN46      -0.2867
     51  CB        41.5560    9.3480   23.4560 C.3    46  ASN46       0.1155
     52  CG        41.8690    9.6220   21.9870 C.2    46  ASN46       0.2627
     53  OD1       42.6760   10.4600   21.6720 O.2    46  ASN46      -0.2716
     54  ND2       41.2360    8.8890   21.0990 N.am   46  ASN46      -0.0877
     55  N         35.2790   16.6390   23.8780 N.3    86  ALA86      -0.1231
     56  CA        34.1500   16.7000   22.9700 C.3    86  ALA86       0.1694
     57  C         33.4340   15.3320   22.7320 C.2    86  ALA86       0.2592
     58  O         32.3390   15.2890   22.1910 O.2    86  ALA86      -0.2718
     59  CB        34.5770   17.3510   21.6700 C.3    86  ALA86       0.0304
     60  N         33.9890   14.2230   23.1810 N.am   87  SER87      -0.1952
     61  CA        33.3920   12.8820   22.8840 C.3    87  SER87       0.1924
     62  C         31.9950   12.6440   23.4790 C.2    87  SER87       0.2314
     63  O         31.2160   11.8180   22.9760 O.2    87  SER87      -0.2863
     64  CB        34.3200   11.7720   23.4030 C.3    87  SER87       0.2116
     65  OG        34.0110   11.4280   24.7630 O.3    87  SER87      -0.2180
     66  N         36.6800   19.0320   32.0310 N.3   131  ASP131     -0.1239
     67  CA        36.3400   19.5950   30.7750 C.3   131  ASP131      0.1674
     68  C         35.0790   18.8890   30.2380 C.2   131  ASP131      0.2266
     69  O         35.1050   18.1740   29.2450 O.2   131  ASP131     -0.2867
     70  CB        37.5090   19.5540   29.7800 C.3   131  ASP131      0.1410
     71  CG        37.1730   20.2190   28.4530 C.2   131  ASP131      0.3668
     72  OD1       36.1100   20.8990   28.3310 O.co2 131  ASP131     -0.2456
     73  OD2       37.9470   20.0670   27.4840 O.co2 131  ASP131     -0.2456
     74  N         31.5070   18.5530   28.5810 N.3   133  GLU133     -0.1245
     75  CA        30.9510   19.2900   27.4380 C.3   133  GLU133      0.1567
     76  C         29.5970   18.7320   26.9770 C.2   133  GLU133      0.2260
     77  O         29.0870   19.1370   25.9320 O.2   133  GLU133     -0.2867
     78  CB        32.0050   19.3290   26.2950 C.3   133  GLU133      0.0388
     79  CG        33.3630   19.8520   26.7490 C.3   133  GLU133      0.1160
     80  CD        34.3690   20.1880   25.6640 C.2   133  GLU133      0.3649
     81  OE1       34.1510   19.8630   24.4820 O.co2 133  GLU133     -0.2457
     82  OE2       35.4040   20.8210   26.0100 O.co2 133  GLU133     -0.2457
     83  N         36.6030   23.6420   33.1540 N.3   163  ALA163     -0.1245
     84  CA        36.7400   24.3060   31.8660 C.3   163  ALA163      0.1562
     85  C         35.3850   24.7680   31.2690 C.2   163  ALA163      0.2260
     86  O         34.9780   24.3240   30.2010 O.2   163  ALA163     -0.2867
     87  CB        37.4600   23.4010   30.8850 C.3   163  ALA163      0.0290
     88  N         39.1780   27.4830   33.9900 N.3   186  PHE186     -0.1241
     89  CA        39.7440   27.7740   32.6710 C.3   186  PHE186      0.1605
     90  C         38.5630   28.1360   31.7700 C.2   186  PHE186      0.2264
     91  O         37.9320   27.2730   31.1580 O.2   186  PHE186     -0.2867
     92  CB        40.5340   26.5660   32.1510 C.3   186  PHE186      0.0534
     93  CG        41.6500   26.1160   33.0550 C.ar  186  PHE186     -0.0203
     94  CD1       42.6490   27.0030   33.4660 C.ar  186  PHE186     -0.0042
     95  CD2       41.7300   24.8070   33.4770 C.ar  186  PHE186     -0.0042
     96  CE1       43.6800   26.5770   34.3100 C.ar  186  PHE186     -0.0003
     97  CE2       42.7550   24.3900   34.2960 C.ar  186  PHE186     -0.0003
     98  CZ        43.7280   25.2610   34.7230 C.ar  186  PHE186     -0.0000
     99  N         36.4670   29.6110   28.7560 N.3   188  GLN188     -0.1245
    100  CA        36.6620   29.8140   27.3180 C.3   188  GLN188      0.1566
    101  C         35.9480   31.0550   26.7800 C.2   188  GLN188      0.2260
    102  O         34.6980   31.0760   26.5860 O.2   188  GLN188     -0.2867
    103  CB        36.2140   28.5930   26.5360 C.3   188  GLN188      0.0367
    104  CG        36.8220   27.2870   26.9900 C.3   188  GLN188      0.0905
    105  CD        36.0530   26.0910   26.4630 C.2   188  GLN188      0.2608
    106  OE1       35.9340   25.9010   25.2530 O.2   188  GLN188     -0.2717
    107  NE2       35.5000   25.3170   27.3580 N.am  188  GLN188     -0.0878
    108  N         35.9370   32.2700   23.7830 N.3   190  TYR190     -0.1241
    109  CA        35.8470   32.1590   22.3290 C.3   190  TYR190      0.1605
    110  C         34.7480   31.1910   21.9310 C.2   190  TYR190      0.2264
    111  O         34.2490   30.4130   22.7550 O.2   190  TYR190     -0.2867
    112  CB        37.1720   31.7020   21.7580 C.3   190  TYR190      0.0534
    113  CG        37.6100   30.3210   22.1380 C.ar  190  TYR190     -0.0201
    114  CD1       38.3210   30.0860   23.3150 C.ar  190  TYR190     -0.0009
    115  CD2       37.3650   29.2390   21.2950 C.ar  190  TYR190     -0.0009
    116  CE1       38.7570   28.8080   23.6440 C.ar  190  TYR190      0.0417
    117  CE2       37.7740   27.9450   21.6220 C.ar  190  TYR190      0.0417
    118  CZ        38.4910   27.7360   22.8050 C.ar  190  TYR190      0.1957
    119  OH        38.9660   26.4690   23.0950 O.3   190  TYR190     -0.2866
    120  N         40.6540   31.9370   28.8660 N.3   223  GLY223     -0.1225
    121  CA        40.8090   30.7910   27.9820 C.3   223  GLY223      0.1811
    122  C         40.6660   31.1620   26.5130 C.2   223  GLY223      0.2280
    123  O         39.6550   31.7360   26.1110 O.2   223  GLY223     -0.2866
    124  N         44.7230   30.3650   29.8440 N.3   259  ALA259     -0.1245
    125  CA        44.6210   28.9720   29.4040 C.3   259  ALA259      0.1562
    126  C         44.5100   28.8730   27.8690 C.2   259  ALA259      0.2260
    127  O         43.7810   29.6660   27.2650 O.2   259  ALA259     -0.2867
    128  CB        43.4120   28.3110   30.0380 C.3   259  ALA259      0.0290
    129  N         44.0730   26.3850   24.2780 N.3   261  TRP261     -0.1241
    130  CA        43.8770   25.1990   23.4320 C.3   261  TRP261      0.1605
    131  C         44.6990   25.3540   22.1370 C.2   261  TRP261      0.2264
    132  O         44.3970   26.2360   21.3280 O.2   261  TRP261     -0.2867
    133  CB        42.3950   25.0270   23.0620 C.3   261  TRP261      0.0550
    134  CG        42.1820   23.7750   22.2920 C.ar  261  TRP261      0.0003
    135  CD1       42.0560   23.6470   20.9320 C.ar  261  TRP261      0.0946
    136  CD2       42.1830   22.4280   22.8210 C.ar  261  TRP261      0.0152
    137  NE1       41.9340   22.3080   20.5910 N.ar  261  TRP261     -0.2442
    138  CE2       42.0170   21.5430   21.7270 C.ar  261  TRP261      0.0810
    139  CE3       42.2750   21.9040   24.0970 C.ar  261  TRP261      0.0012
    140  CZ2       41.9600   20.1410   21.8850 C.ar  261  TRP261      0.0191
    141  CZ3       42.2010   20.5040   24.2740 C.ar  261  TRP261      0.0001
    142  CH2       42.0490   19.6410   23.1600 C.ar  261  TRP261      0.0015
@<TRIPOS>BOND
     1    25    24    2
     2    24    23    1
     3    27    26    1
     4    23    26    1
     5    23    22    1
     6    16    15    2
     7    15    14    1
     8   137   135   ar
     9   137   138   ar
    10   135   134   ar
    11    20    19    2
    12    54    52   am
    13    14    17    1
    14    14    13    1
    15   115   117   ar
    16   115   113   ar
    17   132   131    2
    18    17    18    1
    19   117   118   ar
    20    59    56    1
    21    53    52    2
    22   138   140   ar
    23   138   136   ar
    24   112   113    1
    25   112   109    1
    26   140   142   ar
    27   110   109    1
    28   110   111    2
    29    52    51    1
    30    19    18    1
    31    19    21   am
    32   131   130    1
    33   113   114   ar
    34    58    57    2
    35   134   136   ar
    36   134   133    1
    37   109   108    1
    38    57    56    1
    39    57    60   am
    40   118   119    1
    41   118   116   ar
    42   136   139   ar
    43    61    60    1
    44    61    64    1
    45    61    62    1
    46    56    55    1
    47    63    62    2
    48   133   130    1
    49   142   141   ar
    50   114   116   ar
    51    64    65    1
    52   130   129    1
    53    51    48    1
    54   139   141   ar
    55    45    44    2
    56    49    48    1
    57    49    50    2
    58    48    47    1
    59    81    80   ar
    60    37    35   ar
    61    37    38   ar
    62   106   105    2
    63    44    46   am
    64    44    43    1
    65     4     3    2
    66    35    33   ar
    67    80    82   ar
    68    80    79    1
    69    77    76    2
    70    38    36   ar
    71    43    40    1
    72   123   122    2
    73     3     2    1
    74    78    79    1
    75    78    75    1
    76     5     2    1
    77     5     6    1
    78   105   104    1
    79   105   107   am
    80   122   121    1
    81   103   104    1
    82   103   100    1
    83   102   101    2
    84    28    29    1
    85    33    32    1
    86    33    34   ar
    87   101   100    1
    88    76    75    1
    89     2     1    1
    90    42    41    2
    91    32    29    1
    92   127   126    2
    93    36    34   ar
    94   100    99    1
    95     6     7   ar
    96     6     8   ar
    97    75    74    1
    98    40    41    1
    99    40    39    1
   100    73    71   ar
   101    31    30    2
   102     7     9   ar
   103    29    30    1
   104   126   125    1
   105   121   120    1
   106     8    10   ar
   107    72    71   ar
   108    71    70    1
   109     9    11   ar
   110    10    11   ar
   111    69    68    2
   112    11    12    1
   113   125   124    1
   114   125   128    1
   115    70    67    1
   116    86    85    2
   117    68    67    1
   118    67    66    1
   119    87    84    1
   120    91    90    2
   121    85    84    1
   122    90    89    1
   123    84    83    1
   124    92    89    1
   125    92    93    1
   126    89    88    1
   127    93    94   ar
   128    93    95   ar
   129    94    96   ar
   130    95    97   ar
   131    97    98   ar
   132    96    98   ar
