@<TRIPOS>MOLECULE
tmp/4txjB00.pdb
 161 152 0 0 0
SMALL
GASTEIGER

@<TRIPOS>ATOM
      1  N        -31.9390   18.0270    4.7500 N.3    41  GLY41      -0.1225
      2  CA       -31.2180   18.3210    3.5220 C.3    41  GLY41       0.1811
      3  C        -30.9930   19.7900    3.2160 C.2    41  GLY41       0.2280
      4  O        -30.2910   20.1290    2.2570 O.2    41  GLY41      -0.2866
      5  N        -27.3200   17.9340    5.3800 N.3    86  HIS86      -0.1226
      6  CA       -26.6950   16.7480    4.7760 C.3    86  HIS86       0.1752
      7  C        -26.8540   16.6420    3.2680 C.2    86  HIS86       0.2597
      8  O        -26.4940   15.6240    2.6740 O.2    86  HIS86      -0.2718
      9  CB       -27.1470   15.4400    5.4560 C.3    86  HIS86       0.0759
     10  CG       -28.6250   15.1730    5.3900 C.ar   86  HIS86       0.0818
     11  ND1      -29.3560   15.2520    4.2220 N.ar   86  HIS86      -0.2268
     12  CD2      -29.5040   14.8050    6.3550 C.ar   86  HIS86       0.1154
     13  CE1      -30.6210   14.9490    4.4710 C.ar   86  HIS86       0.1986
     14  NE2      -30.7350   14.6660    5.7580 N.ar   86  HIS86      -0.2212
     15  N        -27.3720   17.6950    2.6510 N.am   87  GLY87      -0.1942
     16  CA       -27.5900   17.6740    1.2080 C.3    87  GLY87       0.2014
     17  C        -28.6120   16.6120    0.8410 C.2    87  GLY87       0.2638
     18  O        -29.4190   16.2010    1.6710 O.2    87  GLY87      -0.2714
     19  N        -28.5960   16.1720   -0.4160 N.am   88  MET88      -0.1976
     20  CA       -29.5400   15.1530   -0.8510 C.3    88  MET88       0.1605
     21  C        -28.8240   13.8930   -1.3160 C.2    88  MET88       0.2287
     22  O        -27.8730   13.9660   -2.0960 O.2    88  MET88      -0.2864
     23  CB       -30.4040   15.7020   -1.9910 C.3    88  MET88       0.0413
     24  CG       -31.2070   16.9480   -1.6010 C.3    88  MET88       0.0598
     25  SD       -32.1870   17.5580   -2.9920 S.3    88  MET88      -0.1393
     26  CE       -30.8970   18.2190   -4.0480 C.3    88  MET88       0.0692
     27  N        -33.4610   12.6190   11.7370 N.3   116  ARG116     -0.1245
     28  CA       -33.5640   13.2320   10.4230 C.3   116  ARG116      0.1563
     29  C        -34.9450   13.8460   10.2640 C.2   116  ARG116      0.2260
     30  O        -35.9540   13.1490   10.4290 O.2   116  ARG116     -0.2867
     31  CB       -33.2840   12.2220    9.3120 C.3   116  ARG116      0.0307
     32  CG       -33.6880   12.7660    7.9290 C.3   116  ARG116      0.0489
     33  CD       -33.1310   11.9470    6.7720 C.3   116  ARG116      0.2205
     34  NE       -34.0710   11.9630    5.6460 N.pl3 116  ARG116     -0.0865
     35  CZ       -34.3760   13.0460    4.9390 C.cat 116  ARG116      0.5346
     36  NH1      -33.8170   14.2240    5.2220 N.pl3 116  ARG116      0.1354
     37  NH2      -35.2640   12.9580    3.9570 N.pl3 116  ARG116      0.1354
     38  N        -38.2520   15.6910    4.1590 N.3   119  THR119     -0.1203
     39  CA       -39.4410   15.6610    3.3180 C.3   119  THR119      0.1994
     40  C        -39.4200   14.3510    2.5390 C.2   119  THR119      0.2619
     41  O        -38.3870   13.6670    2.4640 O.2   119  THR119     -0.2717
     42  CB       -39.5170   16.8650    2.3480 C.3   119  THR119      0.1784
     43  OG1      -38.4140   16.8310    1.4310 O.3   119  THR119     -0.2211
     44  CG2      -39.5050   18.1990    3.1200 C.3   119  THR119      0.0376
     45  N        -40.5660   13.9860    1.9820 N.am  120  SER120     -0.1937
     46  CA       -40.6930   12.6790    1.3470 C.3   120  SER120      0.2055
     47  C        -41.9340   12.6110    0.4800 C.2   120  SER120      0.2643
     48  O        -42.8230   13.4620    0.5720 O.2   120  SER120     -0.2714
     49  CB       -40.7820   11.5980    2.4230 C.3   120  SER120      0.2130
     50  OG       -41.9600   11.7420    3.2100 O.3   120  SER120     -0.2179
     51  N        -41.9780   11.6000   -0.3710 N.am  121  GLY121     -0.1954
     52  CA       -43.2000   11.2710   -1.0750 C.3   121  GLY121      0.1869
     53  C        -43.9940   10.3020   -0.2240 C.2   121  GLY121      0.2309
     54  O        -43.4410    9.3460    0.3120 O.2   121  GLY121     -0.2863
     55  N        -34.2710   11.0250   -7.4490 N.3   192  PHE192     -0.1241
     56  CA       -35.6080   11.5450   -7.1410 C.3   192  PHE192      0.1605
     57  C        -36.6390   11.0270   -8.1380 C.2   192  PHE192      0.2264
     58  O        -37.8090   10.8820   -7.8090 O.2   192  PHE192     -0.2867
     59  CB       -35.5570   13.0760   -7.1460 C.3   192  PHE192      0.0534
     60  CG       -36.8650   13.7630   -6.8190 C.ar  192  PHE192     -0.0203
     61  CD1      -37.2060   14.0550   -5.5120 C.ar  192  PHE192     -0.0042
     62  CD2      -37.7280   14.1610   -7.8350 C.ar  192  PHE192     -0.0042
     63  CE1      -38.3930   14.7230   -5.2270 C.ar  192  PHE192     -0.0003
     64  CE2      -38.9080   14.8180   -7.5520 C.ar  192  PHE192     -0.0003
     65  CZ       -39.2360   15.0950   -6.2380 C.ar  192  PHE192     -0.0000
     66  N        -37.5280    6.3150   -7.8240 N.3   196  GLN196     -0.1245
     67  CA       -38.7370    6.5180   -7.0240 C.3   196  GLN196      0.1566
     68  C        -39.9850    6.1980   -7.8450 C.2   196  GLN196      0.2260
     69  O        -41.1080    6.3900   -7.3960 O.2   196  GLN196     -0.2867
     70  CB       -38.7700    7.9410   -6.4400 C.3   196  GLN196      0.0367
     71  CG       -37.5990    8.1840   -5.4760 C.3   196  GLN196      0.0905
     72  CD       -37.7610    9.4040   -4.5820 C.2   196  GLN196      0.2608
     73  OE1      -38.8830    9.8280   -4.2680 O.2   196  GLN196     -0.2717
     74  NE2      -36.6290    9.9680   -4.1500 N.am  196  GLN196     -0.0878
     75  N        -41.0380    7.6320  -10.5710 N.3   198  ARG198     -0.1245
     76  CA       -41.6800    8.7970  -11.1840 C.3   198  ARG198      0.1563
     77  C        -41.7280    8.6840  -12.7030 C.2   198  ARG198      0.2260
     78  O        -40.7580    8.2560  -13.3340 O.2   198  ARG198     -0.2867
     79  CB       -40.9590   10.0920  -10.8080 C.3   198  ARG198      0.0307
     80  CG       -41.1510   10.5320   -9.3690 C.3   198  ARG198      0.0489
     81  CD       -40.7330   11.9880   -9.1960 C.3   198  ARG198      0.2205
     82  NE       -41.5080   12.6260   -8.1240 N.pl3 198  ARG198     -0.0865
     83  CZ       -41.2490   12.4970   -6.8290 C.cat 198  ARG198      0.5346
     84  NH1      -40.2110   11.7740   -6.4250 N.pl3 198  ARG198      0.1354
     85  NH2      -42.0350   13.1000   -5.9360 N.pl3 198  ARG198      0.1354
     86  N        -41.2090    7.7470    1.0830 N.3   226  MET226     -0.1230
     87  CA       -40.0560    7.4860    0.2400 C.3   226  MET226      0.1702
     88  C        -39.1780    8.7260    0.2030 C.2   226  MET226      0.2592
     89  O        -39.6590    9.8340   -0.0560 O.2   226  MET226     -0.2718
     90  CB       -40.5290    7.1380   -1.1710 C.3   226  MET226      0.0401
     91  CG       -39.4140    6.8110   -2.1340 C.3   226  MET226      0.0596
     92  SD       -40.0590    6.2860   -3.7480 S.3   226  MET226     -0.1393
     93  CE       -40.7070    4.6640   -3.3570 C.3   226  MET226      0.0692
     94  N        -37.8960    8.5410    0.4920 N.am  227  GLU227     -0.1966
     95  CA       -36.9410    9.6450    0.4920 C.3   227  GLU227      0.1733
     96  C        -35.5800    9.1430    0.0240 C.2   227  GLU227      0.2616
     97  O        -35.5280    8.1630   -0.7240 O.2   227  GLU227     -0.2715
     98  CB       -36.8790   10.3590    1.8530 C.3   227  GLU227      0.0429
     99  CG       -36.7530    9.4520    3.0520 C.3   227  GLU227      0.1163
    100  CD       -35.3240    9.0560    3.3310 C.2   227  GLU227      0.3649
    101  OE1      -34.4890    9.9720    3.5660 O.co2 227  GLU227     -0.2457
    102  OE2      -35.0460    7.8330    3.3100 O.co2 227  GLU227     -0.2457
    103  N        -34.4920    9.7980    0.4320 N.am  228  MET228     -0.1963
    104  CA       -33.1970    9.5030   -0.1870 C.3   228  MET228      0.1736
    105  C        -32.0030    9.3150    0.7520 C.2   228  MET228      0.2616
    106  O        -30.8640    9.2730    0.2860 O.2   228  MET228     -0.2715
    107  CB       -32.8440   10.5660   -1.2400 C.3   228  MET228      0.0427
    108  CG       -33.8270   10.6460   -2.4210 C.3   228  MET228      0.0599
    109  SD       -33.4190   11.9610   -3.5910 S.3   228  MET228     -0.1393
    110  CE       -31.8220   11.3800   -4.1920 C.3   228  MET228      0.0692
    111  N        -32.2400    9.1740    2.0520 N.am  229  GLU229     -0.1977
    112  CA       -31.1230    9.1550    2.9990 C.3   229  GLU229      0.1602
    113  C        -31.2660    8.1210    4.1220 C.2   229  GLU229      0.2287
    114  O        -30.2860    7.8010    4.7990 O.2   229  GLU229     -0.2864
    115  CB       -30.9730   10.5490    3.6520 C.3   229  GLU229      0.0415
    116  CG       -30.5650   11.6710    2.7220 C.3   229  GLU229      0.1163
    117  CD       -31.7320   12.3040    2.0120 C.2   229  GLU229      0.3649
    118  OE1      -32.8980   12.0630    2.4080 O.co2 229  GLU229     -0.2457
    119  OE2      -31.4840   13.0600    1.0550 O.co2 229  GLU229     -0.2457
    120  N        -45.0400   15.3540    0.8050 N.3   251  ALA251     -0.1231
    121  CA       -45.3730   16.5250   -0.0080 C.3   251  ALA251      0.1694
    122  C        -46.2310   16.1740   -1.2140 C.2   251  ALA251      0.2591
    123  O        -46.5770   17.0520   -2.0110 O.2   251  ALA251     -0.2718
    124  CB       -44.0960   17.2360   -0.4670 C.3   251  ALA251      0.0304
    125  N        -46.5700   14.8950   -1.3360 N.am  252  VAL252     -0.1980
    126  CA       -47.3610   14.4020   -2.4580 C.3   252  VAL252      0.1595
    127  C        -47.7660   12.9770   -2.1240 C.2   252  VAL252      0.2287
    128  O        -47.0500   12.2910   -1.3930 O.2   252  VAL252     -0.2864
    129  CB       -46.5310   14.4300   -3.7680 C.3   252  VAL252      0.0276
    130  CG1      -45.2610   13.5550   -3.6370 C.3   252  VAL252      0.0022
    131  CG2      -47.3780   14.0170   -4.9700 C.3   252  VAL252      0.0022
    132  N        -47.8230    9.6550   -3.7740 N.3   254  ARG254     -0.1245
    133  CA       -47.2430    9.0690   -4.9770 C.3   254  ARG254      0.1563
    134  C        -48.1440    8.0450   -5.6560 C.2   254  ARG254      0.2260
    135  O        -47.9460    7.7160   -6.8300 O.2   254  ARG254     -0.2867
    136  CB       -45.8870    8.4470   -4.6470 C.3   254  ARG254      0.0307
    137  CG       -44.8140    9.4860   -4.2720 C.3   254  ARG254      0.0489
    138  CD       -44.4620   10.4100   -5.4370 C.3   254  ARG254      0.2205
    139  NE       -44.3460    9.6370   -6.6660 N.pl3 254  ARG254     -0.0865
    140  CZ       -43.4110    8.7170   -6.8790 C.cat 254  ARG254      0.5346
    141  NH1      -42.5020    8.4450   -5.9450 N.pl3 254  ARG254      0.1354
    142  NH2      -43.4110    8.0320   -8.0100 N.pl3 254  ARG254      0.1354
    143  N        -44.6020   17.6950   -7.6760 N.3   260  ILE260     -0.1245
    144  CA       -44.8510   18.4240   -6.4310 C.3   260  ILE260      0.1561
    145  C        -45.6150   19.6820   -6.8100 C.2   260  ILE260      0.2260
    146  O        -45.0250   20.6670   -7.2460 O.2   260  ILE260     -0.2867
    147  CB       -43.5600   18.7960   -5.6960 C.3   260  ILE260      0.0252
    148  CG1      -42.6620   17.5690   -5.4800 C.3   260  ILE260      0.0019
    149  CG2      -43.8780   19.5190   -4.3730 C.3   260  ILE260      0.0019
    150  CD1      -43.3600   16.3860   -4.8420 C.3   260  ILE260      0.0001
    151  N        -45.0660   24.0890    0.6610 N.3   267  PHE267     -0.1241
    152  CA       -44.0220   23.0790    0.8360 C.3   267  PHE267      0.1605
    153  C        -43.1570   23.4450    2.0420 C.2   267  PHE267      0.2264
    154  O        -42.8460   22.5990    2.8850 O.2   267  PHE267     -0.2867
    155  CB       -43.1670   22.9400   -0.4280 C.3   267  PHE267      0.0534
    156  CG       -42.1270   21.8570   -0.3310 C.ar  267  PHE267     -0.0203
    157  CD1      -40.9080   22.1070    0.2860 C.ar  267  PHE267     -0.0042
    158  CD2      -42.3740   20.5880   -0.8230 C.ar  267  PHE267     -0.0042
    159  CE1      -39.9420   21.0960    0.3910 C.ar  267  PHE267     -0.0003
    160  CE2      -41.4150   19.5760   -0.7180 C.ar  267  PHE267     -0.0003
    161  CZ       -40.2050   19.8350   -0.1060 C.ar  267  PHE267     -0.0000
@<TRIPOS>BOND
     1    78    77    2
     2    77    76    1
     3    76    79    1
     4    76    75    1
     5    79    80    1
     6    80    81    1
     7    81    82    1
     8    57    58    2
     9    57    56    1
    10    82    83    2
    11   142   140    1
    12    68    69    2
    13    68    67    1
    14    62    64   ar
    15    62    60   ar
    16    66    67    1
    17   143   144    1
    18    64    65   ar
    19    55    56    1
    20   146   145    2
    21    59    56    1
    22    59    60    1
    23    67    70    1
    24   140   139    2
    25   140   141    1
    26   135   134    2
    27    83    84    1
    28    83    85    1
    29    60    61   ar
    30   145   144    1
    31   139   138    1
    32    70    71    1
    33   144   147    1
    34    65    63   ar
    35   147   148    1
    36   147   149    1
    37   134   133    1
    38    61    63   ar
    39   148   150    1
    40    71    72    1
    41   138   137    1
    42   133   136    1
    43   133   132    1
    44   131   129    1
    45   136   137    1
    46    72    73    2
    47    72    74   am
    48   110   109    1
    49    26    25    1
    50   129   130    1
    51   129   126    1
    52    92    93    1
    53    92    91    1
    54   109   108    1
    55    25    24    1
    56   126   127    1
    57   126   125    1
    58   108   107    1
    59    91    90    1
    60   127   128    2
    61    22    21    2
    62   123   122    2
    63    23    24    1
    64    23    20    1
    65   125   122   am
    66    21    20    1
    67   107   104    1
    68   122   121    1
    69    90    87    1
    70    52    51    1
    71    52    53    1
    72    20    19    1
    73   158   160   ar
    74   158   156   ar
    75    97    96    2
    76   160   161   ar
    77   124   121    1
    78   155   156    1
    79   155   152    1
    80    19    17   am
    81    51    47   am
    82   156   157   ar
    83    53    54    2
    84   104   103    1
    85   104   105    1
    86   161   159   ar
    87    89    88    2
    88   121   120    1
    89    96   103   am
    90    96    95    1
    91    88    87    1
    92    88    94   am
    93    87    86    1
    94   106   105    2
    95   157   159   ar
    96    47    48    2
    97    47    46    1
    98    94    95    1
    99    95    98    1
   100   151   152    1
   101   105   111   am
   102   152   153    1
   103    17    16    1
   104    17    18    2
   105   119   117   ar
   106    16    15    1
   107    46    45    1
   108    46    49    1
   109    43    42    1
   110    98    99    1
   111    45    40   am
   112   117   118   ar
   113   117   116    1
   114   153   154    2
   115   111   112    1
   116     4     3    2
   117    42    44    1
   118    42    39    1
   119    49    50    1
   120    41    40    2
   121    40    39    1
   122    15     7   am
   123     8     7    2
   124   116   115    1
   125   112   115    1
   126   112   113    1
   127    99   100    1
   128     3     2    1
   129     7     6    1
   130   102   100   ar
   131    39    38    1
   132   100   101   ar
   133     2     1    1
   134    37    35    1
   135   113   114    2
   136    11    13   ar
   137    11    10   ar
   138    13    14   ar
   139     6     5    1
   140     6     9    1
   141    35    36    1
   142    35    34    2
   143    10     9    1
   144    10    12   ar
   145    34    33    1
   146    14    12   ar
   147    33    32    1
   148    32    31    1
   149    31    28    1
   150    29    28    1
   151    29    30    2
   152    28    27    1
