@<TRIPOS>MOLECULE
tmp/4txlC00.pdb
 115 108 0 0 0
SMALL
GASTEIGER

@<TRIPOS>ATOM
      1  N         21.3350    6.3420    6.8070 N.3   115  THR115     -0.1203
      2  CA        21.7260    4.9630    6.5720 C.3   115  THR115      0.1994
      3  C         23.0300    5.0140    5.7950 C.2   115  THR115      0.2619
      4  O         23.3430    6.0180    5.1440 O.2   115  THR115     -0.2717
      5  CB        20.6570    4.1540    5.8010 C.3   115  THR115      0.1784
      6  OG1       20.4630    4.7180    4.4970 O.3   115  THR115     -0.2211
      7  CG2       19.3380    4.1430    6.5590 C.3   115  THR115      0.0376
      8  N         23.7990    3.9360    5.8720 N.am  116  SER116     -0.1937
      9  CA        25.1460    3.9340    5.3270 C.3   116  SER116      0.2055
     10  C         25.6270    2.5010    5.1260 C.2   116  SER116      0.2643
     11  O         24.9640    1.5480    5.5540 O.2   116  SER116     -0.2714
     12  CB        26.0970    4.6880    6.2630 C.3   116  SER116      0.2130
     13  OG        26.0670    4.1120    7.5590 O.3   116  SER116     -0.2179
     14  N         26.7700    2.3520    4.4650 N.am  117  GLY117     -0.1954
     15  CA        27.4300    1.0630    4.3880 C.3   117  GLY117      0.1869
     16  C         28.4640    1.0080    5.4930 C.2   117  GLY117      0.2309
     17  O         29.1800    1.9810    5.7170 O.2   117  GLY117     -0.2863
     18  N         26.3440    6.2650   -5.2650 N.3   184  PHE184     -0.1241
     19  CA        26.0660    5.1180   -4.4030 C.3   184  PHE184      0.1605
     20  C         26.9200    3.9270   -4.8250 C.2   184  PHE184      0.2264
     21  O         27.2090    3.0390   -4.0200 O.2   184  PHE184     -0.2867
     22  CB        24.5820    4.7520   -4.4540 C.3   184  PHE184      0.0534
     23  CG        24.1980    3.5830   -3.5710 C.ar  184  PHE184     -0.0203
     24  CD1       23.8130    3.7900   -2.2500 C.ar  184  PHE184     -0.0042
     25  CD2       24.1900    2.2850   -4.0710 C.ar  184  PHE184     -0.0042
     26  CE1       23.4370    2.7260   -1.4400 C.ar  184  PHE184     -0.0003
     27  CE2       23.8230    1.2150   -3.2680 C.ar  184  PHE184     -0.0003
     28  CZ        23.4470    1.4330   -1.9500 C.ar  184  PHE184     -0.0000
     29  N         31.6580    4.5850   -4.2490 N.3   188  GLN188     -0.1245
     30  CA        31.6540    3.8380   -2.9980 C.3   188  GLN188      0.1566
     31  C         32.3490    2.4820   -3.1540 C.2   188  GLN188      0.2260
     32  O         32.3690    1.6740   -2.2280 O.2   188  GLN188     -0.2867
     33  CB        30.2170    3.6580   -2.4820 C.3   188  GLN188      0.0367
     34  CG        29.5360    4.9880   -2.1410 C.3   188  GLN188      0.0905
     35  CD        28.3140    4.8380   -1.2490 C.2   188  GLN188      0.2608
     36  OE1       28.1860    3.8690   -0.5010 O.2   188  GLN188     -0.2717
     37  NE2       27.4080    5.8090   -1.3230 N.am  188  GLN188     -0.0878
     38  N         31.5660   -0.0050   -5.1360 N.3   190  ARG190     -0.1245
     39  CA        30.6610   -1.1140   -5.4110 C.3   190  ARG190      0.1563
     40  C         30.9920   -1.7970   -6.7290 C.2   190  ARG190      0.2260
     41  O         31.3210   -1.1360   -7.7080 O.2   190  ARG190     -0.2867
     42  CB        29.2120   -0.6320   -5.4390 C.3   190  ARG190      0.0307
     43  CG        28.6270   -0.3510   -4.0670 C.3   190  ARG190      0.0489
     44  CD        27.1080   -0.2350   -4.1280 C.3   190  ARG190      0.2205
     45  NE        26.5070   -0.7310   -2.8920 N.pl3 190  ARG190     -0.0865
     46  CZ        26.4830   -0.0590   -1.7460 C.cat 190  ARG190      0.5346
     47  NH1       27.0030    1.1600   -1.6750 N.pl3 190  ARG190      0.1354
     48  NH2       25.9250   -0.6010   -0.6720 N.pl3 190  ARG190      0.1354
     49  N         30.0980    4.7470    5.4000 N.3   218  MET218     -0.1230
     50  CA        30.1540    5.4900    4.1530 C.3   218  MET218      0.1702
     51  C         28.7470    5.8820    3.7030 C.2   218  MET218      0.2592
     52  O         27.8640    5.0340    3.6040 O.2   218  MET218     -0.2718
     53  CB        30.8500    4.6500    3.0770 C.3   218  MET218      0.0401
     54  CG        30.9810    5.3140    1.7230 C.3   218  MET218      0.0596
     55  SD        31.8180    4.2360    0.5370 S.3   218  MET218     -0.1393
     56  CE        33.4030    4.0150    1.3460 C.3   218  MET218      0.0692
     57  N         28.5460    7.1690    3.4450 N.am  219  GLU219     -0.1966
     58  CA        27.2660    7.6570    2.9480 C.3   219  GLU219      0.1733
     59  C         27.5100    8.7790    1.9320 C.2   219  GLU219      0.2616
     60  O         28.5550    8.7940    1.2770 O.2   219  GLU219     -0.2715
     61  CB        26.3710    8.1030    4.1120 C.3   219  GLU219      0.0429
     62  CG        27.0490    8.9760    5.1530 C.3   219  GLU219      0.1163
     63  CD        27.0100   10.4390    4.7800 C.2   219  GLU219      0.3649
     64  OE1       25.9010   10.9590    4.5350 O.co2 219  GLU219     -0.2457
     65  OE2       28.0880   11.0610    4.7060 O.co2 219  GLU219     -0.2457
     66  N         26.5730    9.7100    1.7790 N.am  220  MET220     -0.1977
     67  CA        26.6590   10.6320    0.6480 C.3   220  MET220      0.1605
     68  C         26.5170   12.1270    0.9710 C.2   220  MET220      0.2287
     69  O         26.5390   12.9470    0.0510 O.2   220  MET220     -0.2864
     70  CB        25.6100   10.2430   -0.4020 C.3   220  MET220      0.0413
     71  CG        25.8520    8.8680   -1.0380 C.3   220  MET220      0.0598
     72  SD        24.5450    8.3010   -2.1450 S.3   220  MET220     -0.1393
     73  CE        24.7500    9.4210   -3.5300 C.3   220  MET220      0.0692
     74  N         23.7490   -0.7120    6.7620 N.3   243  ALA243     -0.1231
     75  CA        22.7690   -1.5820    6.1210 C.3   243  ALA243      0.1694
     76  C         23.4230   -2.8050    5.5040 C.2   243  ALA243      0.2591
     77  O         22.7390   -3.7220    5.0520 O.2   243  ALA243     -0.2718
     78  CB        21.9970   -0.8170    5.0610 C.3   243  ALA243      0.0304
     79  N         24.7510   -2.8010    5.4860 N.am  244  VAL244     -0.1980
     80  CA        25.5370   -3.8720    4.8960 C.3   244  VAL244      0.1595
     81  C         26.9740   -3.7170    5.3840 C.2   244  VAL244      0.2287
     82  O         27.4130   -2.6090    5.7050 O.2   244  VAL244     -0.2864
     83  CB        25.4760   -3.8410    3.3420 C.3   244  VAL244      0.0276
     84  CG1       26.0980   -2.5540    2.8120 C.3   244  VAL244      0.0022
     85  CG2       26.1450   -5.0760    2.7270 C.3   244  VAL244      0.0022
     86  N         30.3530   -3.6030    3.9720 N.3   246  ARG246     -0.1245
     87  CA        30.9380   -3.4290    2.6480 C.3   246  ARG246      0.1563
     88  C         32.2170   -4.2430    2.4470 C.2   246  ARG246      0.2260
     89  O         32.6640   -4.4290    1.3200 O.2   246  ARG246     -0.2867
     90  CB        31.2230   -1.9510    2.3890 C.3   246  ARG246      0.0307
     91  CG        29.9710   -1.0950    2.2590 C.3   246  ARG246      0.0489
     92  CD        29.1650   -1.4600    1.0190 C.3   246  ARG246      0.2205
     93  NE        29.9940   -1.6360   -0.1730 N.pl3 246  ARG246     -0.0865
     94  CZ        30.6700   -0.6590   -0.7750 C.cat 246  ARG246      0.5346
     95  NH1       30.6320    0.5770   -0.2940 N.pl3 246  ARG246      0.1354
     96  NH2       31.3920   -0.9180   -1.8580 N.pl3 246  ARG246      0.1354
     97  N         22.3780   -4.6680   -0.8660 N.3   252  ILE252     -0.1245
     98  CA        21.5730   -4.5690    0.3460 C.3   252  ILE252      0.1561
     99  C         20.5940   -5.7320    0.3430 C.2   252  ILE252      0.2260
    100  O         19.5490   -5.6760   -0.3090 O.2   252  ILE252     -0.2867
    101  CB        20.8040   -3.2390    0.4340 C.3   252  ILE252      0.0252
    102  CG1       21.7220   -2.0610    0.0990 C.3   252  ILE252      0.0019
    103  CG2       20.1730   -3.0730    1.8200 C.3   252  ILE252      0.0019
    104  CD1       22.8610   -1.8740    1.0710 C.3   252  ILE252      0.0001
    105  N         15.3170   -3.4690    6.9830 N.3   259  PHE259     -0.1241
    106  CA        15.9690   -2.2020    6.6850 C.3   259  PHE259      0.1605
    107  C         15.2650   -1.0840    7.4400 C.2   259  PHE259      0.2264
    108  O         15.9090   -0.2450    8.0650 O.2   259  PHE259     -0.2867
    109  CB        15.9660   -1.9140    5.1800 C.3   259  PHE259      0.0534
    110  CG        16.7210   -0.6700    4.8060 C.ar  259  PHE259     -0.0203
    111  CD1       16.1130    0.5760    4.8700 C.ar  259  PHE259     -0.0042
    112  CD2       18.0460   -0.7450    4.4030 C.ar  259  PHE259     -0.0042
    113  CE1       16.8090    1.7210    4.5380 C.ar  259  PHE259     -0.0003
    114  CE2       18.7490    0.3980    4.0670 C.ar  259  PHE259     -0.0003
    115  CZ        18.1310    1.6310    4.1370 C.ar  259  PHE259     -0.0000
@<TRIPOS>BOND
     1    41    40    2
     2    40    39    1
     3    42    39    1
     4    42    43    1
     5    39    38    1
     6    18    19    1
     7    20    19    1
     8    20    21    2
     9    22    19    1
    10    22    23    1
    11    29    30    1
    12    44    43    1
    13    44    45    1
    14    25    23   ar
    15    25    27   ar
    16    23    24   ar
    17    73    72    1
    18    27    28   ar
    19    31    30    1
    20    31    32    2
    21    30    33    1
    22    45    46    2
    23    33    34    1
    24    24    26   ar
    25    72    71    1
    26    34    35    1
    27    28    26   ar
    28    96    94    1
    29    46    47    1
    30    46    48    1
    31    37    35   am
    32    35    36    2
    33    71    70    1
    34    97    98    1
    35    94    95    1
    36    94    93    2
    37    70    67    1
    38   100    99    2
    39    93    92    1
    40    69    68    2
    41   102   101    1
    42   102   104    1
    43    99    98    1
    44    98   101    1
    45   101   103    1
    46    55    56    1
    47    55    54    1
    48    67    68    1
    49    67    66    1
    50    92    91    1
    51    60    59    2
    52    89    88    2
    53    54    53    1
    54    66    59   am
    55    59    58    1
    56    91    90    1
    57    90    87    1
    58    88    87    1
    59    87    86    1
    60    85    83    1
    61    84    83    1
    62    58    57    1
    63    58    61    1
    64    53    50    1
    65    83    80    1
    66    57    51   am
    67    52    51    2
    68    51    50    1
    69   114   115   ar
    70   114   112   ar
    71    61    62    1
    72   115   113   ar
    73    50    49    1
    74    15    14    1
    75    15    16    1
    76   112   110   ar
    77    14    10   am
    78     6     5    1
    79    64    63   ar
    80   113   111   ar
    81    65    63   ar
    82    63    62    1
    83   110   111   ar
    84   110   109    1
    85    80    81    1
    86    80    79    1
    87    77    76    2
    88    78    75    1
    89    10     9    1
    90    10    11    2
    91     4     3    2
    92   109   106    1
    93     9     8    1
    94     9    12    1
    95    81    82    2
    96    79    76   am
    97    16    17    2
    98    76    75    1
    99     3     8   am
   100     3     2    1
   101     5     7    1
   102     5     2    1
   103    75    74    1
   104    12    13    1
   105     2     1    1
   106   106   105    1
   107   106   107    1
   108   107   108    2
