@<TRIPOS>MOLECULE
tmp/4txmB00.pdb
 115 108 0 0 0
SMALL
GASTEIGER

@<TRIPOS>ATOM
      1  N         -2.5750   -8.6240  -12.0270 N.3   114  THR114     -0.1203
      2  CA        -2.9170  -10.0320  -12.1360 C.3   114  THR114      0.1994
      3  C         -4.3910  -10.1760  -11.7910 C.2   114  THR114      0.2619
      4  O         -4.9900   -9.2640  -11.2210 O.2   114  THR114     -0.2717
      5  CB        -2.0540  -10.9080  -11.2110 C.3   114  THR114      0.1784
      6  OG1       -2.3070  -10.5680   -9.8410 O.3   114  THR114     -0.2211
      7  CG2       -0.5770  -10.7030  -11.5170 C.3   114  THR114      0.0376
      8  N         -4.9810  -11.3120  -12.1410 N.am  115  SER115     -0.1937
      9  CA        -6.4090  -11.4980  -11.9400 C.3   115  SER115      0.2055
     10  C         -6.8030  -12.9650  -11.9840 C.2   115  SER115      0.2643
     11  O         -6.0020  -13.8270  -12.3480 O.2   115  SER115     -0.2714
     12  CB        -7.2010  -10.7180  -12.9960 C.3   115  SER115      0.2130
     13  OG        -6.8120  -11.0940  -14.3070 O.3   115  SER115     -0.2179
     14  N         -8.0420  -13.2410  -11.5960 N.am  116  GLY116     -0.1954
     15  CA        -8.6110  -14.5610  -11.7680 C.3   116  GLY116      0.1869
     16  C         -9.3860  -14.5750  -13.0690 C.2   116  GLY116      0.2309
     17  O        -10.1930  -13.6820  -13.3190 O.2   116  GLY116     -0.2863
     18  N        -10.2930  -10.6600   -1.7650 N.3   186  PHE186     -0.1241
     19  CA        -9.7220  -11.6690   -2.6530 C.3   186  PHE186      0.1605
     20  C        -10.5390  -12.9590   -2.6290 C.2   186  PHE186      0.2264
     21  O        -10.5530  -13.7080   -3.6040 O.2   186  PHE186     -0.2867
     22  CB        -8.2680  -11.9520   -2.2600 C.3   186  PHE186      0.0534
     23  CG        -7.5640  -12.9330   -3.1600 C.ar  186  PHE186     -0.0203
     24  CD1       -6.9560  -12.5070   -4.3320 C.ar  186  PHE186     -0.0042
     25  CD2       -7.4900  -14.2740   -2.8250 C.ar  186  PHE186     -0.0042
     26  CE1       -6.3000  -13.4020   -5.1550 C.ar  186  PHE186     -0.0003
     27  CE2       -6.8340  -15.1760   -3.6440 C.ar  186  PHE186     -0.0003
     28  CZ        -6.2390  -14.7400   -4.8120 C.ar  186  PHE186     -0.0000
     29  N        -15.0630  -12.5560   -4.2660 N.3   190  GLN190     -0.1245
     30  CA       -14.7050  -13.1320   -5.5540 C.3   190  GLN190      0.1566
     31  C        -15.2430  -14.5510   -5.6820 C.2   190  GLN190      0.2260
     32  O        -14.8740  -15.2920   -6.5930 O.2   190  GLN190     -0.2867
     33  CB       -13.1870  -13.1010   -5.7490 C.3   190  GLN190      0.0367
     34  CG       -12.6370  -11.6810   -5.8460 C.3   190  GLN190      0.0905
     35  CD       -11.2160  -11.6180   -6.3680 C.2   190  GLN190      0.2608
     36  OE1      -10.8000  -12.4440   -7.1800 O.2   190  GLN190     -0.2717
     37  NE2      -10.4620  -10.6220   -5.9080 N.am  190  GLN190     -0.0878
     38  N        -14.7990  -17.1740   -3.8900 N.3   192  ARG192     -0.1245
     39  CA       -13.9100  -18.2680   -3.5190 C.3   192  ARG192      0.1563
     40  C        -14.4700  -19.0580   -2.3410 C.2   192  ARG192      0.2260
     41  O        -15.0740  -18.4900   -1.4310 O.2   192  ARG192     -0.2867
     42  CB       -12.5170  -17.7410   -3.1760 C.3   192  ARG192      0.0307
     43  CG       -11.6440  -17.4510   -4.3820 C.3   192  ARG192      0.0489
     44  CD       -10.2190  -17.1450   -3.9480 C.3   192  ARG192      0.2205
     45  NE        -9.2730  -17.3040   -5.0460 N.pl3 192  ARG192     -0.0865
     46  CZ        -9.0020  -16.3580   -5.9400 C.cat 192  ARG192      0.5346
     47  NH1       -9.6070  -15.1800   -5.8650 N.pl3 192  ARG192      0.1354
     48  NH2       -8.1270  -16.5920   -6.9080 N.pl3 192  ARG192      0.1354
     49  N        -11.1960  -11.0970  -13.0210 N.3   220  MET220     -0.1230
     50  CA       -11.6090  -10.5350  -11.7480 C.3   220  MET220      0.1702
     51  C        -10.3980  -10.0660  -10.9510 C.2   220  MET220      0.2592
     52  O         -9.4670  -10.8330  -10.7080 O.2   220  MET220     -0.2718
     53  CB       -12.4090  -11.5750  -10.9640 C.3   220  MET220      0.0401
     54  CG       -13.0310  -11.0710   -9.6760 C.3   220  MET220      0.0596
     55  SD       -14.1320  -12.3170   -8.9860 S.3   220  MET220     -0.1393
     56  CE       -15.3820  -12.4210  -10.2640 C.3   220  MET220      0.0692
     57  N        -10.4110   -8.7960  -10.5580 N.am  221  GLU221     -0.1966
     58  CA        -9.3250   -8.2260   -9.7730 C.3   221  GLU221      0.1733
     59  C         -9.9030   -7.2710   -8.7330 C.2   221  GLU221      0.2616
     60  O        -11.0800   -7.3780   -8.3910 O.2   221  GLU221     -0.2715
     61  CB        -8.3100   -7.5310  -10.6820 C.3   221  GLU221      0.0429
     62  CG        -8.9230   -6.6100  -11.7230 C.3   221  GLU221      0.1163
     63  CD        -9.0840   -5.1930  -11.2120 C.2   221  GLU221      0.3649
     64  OE1       -8.0740   -4.6150  -10.7660 O.co2 221  GLU221     -0.2457
     65  OE2      -10.2140   -4.6650  -11.2520 O.co2 221  GLU221     -0.2457
     66  N         -9.0990   -6.3450   -8.2210 N.am  222  MET222     -0.1977
     67  CA        -9.5270   -5.5970   -7.0390 C.3   222  MET222      0.1605
     68  C         -9.3920   -4.0740   -7.1160 C.2   222  MET222      0.2287
     69  O         -9.6510   -3.3920   -6.1270 O.2   222  MET222     -0.2864
     70  CB        -8.7540   -6.0980   -5.8120 C.3   222  MET222      0.0413
     71  CG        -8.9910   -7.5710   -5.4850 C.3   222  MET222      0.0598
     72  SD        -8.0130   -8.1710   -4.0930 S.3   222  MET222     -0.1393
     73  CE        -8.6780   -7.1730   -2.7610 C.3   222  MET222      0.0692
     74  N         -4.3090  -15.7660  -13.5640 N.3   245  ALA245     -0.1231
     75  CA        -3.4420  -16.7280  -12.8910 C.3   245  ALA245      0.1694
     76  C         -4.1860  -18.0150  -12.5670 C.2   245  ALA245      0.2591
     77  O         -3.5980  -18.9730  -12.0670 O.2   245  ALA245     -0.2718
     78  CB        -2.8620  -16.1200  -11.6250 C.3   245  ALA245      0.0304
     79  N         -5.4820  -18.0240  -12.8560 N.am  246  VAL246     -0.1980
     80  CA        -6.3310  -19.1800  -12.6010 C.3   246  VAL246      0.1595
     81  C         -7.6270  -19.0310  -13.3950 C.2   246  VAL246      0.2287
     82  O         -8.0300  -17.9170  -13.7250 O.2   246  VAL246     -0.2864
     83  CB        -6.6410  -19.3300  -11.0890 C.3   246  VAL246      0.0276
     84  CG1       -7.5440  -18.2020  -10.6160 C.3   246  VAL246      0.0022
     85  CG2       -7.2660  -20.6880  -10.7850 C.3   246  VAL246      0.0022
     86  N        -11.2830  -19.3480  -12.7770 N.3   248  ARG248     -0.1245
     87  CA       -12.1950  -19.4270  -11.6420 C.3   248  ARG248      0.1563
     88  C        -13.3970  -20.3270  -11.9050 C.2   248  ARG248      0.2260
     89  O        -14.0930  -20.7290  -10.9740 O.2   248  ARG248     -0.2867
     90  CB       -12.6710  -18.0270  -11.2550 C.3   248  ARG248      0.0307
     91  CG       -11.5750  -17.1400  -10.6910 C.3   248  ARG248      0.0489
     92  CD       -10.9930  -17.7230   -9.4090 C.3   248  ARG248      0.2205
     93  NE       -12.0410  -18.1730   -8.4960 N.pl3 248  ARG248     -0.0865
     94  CZ       -12.8890  -17.3590   -7.8760 C.cat 248  ARG248      0.5346
     95  NH1      -12.8170  -16.0490   -8.0720 N.pl3 248  ARG248      0.1354
     96  NH2      -13.8160  -17.8540   -7.0680 N.pl3 248  ARG248      0.1354
     97  N         -4.5770  -20.7440   -6.3500 N.3   254  ILE254     -0.1245
     98  CA        -3.5470  -20.3790   -7.3140 C.3   254  ILE254      0.1561
     99  C         -2.4860  -21.4740   -7.3220 C.2   254  ILE254      0.2260
    100  O         -1.4810  -21.3840   -6.6170 O.2   254  ILE254     -0.2867
    101  CB        -2.9100  -19.0180   -6.9810 C.3   254  ILE254      0.0252
    102  CG1       -3.9990  -17.9630   -6.7860 C.3   254  ILE254      0.0019
    103  CG2       -1.9410  -18.5900   -8.0740 C.3   254  ILE254      0.0019
    104  CD1       -4.9260  -17.8200   -7.9750 C.3   254  ILE254      0.0001
    105  N          4.0170  -17.8800  -12.1240 N.3   261  PHE261     -0.1241
    106  CA         3.2330  -16.6870  -11.8220 C.3   261  PHE261      0.1605
    107  C          3.9840  -15.4410  -12.2750 C.2   261  PHE261      0.2264
    108  O          3.3970  -14.5280  -12.8550 O.2   261  PHE261     -0.2867
    109  CB         2.9140  -16.5960  -10.3280 C.3   261  PHE261      0.0534
    110  CG         1.9450  -15.4950   -9.9820 C.ar  261  PHE261     -0.0203
    111  CD1        0.5840  -15.7440   -9.9340 C.ar  261  PHE261     -0.0042
    112  CD2        2.3950  -14.2130   -9.7110 C.ar  261  PHE261     -0.0042
    113  CE1       -0.3100  -14.7380   -9.6200 C.ar  261  PHE261     -0.0003
    114  CE2        1.5050  -13.2020   -9.3990 C.ar  261  PHE261     -0.0003
    115  CZ         0.1510  -13.4660   -9.3520 C.ar  261  PHE261     -0.0000
@<TRIPOS>BOND
     1    13    12    1
     2    82    81    2
     3    74    75    1
     4    81    80    1
     5    17    16    2
     6    16    15    1
     7    49    50    1
     8    12     9    1
     9    75    76    1
    10    75    78    1
    11    79    80    1
    12    79    76   am
    13   108   107    2
    14    86    87    1
    15    80    83    1
    16    76    77    2
    17    11    10    2
    18   107   106    1
    19     8     9    1
    20     8     3   am
    21     2     1    1
    22     2     3    1
    23     2     5    1
    24   105   106    1
    25    10     9    1
    26    10    14   am
    27    88    87    1
    28    88    89    2
    29   106   109    1
    30     3     4    2
    31    15    14    1
    32    50    53    1
    33    50    51    1
    34    62    63    1
    35    62    61    1
    36    87    90    1
    37     7     5    1
    38    90    91    1
    39    65    63   ar
    40    63    64   ar
    41     5     6    1
    42    83    85    1
    43    83    84    1
    44    53    54    1
    45    51    52    2
    46    51    57   am
    47    91    92    1
    48    61    58    1
    49    57    58    1
    50   109   110    1
    51    56    55    1
    52   110   111   ar
    53   110   112   ar
    54   111   113   ar
    55    58    59    1
    56   112   114   ar
    57    54    55    1
    58   113   115   ar
    59    92    93    1
    60   114   115   ar
    61    59    60    2
    62    59    66   am
    63    93    94    2
    64    66    67    1
    65   103   101    1
    66    95    94    1
    67   104   102    1
    68    94    96    1
    69    99    98    1
    70    99   100    2
    71    98   101    1
    72    98    97    1
    73    36    35    2
    74    68    67    1
    75    68    69    2
    76    67    70    1
    77   101   102    1
    78    48    46    1
    79    32    31    2
    80    35    37   am
    81    35    34    1
    82    46    47    1
    83    46    45    2
    84    34    33    1
    85    70    71    1
    86    33    30    1
    87    31    30    1
    88    30    29    1
    89    71    72    1
    90    26    28   ar
    91    26    24   ar
    92    45    44    1
    93    28    27   ar
    94    43    44    1
    95    43    42    1
    96    24    23   ar
    97    72    73    1
    98    38    39    1
    99    27    25   ar
   100    21    20    2
   101    39    42    1
   102    39    40    1
   103    23    25   ar
   104    23    22    1
   105    19    20    1
   106    19    22    1
   107    19    18    1
   108    40    41    2
