@<TRIPOS>MOLECULE
tmp/4txnA00.pdb
 115 108 0 0 0
SMALL
GASTEIGER

@<TRIPOS>ATOM
      1  N        -35.0530   21.6220  -15.0400 N.3   115  THR115     -0.1203
      2  CA       -35.1610   23.0620  -14.9240 C.3   115  THR115      0.1994
      3  C        -33.7720   23.5960  -14.6020 C.2   115  THR115      0.2619
      4  O        -32.9040   22.8520  -14.1270 O.2   115  THR115     -0.2717
      5  CB       -36.1760   23.4840  -13.8470 C.3   115  THR115      0.1784
      6  OG1      -35.7480   23.0070  -12.5660 O.3   115  THR115     -0.2211
      7  CG2      -37.5590   22.9200  -14.1680 C.3   115  THR115      0.0376
      8  N        -33.5550   24.8750  -14.8840 N.am  116  SER116     -0.1937
      9  CA       -32.2250   25.4580  -14.7920 C.3   116  SER116      0.2055
     10  C        -32.2930   26.9700  -14.6320 C.2   116  SER116      0.2643
     11  O        -33.3620   27.5710  -14.7580 O.2   116  SER116     -0.2714
     12  CB       -31.4030   25.1000  -16.0370 C.3   116  SER116      0.2130
     13  OG       -31.9760   25.6620  -17.2090 O.3   116  SER116     -0.2179
     14  N        -31.1500   27.5810  -14.3400 N.am  117  GLY117     -0.1954
     15  CA       -31.0470   29.0270  -14.3530 C.3   117  GLY117      0.1869
     16  C        -30.5040   29.4490  -15.7040 C.2   117  GLY117      0.2309
     17  O        -29.5600   28.8420  -16.2040 O.2   117  GLY117     -0.2863
     18  N        -27.0460   24.5150   -5.2040 N.3   188  PHE188     -0.1241
     19  CA       -27.9880   25.4110   -5.8570 C.3   188  PHE188      0.1605
     20  C        -27.5590   26.8650   -5.6740 C.2   188  PHE188      0.2264
     21  O        -27.8630   27.7120   -6.5060 O.2   188  PHE188     -0.2867
     22  CB       -29.4050   25.1960   -5.3120 C.3   188  PHE188      0.0534
     23  CG       -30.4500   26.0580   -5.9690 C.ar  188  PHE188     -0.0203
     24  CD1      -31.0420   25.6660   -7.1620 C.ar  188  PHE188     -0.0042
     25  CD2      -30.8460   27.2570   -5.3900 C.ar  188  PHE188     -0.0042
     26  CE1      -32.0120   26.4560   -7.7660 C.ar  188  PHE188     -0.0003
     27  CE2      -31.8080   28.0540   -5.9890 C.ar  188  PHE188     -0.0003
     28  CZ       -32.3920   27.6530   -7.1770 C.ar  188  PHE188     -0.0000
     29  N        -23.4100   28.2150   -7.7590 N.3   192  GLN192     -0.1245
     30  CA       -24.0920   28.7950   -8.9120 C.3   192  GLN192      0.1566
     31  C        -23.9760   30.3180   -8.9000 C.2   192  GLN192      0.2260
     32  O        -24.6050   31.0070   -9.7010 O.2   192  GLN192     -0.2867
     33  CB       -25.5590   28.3560   -8.9490 C.3   192  GLN192      0.0367
     34  CG       -25.7140   26.8460   -9.1290 C.3   192  GLN192      0.0905
     35  CD       -27.0730   26.4350   -9.6630 C.2   192  GLN192      0.2608
     36  OE1      -27.7560   27.2100  -10.3340 O.2   192  GLN192     -0.2717
     37  NE2      -27.4670   25.1940   -9.3760 N.am  192  GLN192     -0.0878
     38  N        -24.9190   32.3630   -6.5500 N.3   194  ARG194     -0.1245
     39  CA       -26.0550   33.0430   -5.9310 C.3   194  ARG194      0.1563
     40  C        -25.5970   33.8870   -4.7500 C.2   194  ARG194      0.2260
     41  O        -24.7350   33.4720   -3.9780 O.2   194  ARG194     -0.2867
     42  CB       -27.1190   32.0350   -5.4850 C.3   194  ARG194      0.0307
     43  CG       -27.9790   31.5000   -6.6300 C.3   194  ARG194      0.0489
     44  CD       -29.2290   30.7850   -6.1190 C.3   194  ARG194      0.2205
     45  NE       -30.3480   30.9360   -7.0520 N.pl3 194  ARG194     -0.0865
     46  CZ       -30.4500   30.2820   -8.2050 C.cat 194  ARG194      0.5346
     47  NH1      -29.5010   29.4230   -8.5670 N.pl3 194  ARG194      0.1354
     48  NH2      -31.4990   30.4850   -8.9990 N.pl3 194  ARG194      0.1354
     49  N        -27.6500   26.7090  -16.3780 N.3   222  MET222     -0.1230
     50  CA       -26.9310   26.1350  -15.2500 C.3   222  MET222      0.1702
     51  C        -27.8360   25.2360  -14.4040 C.2   222  MET222      0.2592
     52  O        -28.8680   25.6830  -13.8990 O.2   222  MET222     -0.2718
     53  CB       -26.3490   27.2580  -14.3910 C.3   222  MET222      0.0401
     54  CG       -25.4560   26.8120  -13.2430 C.3   222  MET222      0.0596
     55  SD       -24.8010   28.2290  -12.3270 S.3   222  MET222     -0.1393
     56  CE       -23.7440   29.0100  -13.5430 C.3   222  MET222      0.0692
     57  N        -27.4520   23.9710  -14.2560 N.am  223  GLU223     -0.1966
     58  CA       -28.2070   23.0410  -13.4190 C.3   223  GLU223      0.1733
     59  C        -27.2320   22.2100  -12.5810 C.2   223  GLU223      0.2616
     60  O        -26.1260   22.6740  -12.2960 O.2   223  GLU223     -0.2715
     61  CB       -29.1360   22.1620  -14.2720 C.3   223  GLU223      0.0429
     62  CG       -28.5080   21.5650  -15.5210 C.3   223  GLU223      0.1163
     63  CD       -27.8270   20.2380  -15.2530 C.2   223  GLU223      0.3649
     64  OE1      -28.4800   19.3410  -14.6810 O.co2 223  GLU223     -0.2457
     65  OE2      -26.6390   20.0960  -15.6040 O.co2 223  GLU223     -0.2457
     66  N        -27.6180   21.0040  -12.1720 N.am  224  MET224     -0.1977
     67  CA       -26.8300   20.2990  -11.1550 C.3   224  MET224      0.1605
     68  C        -26.4320   18.8480  -11.4730 C.2   224  MET224      0.2287
     69  O        -25.7870   18.1970  -10.6450 O.2   224  MET224     -0.2864
     70  CB       -27.5900   20.3270   -9.8160 C.3   224  MET224      0.0413
     71  CG       -27.8570   21.7460   -9.2760 C.3   224  MET224      0.0598
     72  SD       -28.7400   21.8130   -7.6990 S.3   224  MET224     -0.1393
     73  CE       -27.5680   21.0090   -6.6080 C.3   224  MET224      0.0692
     74  N        -35.6900   29.0480  -15.4380 N.3   247  ALA247     -0.1231
     75  CA       -36.6790   29.5140  -14.4690 C.3   247  ALA247      0.1694
     76  C        -36.3790   30.9310  -14.0000 C.2   247  ALA247      0.2591
     77  O        -37.1780   31.5470  -13.2890 O.2   247  ALA247     -0.2718
     78  CB       -36.7360   28.5670  -13.2830 C.3   247  ALA247      0.0304
     79  N        -35.2230   31.4390  -14.4130 N.am  248  VAL248     -0.1980
     80  CA       -34.7570   32.7580  -14.0200 C.3   248  VAL248      0.1595
     81  C        -33.5980   33.1560  -14.9290 C.2   248  VAL248      0.2287
     82  O        -32.9030   32.2930  -15.4650 O.2   248  VAL248     -0.2864
     83  CB       -34.3100   32.7810  -12.5360 C.3   248  VAL248      0.0276
     84  CG1      -33.1110   31.8690  -12.3240 C.3   248  VAL248      0.0022
     85  CG2      -34.0120   34.2040  -12.0610 C.3   248  VAL248      0.0022
     86  N        -30.1870   34.5720  -14.5870 N.3   250  ARG250     -0.1245
     87  CA       -29.1990   34.7650  -13.5350 C.3   250  ARG250      0.1563
     88  C        -28.3510   36.0220  -13.7320 C.2   250  ARG250      0.2260
     89  O        -27.6790   36.4700  -12.8040 O.2   250  ARG250     -0.2867
     90  CB       -28.2960   33.5370  -13.4370 C.3   250  ARG250      0.0307
     91  CG       -29.0180   32.2720  -13.0020 C.3   250  ARG250      0.0489
     92  CD       -29.5250   32.3850  -11.5680 C.3   250  ARG250      0.2205
     93  NE       -28.5250   32.9890  -10.6850 N.pl3 250  ARG250     -0.0865
     94  CZ       -27.3530   32.4360  -10.3830 C.cat 250  ARG250      0.5346
     95  NH1      -27.0180   31.2580  -10.8930 N.pl3 250  ARG250      0.1354
     96  NH2      -26.5100   33.0680   -9.5780 N.pl3 250  ARG250      0.1354
     97  N        -35.9680   32.7860   -7.5540 N.3   256  ILE256     -0.1245
     98  CA       -37.0120   32.2720   -8.4280 C.3   256  ILE256      0.1561
     99  C        -38.3310   32.9450   -8.0570 C.2   256  ILE256      0.2260
    100  O        -39.0060   32.5170   -7.1270 O.2   256  ILE256     -0.2867
    101  CB       -37.1780   30.7460   -8.3060 C.3   256  ILE256      0.0252
    102  CG1      -35.8230   30.0230   -8.3870 C.3   256  ILE256      0.0019
    103  CG2      -38.1780   30.2300   -9.3430 C.3   256  ILE256      0.0019
    104  CD1      -35.0700   30.2630   -9.6550 C.3   256  ILE256      0.0001
    105  N        -44.1370   28.3320  -13.0170 N.3   263  PHE263     -0.1241
    106  CA       -42.9980   27.4220  -12.9900 C.3   263  PHE263      0.1605
    107  C        -43.3930   26.0660  -13.5630 C.2   263  PHE263      0.2264
    108  O        -42.6540   25.4690  -14.3500 O.2   263  PHE263     -0.2867
    109  CB       -42.4700   27.2740  -11.5610 C.3   263  PHE263      0.0534
    110  CG       -41.2330   26.4280  -11.4510 C.ar  263  PHE263     -0.0203
    111  CD1      -41.3250   25.0500  -11.3280 C.ar  263  PHE263     -0.0042
    112  CD2      -39.9770   27.0120  -11.4600 C.ar  263  PHE263     -0.0042
    113  CE1      -40.1900   24.2730  -11.2240 C.ar  263  PHE263     -0.0003
    114  CE2      -38.8380   26.2400  -11.3560 C.ar  263  PHE263     -0.0003
    115  CZ       -38.9470   24.8670  -11.2370 C.ar  263  PHE263     -0.0000
@<TRIPOS>BOND
     1    13    12    1
     2    49    50    1
     3    17    16    2
     4    12     9    1
     5    16    15    1
     6    65    63   ar
     7    62    63    1
     8    62    61    1
     9    82    81    2
    10    74    75    1
    11    63    64   ar
    12    50    51    1
    13    50    53    1
    14     1     2    1
    15    81    80    1
    16     2     3    1
    17     2     5    1
    18     8     9    1
    19     8     3   am
    20     9    10    1
    21    11    10    2
    22    10    14   am
    23     3     4    2
    24    86    87    1
    25    75    76    1
    26    75    78    1
    27    79    80    1
    28    79    76   am
    29    51    57   am
    30    51    52    2
    31    53    54    1
    32    15    14    1
    33   108   107    2
    34    61    58    1
    35    57    58    1
    36     7     5    1
    37    80    83    1
    38    76    77    2
    39     5     6    1
    40    88    87    1
    41    88    89    2
    42   107   106    1
    43    56    55    1
    44    87    90    1
    45    90    91    1
    46    58    59    1
    47    54    55    1
    48   105   106    1
    49    91    92    1
    50   106   109    1
    51    59    60    2
    52    59    66   am
    53    83    84    1
    54    83    85    1
    55    66    67    1
    56    92    93    1
    57   109   110    1
    58    68    67    1
    59    68    69    2
    60   112   110   ar
    61   112   114   ar
    62   110   111   ar
    63   114   115   ar
    64   111   113   ar
    65   115   113   ar
    66    67    70    1
    67    95    94    1
    68    93    94    2
    69    94    96    1
    70    36    35    2
    71    70    71    1
    72    32    31    2
    73    35    37   am
    74    35    34    1
    75   104   102    1
    76   103   101    1
    77    71    72    1
    78    34    33    1
    79    48    46    1
    80    33    30    1
    81    30    31    1
    82    30    29    1
    83    47    46    1
    84    98   101    1
    85    98    99    1
    86    98    97    1
    87   102   101    1
    88    46    45    2
    89    99   100    2
    90    26    28   ar
    91    26    24   ar
    92    72    73    1
    93    28    27   ar
    94    24    23   ar
    95    45    44    1
    96    43    44    1
    97    43    42    1
    98    38    39    1
    99    21    20    2
   100    27    25   ar
   101    23    25   ar
   102    23    22    1
   103    39    42    1
   104    39    40    1
   105    19    20    1
   106    19    22    1
   107    19    18    1
   108    40    41    2
