@<TRIPOS>MOLECULE
tmp/4txsD00.pdb
 114 108 0 0 0
SMALL
GASTEIGER

@<TRIPOS>ATOM
      1  N        -54.8250  -67.9290  -43.7670 N.3   183  PHE183     -0.1241
      2  CA       -53.7060  -67.6590  -44.6730 C.3   183  PHE183      0.1605
      3  C        -53.3210  -66.1970  -44.7600 C.2   183  PHE183      0.2264
      4  O        -52.3450  -65.8740  -45.4240 O.2   183  PHE183     -0.2867
      5  CB       -54.0050  -68.1530  -46.0650 C.3   183  PHE183      0.0534
      6  CG       -54.1160  -69.6330  -46.1720 C.ar  183  PHE183     -0.0203
      7  CD1      -52.9880  -70.4190  -46.2230 C.ar  183  PHE183     -0.0042
      8  CD2      -55.3510  -70.2480  -46.2970 C.ar  183  PHE183     -0.0042
      9  CE1      -53.0890  -71.8000  -46.3530 C.ar  183  PHE183     -0.0003
     10  CE2      -55.4560  -71.6230  -46.4180 C.ar  183  PHE183     -0.0003
     11  CZ       -54.3200  -72.3950  -46.4350 C.ar  183  PHE183     -0.0000
     12  N        -46.3430  -66.6020  -39.6530 N.3   187  PRO187     -0.2116
     13  CA       -46.3600  -67.5310  -38.5020 C.3   187  PRO187      0.1372
     14  C        -46.3480  -66.7980  -37.1590 C.2   187  PRO187      0.2244
     15  O        -46.9180  -67.2830  -36.1780 O.2   187  PRO187     -0.2868
     16  CB       -45.1070  -68.3820  -38.7010 C.3   187  PRO187      0.0268
     17  CG       -44.7730  -68.2310  -40.1710 C.3   187  PRO187      0.0207
     18  CD       -45.2440  -66.8630  -40.5930 C.3   187  PRO187      0.0892
     19  N        -49.9020  -65.5430  -36.4370 N.3   190  ARG190     -0.1245
     20  CA       -50.7820  -66.6460  -36.1000 C.3   190  ARG190      0.1563
     21  C        -50.5820  -67.0880  -34.6600 C.2   190  ARG190      0.2260
     22  O        -51.5340  -67.4300  -33.9840 O.2   190  ARG190     -0.2867
     23  CB       -50.5270  -67.8340  -37.0270 C.3   190  ARG190      0.0307
     24  CG       -51.4730  -69.0140  -36.7940 C.3   190  ARG190      0.0489
     25  CD       -51.0260  -70.2510  -37.5440 C.3   190  ARG190      0.2205
     26  NE       -51.8580  -71.4110  -37.2150 N.pl3 190  ARG190     -0.0865
     27  CZ       -52.9900  -71.7610  -37.8370 C.cat 190  ARG190      0.5346
     28  NH1      -53.4790  -71.0540  -38.8530 N.pl3 190  ARG190      0.1354
     29  NH2      -53.6420  -72.8440  -37.4350 N.pl3 190  ARG190      0.1354
     30  N        -57.7550  -73.1970  -42.2780 N.3   306  ASN306     -0.1240
     31  CA       -56.8010  -73.2310  -43.3960 C.3   306  ASN306      0.1653
     32  C        -57.1630  -74.3800  -44.3580 C.2   306  ASN306      0.2266
     33  O        -56.6030  -75.4640  -44.3120 O.2   306  ASN306     -0.2867
     34  CB       -55.3470  -73.4190  -42.8910 C.3   306  ASN306      0.1155
     35  CG       -54.8680  -72.2880  -41.9880 C.2   306  ASN306      0.2627
     36  OD1      -55.2900  -72.1980  -40.8370 O.2   306  ASN306     -0.2716
     37  ND2      -53.9640  -71.4440  -42.4900 N.am  306  ASN306     -0.0877
     38  N        -52.8520  -76.7650  -38.5130 N.3   356  CYS356     -0.1221
     39  CA       -51.9000  -76.6920  -39.6120 C.3   356  CYS356      0.1808
     40  C        -50.6030  -77.4210  -39.2350 C.2   356  CYS356      0.2602
     41  O        -49.5300  -76.8310  -39.1970 O.2   356  CYS356     -0.2717
     42  CB       -51.5970  -75.2460  -39.9870 C.3   356  CYS356      0.0970
     43  SG       -53.0550  -74.3470  -40.4410 S.3   356  CYS356     -0.0800
     44  N        -50.7000  -78.6940  -38.8910 N.am  357  SER357     -0.1938
     45  CA       -49.4960  -79.4730  -38.5770 C.3   357  SER357      0.2055
     46  C        -48.5920  -78.8970  -37.4350 C.2   357  SER357      0.2643
     47  O        -47.6360  -79.5750  -37.0400 O.2   357  SER357     -0.2714
     48  CB       -48.6600  -79.6740  -39.8640 C.3   357  SER357      0.2130
     49  OG       -49.3140  -80.4940  -40.8090 O.3   357  SER357     -0.2179
     50  N        -48.9290  -77.7060  -36.8950 N.am  358  SER358     -0.1949
     51  CA       -48.0930  -76.9540  -35.9430 C.3   358  SER358      0.1924
     52  C        -48.7350  -76.7150  -34.5820 C.2   358  SER358      0.2314
     53  O        -49.9140  -76.9270  -34.4130 O.2   358  SER358     -0.2863
     54  CB       -47.8060  -75.5640  -36.4990 C.3   358  SER358      0.2116
     55  OG       -47.4840  -75.6040  -37.8680 O.3   358  SER358     -0.2180
     56  N        -44.2450  -70.6310  -33.1180 N.3   374  LEU374     -0.1245
     57  CA       -44.9260  -71.7810  -33.6650 C.3   374  LEU374      0.1561
     58  C        -43.9370  -72.8920  -33.9710 C.2   374  LEU374      0.2260
     59  O        -42.8530  -72.6500  -34.4980 O.2   374  LEU374     -0.2867
     60  CB       -45.6600  -71.3320  -34.9200 C.3   374  LEU374      0.0270
     61  CG       -47.0620  -71.8620  -35.1730 C.3   374  LEU374      0.0019
     62  CD1      -47.9790  -71.9270  -33.9560 C.3   374  LEU374      0.0001
     63  CD2      -47.7130  -70.9930  -36.2250 C.3   374  LEU374      0.0001
     64  N        -43.5600  -77.5950  -34.5920 N.3   376  ARG376     -0.1245
     65  CA       -44.2000  -78.8810  -34.8410 C.3   376  ARG376      0.1563
     66  C        -43.2500  -79.9480  -34.4320 C.2   376  ARG376      0.2260
     67  O        -42.1400  -79.6620  -33.9730 O.2   376  ARG376     -0.2867
     68  CB       -44.5850  -79.0580  -36.3250 C.3   376  ARG376      0.0307
     69  CG       -43.5030  -78.6760  -37.3390 C.3   376  ARG376      0.0489
     70  CD       -43.9000  -79.0200  -38.7720 C.3   376  ARG376      0.2205
     71  NE       -44.0890  -80.4680  -38.9160 N.pl3 376  ARG376     -0.0865
     72  CZ       -44.8840  -81.0690  -39.8000 C.cat 376  ARG376      0.5346
     73  NH1      -45.5960  -80.3640  -40.6730 N.pl3 376  ARG376      0.1354
     74  NH2      -44.9730  -82.3890  -39.7970 N.pl3 376  ARG376      0.1354
     75  N        -39.0370  -74.6700  -44.3450 N.3   401  ASN401     -0.1240
     76  CA       -39.1090  -74.9900  -42.9410 C.3   401  ASN401      0.1653
     77  C        -38.2980  -74.0020  -42.0910 C.2   401  ASN401      0.2266
     78  O        -38.7140  -73.6110  -41.0300 O.2   401  ASN401     -0.2867
     79  CB       -38.7110  -76.4530  -42.7080 C.3   401  ASN401      0.1155
     80  CG       -39.8060  -77.4420  -43.1260 C.2   401  ASN401      0.2627
     81  OD1      -40.9710  -77.2780  -42.7820 O.2   401  ASN401     -0.2716
     82  ND2      -39.4200  -78.4990  -43.8380 N.am  401  ASN401     -0.0877
     83  N        -40.6410  -70.7540  -42.0660 N.3   404  MET404     -0.1230
     84  CA       -41.8200  -71.0810  -41.2420 C.3   404  MET404      0.1702
     85  C        -41.4580  -71.2510  -39.7900 C.2   404  MET404      0.2592
     86  O        -42.1610  -70.7410  -38.9190 O.2   404  MET404     -0.2718
     87  CB       -42.4920  -72.3860  -41.6790 C.3   404  MET404      0.0401
     88  CG       -42.9880  -72.4400  -43.1080 C.3   404  MET404      0.0596
     89  SD       -43.8820  -70.9570  -43.5540 S.3   404  MET404     -0.1393
     90  CE       -45.4730  -71.4490  -42.9690 C.3   404  MET404      0.0692
     91  N        -40.3730  -71.9740  -39.5290 N.am  405  TYR405     -0.1976
     92  CA       -40.0380  -72.3770  -38.1620 C.3   405  TYR405      0.1639
     93  C        -38.7120  -71.8790  -37.6590 C.2   405  TYR405      0.2290
     94  O        -38.1500  -72.4800  -36.7380 O.2   405  TYR405     -0.2864
     95  CB       -40.0760  -73.8930  -38.0200 C.3   405  TYR405      0.0560
     96  CG       -41.4370  -74.4280  -38.2930 C.ar  405  TYR405     -0.0198
     97  CD1      -42.4190  -74.3570  -37.3280 C.ar  405  TYR405     -0.0009
     98  CD2      -41.7600  -74.9740  -39.5410 C.ar  405  TYR405     -0.0009
     99  CE1      -43.7030  -74.8300  -37.5810 C.ar  405  TYR405      0.0417
    100  CE2      -43.0310  -75.4550  -39.8060 C.ar  405  TYR405      0.0417
    101  CZ       -44.0000  -75.3820  -38.8260 C.ar  405  TYR405      0.1957
    102  OH       -45.2520  -75.8640  -39.0710 O.3   405  TYR405     -0.2866
    103  N        -47.3430  -71.2800  -48.2250 N.3   438  TYR438     -0.1241
    104  CA       -48.7800  -71.3410  -48.3820 C.3   438  TYR438      0.1605
    105  C        -49.0880  -71.7070  -49.8350 C.2   438  TYR438      0.2264
    106  O        -49.7570  -70.9450  -50.5520 O.2   438  TYR438     -0.2867
    107  CB       -49.4280  -69.9920  -48.0290 C.3   438  TYR438      0.0534
    108  CG       -49.5740  -69.6850  -46.5590 C.ar  438  TYR438     -0.0201
    109  CD1      -49.5470  -70.6990  -45.6010 C.ar  438  TYR438     -0.0009
    110  CD2      -49.8110  -68.3730  -46.1270 C.ar  438  TYR438     -0.0009
    111  CE1      -49.7060  -70.4130  -44.2600 C.ar  438  TYR438      0.0417
    112  CE2      -49.9710  -68.0900  -44.7810 C.ar  438  TYR438      0.0417
    113  CZ       -49.9120  -69.1200  -43.8550 C.ar  438  TYR438      0.1957
    114  OH       -50.0590  -68.8880  -42.5160 O.3   438  TYR438     -0.2866
@<TRIPOS>BOND
     1   106   105    2
     2   105   104    1
     3   104   103    1
     4   104   107    1
     5   107   108    1
     6   108   110   ar
     7   108   109   ar
     8    11    10   ar
     9    11     9   ar
    10    10     8   ar
    11     9     7   ar
    12     8     6   ar
    13     7     6   ar
    14     6     5    1
    15   110   112   ar
    16     5     2    1
    17   109   111   ar
    18     4     3    2
    19   112   113   ar
    20     3     2    1
    21     2     1    1
    22    32    33    2
    23    32    31    1
    24    75    76    1
    25   111   113   ar
    26   113   114    1
    27    82    80   am
    28    89    88    1
    29    89    90    1
    30    31    34    1
    31    31    30    1
    32    80    81    2
    33    80    79    1
    34    88    87    1
    35    76    79    1
    36    76    77    1
    37    34    35    1
    38    37    35   am
    39    77    78    2
    40    83    84    1
    41    35    36    2
    42    87    84    1
    43    84    85    1
    44    49    48    1
    45    73    72    1
    46    18    17    1
    47    18    12    1
    48    43    42    1
    49    17    16    1
    50    42    39    1
    51    48    45    1
    52   100    98   ar
    53   100   101   ar
    54    72    74    1
    55    72    71    2
    56    85    91   am
    57    85    86    2
    58    12    13    1
    59    39    40    1
    60    39    38    1
    61    98    96   ar
    62    91    92    1
    63    40    41    2
    64    40    44   am
    65   102   101    1
    66    71    70    1
    67    44    45    1
    68    28    27    1
    69   101    99   ar
    70    70    69    1
    71    16    13    1
    72    45    46    1
    73    13    14    1
    74    96    95    1
    75    96    97   ar
    76    92    95    1
    77    92    93    1
    78    55    54    1
    79    27    29    1
    80    27    26    2
    81    93    94    2
    82    99    97   ar
    83    25    26    1
    84    25    24    1
    85    46    47    2
    86    46    50   am
    87    69    68    1
    88    14    15    2
    89    23    24    1
    90    23    20    1
    91    50    51    1
    92    54    51    1
    93    19    20    1
    94    68    65    1
    95    63    61    1
    96    20    21    1
    97    51    52    1
    98    61    60    1
    99    61    62    1
   100    60    57    1
   101    65    64    1
   102    65    66    1
   103    21    22    2
   104    52    53    2
   105    59    58    2
   106    66    67    2
   107    58    57    1
   108    57    56    1
