@<TRIPOS>MOLECULE
tmp/4txtA01.pdb
 192 190 0 0 0
SMALL
GASTEIGER

@<TRIPOS>ATOM
      1  N          5.8740   -5.1260   37.5100 N.3    31  HIS31      -0.1241
      2  CA         6.8320   -4.3770   36.6970 C.3    31  HIS31       0.1621
      3  C          8.2780   -4.7830   36.9730 C.2    31  HIS31       0.2264
      4  O          9.0810   -4.9360   36.0470 O.2    31  HIS31      -0.2867
      5  CB         6.6660   -2.8970   36.9410 C.3    31  HIS31       0.0745
      6  CG         7.7060   -2.0520   36.2490 C.ar   31  HIS31       0.0817
      7  ND1        7.7010   -1.8440   34.9070 N.ar   31  HIS31      -0.2268
      8  CD2        8.7830   -1.3450   36.7550 C.ar   31  HIS31       0.1154
      9  CE1        8.7460   -1.0560   34.5770 C.ar   31  HIS31       0.1986
     10  NE2        9.3970   -0.7330   35.7090 N.ar   31  HIS31      -0.2212
     11  N          9.3900    5.2460   36.7210 N.3    39  GLU39      -0.1231
     12  CA         9.8110    5.4810   35.3290 C.3    39  GLU39       0.1699
     13  C          8.6610    5.5910   34.3460 C.2    39  GLU39       0.2592
     14  O          8.6010    6.5310   33.5700 O.2    39  GLU39      -0.2718
     15  CB        10.8680    4.4620   34.8600 C.3    39  GLU39       0.0402
     16  CG        10.5410    3.0170   35.1600 C.3    39  GLU39       0.1161
     17  CD        11.7680    2.1130   35.0730 C.2    39  GLU39       0.3649
     18  OE1       11.5790    0.9120   34.8590 O.co2  39  GLU39      -0.2457
     19  OE2       12.9210    2.5910   35.2320 O.co2  39  GLU39      -0.2457
     20  N          7.7600    4.6190   34.3500 N.am   40  ALA40      -0.1966
     21  CA         6.5220    4.7620   33.5910 C.3    40  ALA40       0.1713
     22  C          5.3660    4.3990   34.5460 C.2    40  ALA40       0.2458
     23  O          4.5120    5.2500   34.8230 O.2    40  ALA40      -0.2730
     24  CB         6.5490    3.9560   32.2950 C.3    40  ALA40       0.0333
     25  N          5.3850    3.1760   35.1280 N.am   41  PRO41      -0.2727
     26  CA         4.7190    3.0230   36.4080 C.3    41  PRO41       0.1402
     27  C          5.5460    3.7880   37.4640 C.2    41  PRO41       0.2269
     28  O          6.7380    4.0510   37.2350 O.2    41  PRO41      -0.2865
     29  CB         4.7980    1.5150   36.6620 C.3    41  PRO41       0.0296
     30  CG         6.0480    1.1010   35.9730 C.3    41  PRO41       0.0237
     31  CD         6.0890    1.9420   34.7320 C.3    41  PRO41       0.0939
     32  N          1.9900   -3.5520   34.0140 N.3    48  THR48      -0.1218
     33  CA         1.5670   -2.9420   32.7680 C.3    48  THR48       0.1862
     34  C          1.1390   -4.0390   31.8020 C.2    48  THR48       0.2287
     35  O          1.4850   -5.2210   31.9730 O.2    48  THR48      -0.2866
     36  CB         2.7050   -2.1120   32.1440 C.3    48  THR48       0.1770
     37  OG1        3.8200   -2.9680   31.8500 O.3    48  THR48      -0.2211
     38  CG2        3.1740   -1.0030   33.1100 C.3    48  THR48       0.0375
     39  N          2.2760   -4.0250   28.9900 N.3    50  GLU50      -0.1245
     40  CA         3.6270   -4.3140   28.4900 C.3    50  GLU50       0.1567
     41  C          4.2240   -5.5590   29.1760 C.2    50  GLU50       0.2260
     42  O          4.6660   -6.4780   28.4920 O.2    50  GLU50      -0.2867
     43  CB         4.5210   -3.0860   28.6920 C.3    50  GLU50       0.0388
     44  CG         6.0110   -3.3430   28.8440 C.3    50  GLU50       0.1160
     45  CD         6.7580   -2.0680   29.2110 C.2    50  GLU50       0.3649
     46  OE1        6.9050   -1.1790   28.3340 O.co2  50  GLU50      -0.2457
     47  OE2        7.1890   -1.9510   30.3750 O.co2  50  GLU50      -0.2457
     48  N         14.6110    8.5980   24.2030 N.3   407  TRP407     -0.1241
     49  CA        14.9630    7.2850   24.7180 C.3   407  TRP407      0.1605
     50  C         15.3660    6.3670   23.5960 C.2   407  TRP407      0.2264
     51  O         14.5650    6.0590   22.7150 O.2   407  TRP407     -0.2867
     52  CB        13.7860    6.6940   25.4610 C.3   407  TRP407      0.0550
     53  CG        14.0580    5.3890   26.1760 C.ar  407  TRP407      0.0003
     54  CD1       15.0600    5.1170   27.1060 C.ar  407  TRP407      0.0946
     55  CD2       13.2870    4.1350   26.0730 C.ar  407  TRP407      0.0152
     56  NE1       14.9670    3.8240   27.5660 N.ar  407  TRP407     -0.2442
     57  CE2       13.9290    3.1810   26.9880 C.ar  407  TRP407      0.0810
     58  CE3       12.1920    3.7160   25.3250 C.ar  407  TRP407      0.0012
     59  CZ2       13.4610    1.8850   27.1430 C.ar  407  TRP407      0.0191
     60  CZ3       11.7320    2.4070   25.4800 C.ar  407  TRP407      0.0001
     61  CH2       12.3430    1.5150   26.3740 C.ar  407  TRP407      0.0015
     62  N         13.3230    2.7200   22.2210 N.3   410  PHE410     -0.1241
     63  CA        12.3610    2.5100   21.1350 C.3   410  PHE410      0.1605
     64  C         12.9950    2.0580   19.8300 C.2   410  PHE410      0.2264
     65  O         12.3740    1.3340   19.0640 O.2   410  PHE410     -0.2867
     66  CB        11.5310    3.7590   20.8770 C.3   410  PHE410      0.0534
     67  CG        10.4440    3.9860   21.8890 C.ar  410  PHE410     -0.0203
     68  CD1       10.3320    5.2180   22.5340 C.ar  410  PHE410     -0.0042
     69  CD2        9.5130    2.9750   22.1840 C.ar  410  PHE410     -0.0042
     70  CE1        9.3180    5.4460   23.4570 C.ar  410  PHE410     -0.0003
     71  CE2        8.4990    3.1950   23.1110 C.ar  410  PHE410     -0.0003
     72  CZ         8.4010    4.4340   23.7450 C.ar  410  PHE410     -0.0000
     73  N         13.2900   -1.9180   20.5730 N.3   413  TRP413     -0.1241
     74  CA        11.9820   -2.5490   20.6660 C.3   413  TRP413      0.1605
     75  C         11.2870   -2.5870   19.3390 C.2   413  TRP413      0.2264
     76  O         10.7690   -3.6310   18.9350 O.2   413  TRP413     -0.2867
     77  CB        11.1140   -1.7690   21.6290 C.3   413  TRP413      0.0550
     78  CG        11.3120   -2.1240   23.0730 C.ar  413  TRP413      0.0003
     79  CD1       12.2640   -2.9860   23.6310 C.ar  413  TRP413      0.0946
     80  CD2       10.5610   -1.5890   24.2020 C.ar  413  TRP413      0.0152
     81  NE1       12.1350   -3.0390   24.9960 N.ar  413  TRP413     -0.2442
     82  CE2       11.1230   -2.2150   25.4050 C.ar  413  TRP413      0.0810
     83  CE3        9.5040   -0.6950   24.3330 C.ar  413  TRP413      0.0012
     84  CZ2       10.6250   -1.9500   26.6650 C.ar  413  TRP413      0.0191
     85  CZ3        9.0080   -0.4300   25.6170 C.ar  413  TRP413      0.0001
     86  CH2        9.5510   -1.0500   26.7520 C.ar  413  TRP413      0.0015
     87  N         21.9350    5.8170   25.2810 N.3   457  SER457     -0.1217
     88  CA        20.9060    5.9110   26.3000 C.3   457  SER457      0.1889
     89  C         19.8980    6.9810   25.8780 C.2   457  SER457      0.2288
     90  O         18.7160    6.6930   25.6960 O.2   457  SER457     -0.2866
     91  CB        21.5740    6.2600   27.6180 C.3   457  SER457      0.2089
     92  OG        20.6270    6.5010   28.6050 O.3   457  SER457     -0.2183
     93  N         25.5110    7.4620   26.9870 N.3   485  TYR485     -0.1227
     94  CA        25.5960    6.0220   26.8980 C.3   485  TYR485      0.1736
     95  C         25.2860    5.3540   28.2200 C.2   485  TYR485      0.2596
     96  O         25.4660    5.9440   29.2860 O.2   485  TYR485     -0.2718
     97  CB        27.0180    5.6380   26.4850 C.3   485  TYR485      0.0548
     98  CG        27.2440    5.7100   24.9990 C.ar  485  TYR485     -0.0200
     99  CD1       27.6570    6.8910   24.3940 C.ar  485  TYR485     -0.0009
    100  CD2       27.0270    4.5980   24.1990 C.ar  485  TYR485     -0.0009
    101  CE1       27.8620    6.9600   23.0280 C.ar  485  TYR485      0.0417
    102  CE2       27.2250    4.6580   22.8300 C.ar  485  TYR485      0.0417
    103  CZ        27.6430    5.8360   22.2560 C.ar  485  TYR485      0.1957
    104  OH        27.8500    5.8970   20.9030 O.3   485  TYR485     -0.2866
    105  N         24.8340    4.1110   28.1540 N.am  486  GLY486     -0.1942
    106  CA        24.5040    3.3630   29.3610 C.3   486  GLY486      0.2014
    107  C         24.6290    1.8770   29.1320 C.2   486  GLY486      0.2640
    108  O         25.0930    1.4550   28.0740 O.2   486  GLY486     -0.2714
    109  N         24.2010    1.0970   30.1260 N.am  487  THR487     -0.1936
    110  CA        24.1990   -0.3460   30.0460 C.3   487  THR487      0.2028
    111  C         22.8090   -0.8640   30.3720 C.2   487  THR487      0.2642
    112  O         22.6250   -1.7250   31.2470 O.2   487  THR487     -0.2714
    113  CB        25.2370   -0.9750   31.0030 C.3   487  THR487      0.1808
    114  OG1       24.9020   -0.6370   32.3560 O.3   487  THR487     -0.2208
    115  CG2       26.6480   -0.4670   30.6810 C.3   487  THR487      0.0379
    116  N         21.8190   -0.3280   29.6680 N.am  488  ASP488     -0.1971
    117  CA        20.4620   -0.8030   29.8460 C.3   488  ASP488      0.1709
    118  C         20.4010   -2.2020   29.2510 C.2   488  ASP488      0.2293
    119  O         20.4790   -2.3650   28.0380 O.2   488  ASP488     -0.2864
    120  CB        19.4680    0.1120   29.1380 C.3   488  ASP488      0.1436
    121  CG        18.0340   -0.2520   29.4490 C.2   488  ASP488      0.3671
    122  OD1       17.7010   -1.4550   29.4420 O.co2 488  ASP488     -0.2456
    123  OD2       17.2420    0.6790   29.6990 O.co2 488  ASP488     -0.2456
    124  N         24.3090   -1.8370   37.3630 N.3   540  PRO540     -0.2102
    125  CA        24.0820   -0.7030   38.2530 C.3   540  PRO540      0.1504
    126  C         23.5960    0.5370   37.5090 C.2   540  PRO540      0.2576
    127  O         24.0760    0.8350   36.4190 O.2   540  PRO540     -0.2718
    128  CB        25.4650   -0.4630   38.8820 C.3   540  PRO540      0.0282
    129  CG        26.4240   -1.1080   37.9400 C.3   540  PRO540      0.0208
    130  CD        25.7020   -2.3120   37.4210 C.3   540  PRO540      0.0893
    131  N         22.6300    1.2420   38.0880 N.am  541  GLU541     -0.1966
    132  CA        22.2000    2.5180   37.5210 C.3   541  GLU541      0.1733
    133  C         22.0260    3.5340   38.6340 C.2   541  GLU541      0.2616
    134  O         21.4300    3.2510   39.6740 O.2   541  GLU541     -0.2715
    135  CB        20.9250    2.3890   36.6530 C.3   541  GLU541      0.0429
    136  CG        19.6260    2.0530   37.3850 C.3   541  GLU541      0.1163
    137  CD        18.4580    1.7340   36.4460 C.2   541  GLU541      0.3649
    138  OE1       18.4250    0.6280   35.8490 O.co2 541  GLU541     -0.2457
    139  OE2       17.5510    2.5870   36.3120 O.co2 541  GLU541     -0.2457
    140  N         22.5820    4.7150   38.4160 N.am  542  LYS542     -0.1963
    141  CA        22.3450    5.8200   39.3100 C.3   542  LYS542      0.1728
    142  C         21.0500    6.4820   38.8710 C.2   542  LYS542      0.2616
    143  O         20.7840    6.6100   37.6650 O.2   542  LYS542     -0.2715
    144  CB        23.4960    6.8120   39.2570 C.3   542  LYS542      0.0311
    145  CG        24.8060    6.2410   39.7790 C.3   542  LYS542      0.0038
    146  CD        25.9790    7.0730   39.2770 C.3   542  LYS542      0.0206
    147  CE        27.3170    6.4770   39.6950 C.3   542  LYS542      0.1093
    148  NZ        27.5050    6.5050   41.1750 N.3   542  LYS542     -0.1314
    149  N         20.2440    6.8840   39.8520 N.am  543  ARG543     -0.1977
    150  CA        18.9520    7.5070   39.5750 C.3   543  ARG543      0.1597
    151  C         18.8540    8.8500   40.2840 C.2   543  ARG543      0.2287
    152  O         18.1050    9.0110   41.2570 O.2   543  ARG543     -0.2864
    153  CB        17.8080    6.5760   39.9890 C.3   543  ARG543      0.0334
    154  CG        17.7310    5.2560   39.2040 C.3   543  ARG543      0.0492
    155  CD        17.5840    5.4810   37.6960 C.3   543  ARG543      0.2205
    156  NE        16.3680    6.2290   37.3660 N.pl3 543  ARG543     -0.0865
    157  CZ        15.2080    5.6880   36.9920 C.cat 543  ARG543      0.5346
    158  NH1       15.0760    4.3680   36.8820 N.pl3 543  ARG543      0.1354
    159  NH2       14.1650    6.4820   36.7370 N.pl3 543  ARG543      0.1354
    160  N         17.4120   11.3080   39.2670 N.3   545  ASP545     -0.1239
    161  CA        16.0660   11.8460   39.0720 C.3   545  ASP545      0.1674
    162  C         15.1740   11.5900   40.2830 C.2   545  ASP545      0.2266
    163  O         14.0850   12.1630   40.4030 O.2   545  ASP545     -0.2867
    164  CB        15.4310   11.3040   37.7770 C.3   545  ASP545      0.1410
    165  CG        15.3820    9.7770   37.7240 C.2   545  ASP545      0.3668
    166  OD1       16.4000    9.1040   38.0200 O.co2 545  ASP545     -0.2456
    167  OD2       14.3180    9.2360   37.3550 O.co2 545  ASP545     -0.2456
    168  N         13.8020   -5.5830   36.2390 N.3   608  ARG608     -0.1245
    169  CA        12.5540   -5.3090   35.5310 C.3   608  ARG608      0.1563
    170  C         12.1220   -6.5920   34.8010 C.2   608  ARG608      0.2260
    171  O         12.9420   -7.2600   34.1610 O.2   608  ARG608     -0.2867
    172  CB        12.7290   -4.1340   34.5490 C.3   608  ARG608      0.0307
    173  CG        13.2510   -2.8240   35.1690 C.3   608  ARG608      0.0489
    174  CD        13.6560   -1.8270   34.0700 C.3   608  ARG608      0.2205
    175  NE        13.9220   -0.4690   34.5750 N.pl3 608  ARG608     -0.0865
    176  CZ        15.1140   -0.0420   34.9710 C.cat 608  ARG608      0.5346
    177  NH1       16.1560   -0.8720   34.9420 N.pl3 608  ARG608      0.1354
    178  NH2       15.2690    1.1970   35.4240 N.pl3 608  ARG608      0.1354
    179  N         10.2410   -7.0960   32.1530 N.3   610  TRP610     -0.1241
    180  CA        10.3680   -7.0920   30.6840 C.3   610  TRP610      0.1605
    181  C         11.7970   -7.2230   30.2520 C.2   610  TRP610      0.2264
    182  O         12.0850   -7.8570   29.2250 O.2   610  TRP610     -0.2867
    183  CB         9.7060   -5.8720   30.0290 C.3   610  TRP610      0.0550
    184  CG        10.3760   -4.5530   30.3010 C.ar  610  TRP610      0.0003
    185  CD1       10.0070   -3.5930   31.2370 C.ar  610  TRP610      0.0946
    186  CD2       11.5410   -3.9800   29.6060 C.ar  610  TRP610      0.0152
    187  NE1       10.8570   -2.5170   31.1840 N.ar  610  TRP610     -0.2442
    188  CE2       11.7890   -2.6840   30.2230 C.ar  610  TRP610      0.0810
    189  CE3       12.3720   -4.4030   28.5780 C.ar  610  TRP610      0.0012
    190  CZ2       12.8350   -1.8540   29.8080 C.ar  610  TRP610      0.0191
    191  CZ3       13.4150   -3.5620   28.1710 C.ar  610  TRP610      0.0001
    192  CH2       13.6340   -2.3140   28.7710 C.ar  610  TRP610      0.0015
@<TRIPOS>BOND
     1    76    75    2
     2    65    64    2
     3    75    74    1
     4    64    63    1
     5    73    74    1
     6    74    77    1
     7    66    63    1
     8    66    67    1
     9   104   103    1
    10    63    62    1
    11    77    78    1
    12    67    69   ar
    13    67    68   ar
    14    69    71   ar
    15   103   102   ar
    16   103   101   ar
    17    68    70   ar
    18    51    50    2
    19   102   100   ar
    20   101    99   ar
    21    78    79   ar
    22    78    80   ar
    23    71    72   ar
    24    70    72   ar
    25    50    49    1
    26    79    81   ar
    27   100    98   ar
    28    80    83   ar
    29    80    82   ar
    30    48    49    1
    31    83    85   ar
    32    99    98   ar
    33    49    52    1
    34    81    82   ar
    35    98    97    1
    36    87    88    1
    37    58    60   ar
    38    58    55   ar
    39    82    84   ar
    40    52    53    1
    41    60    61   ar
    42    85    86   ar
    43    90    89    2
    44    89    88    1
    45    55    53   ar
    46    55    57   ar
    47    53    54   ar
    48    88    91    1
    49    61    59   ar
    50    97    94    1
    51    84    86   ar
    52    94    93    1
    53    94    95    1
    54    57    59   ar
    55    57    56   ar
    56    54    56   ar
    57    91    92    1
    58   119   118    2
    59   108   107    2
    60   105    95   am
    61   105   106    1
    62   191   189   ar
    63   191   192   ar
    64    95    96    2
    65    46    45   ar
    66    40    43    1
    67    40    39    1
    68    40    41    1
    69    42    41    2
    70   189   186   ar
    71    43    44    1
    72   192   190   ar
    73    44    45    1
    74   107   106    1
    75   107   109   am
    76   120   121    1
    77   120   117    1
    78    45    47   ar
    79   182   181    2
    80   118   117    1
    81   122   121   ar
    82   121   123   ar
    83   186   188   ar
    84   186   184   ar
    85   116   117    1
    86   116   111   am
    87   190   188   ar
    88   183   184    1
    89   183   180    1
    90   110   109    1
    91   110   111    1
    92   110   113    1
    93   188   187   ar
    94   181   180    1
    95   184   185   ar
    96   111   112    2
    97   115   113    1
    98   180   179    1
    99   113   114    1
   100   187   185   ar
   101    34    35    2
   102    34    33    1
   103    37    36    1
   104    36    33    1
   105    36    38    1
   106    24    21    1
   107    33    32    1
   108    14    13    2
   109    21    20    1
   110    21    22    1
   111   174   175    1
   112   174   173    1
   113   171   170    2
   114    13    20   am
   115    13    12    1
   116    22    23    2
   117    22    25   am
   118   172   173    1
   119   172   169    1
   120   175   176    2
   121     9     7   ar
   122     9    10   ar
   123    31    25    1
   124    31    30    1
   125   170   169    1
   126    18    17   ar
   127    15    16    1
   128    15    12    1
   129     7     6   ar
   130   177   176    1
   131   176   178    1
   132    17    16    1
   133    17    19   ar
   134    25    26    1
   135    12    11    1
   136   169   168    1
   137    10     8   ar
   138   138   137   ar
   139    30    29    1
   140     4     3    2
   141     6     8   ar
   142     6     5    1
   143   139   137   ar
   144    26    29    1
   145    26    27    1
   146   127   126    2
   147   137   136    1
   148   135   136    1
   149   135   132    1
   150     2     5    1
   151     2     3    1
   152     2     1    1
   153   159   157    1
   154   158   157    1
   155   157   156    2
   156    28    27    2
   157   167   165   ar
   158   124   130    1
   159   124   125    1
   160   156   155    1
   161   130   129    1
   162   126   131   am
   163   126   125    1
   164   132   131    1
   165   132   133    1
   166   143   142    2
   167   155   154    1
   168   165   164    1
   169   165   166   ar
   170   164   161    1
   171   129   128    1
   172   125   128    1
   173   140   133   am
   174   140   141    1
   175   133   134    2
   176   142   141    1
   177   142   149   am
   178   161   160    1
   179   161   162    1
   180   154   153    1
   181   144   141    1
   182   144   145    1
   183   146   147    1
   184   146   145    1
   185   150   149    1
   186   150   153    1
   187   150   151    1
   188   147   148    1
   189   162   163    2
   190   151   152    2
