@<TRIPOS>MOLECULE
tmp/4txzA00.pdb
 199 184 0 0 0
SMALL
GASTEIGER

@<TRIPOS>ATOM
      1  N         -7.6360   17.8760  -53.0610 N.3   109  GLN109     -0.1231
      2  CA        -7.9480   18.6040  -51.8420 C.3   109  GLN109      0.1698
      3  C         -7.2260   17.9530  -50.6710 C.2   109  GLN109      0.2593
      4  O         -6.6190   16.8910  -50.8190 O.2   109  GLN109     -0.2718
      5  CB        -9.4540   18.6160  -51.5820 C.3   109  GLN109      0.0381
      6  CG        -9.9950   17.2710  -51.1140 C.3   109  GLN109      0.0905
      7  CD       -11.4570   17.0680  -51.4550 C.2   109  GLN109      0.2608
      8  OE1      -11.8710   17.2460  -52.6000 O.2   109  GLN109     -0.2717
      9  NE2      -12.2490   16.6880  -50.4590 N.am  109  GLN109     -0.0878
     10  N         -7.2900   18.5900  -49.5080 N.am  110  GLY110     -0.1942
     11  CA        -6.6930   18.0280  -48.3130 C.3   110  GLY110      0.2014
     12  C         -5.2270   18.3670  -48.1350 C.2   110  GLY110      0.2639
     13  O         -4.7160   19.3130  -48.7360 O.2   110  GLY110     -0.2714
     14  N         -4.5600   17.5820  -47.2950 N.am  111  SER111     -0.1949
     15  CA        -3.1590   17.7950  -46.9470 C.3   111  SER111      0.1924
     16  C         -2.2320   17.9000  -48.1570 C.2   111  SER111      0.2314
     17  O         -1.3250   18.7290  -48.1760 O.2   111  SER111     -0.2863
     18  CB        -2.6830   16.6740  -46.0220 C.3   111  SER111      0.2116
     19  OG        -3.2620   15.4330  -46.3850 O.3   111  SER111     -0.2180
     20  N         -2.7740   21.5990  -49.7440 N.3   114  TYR114     -0.1241
     21  CA        -2.2050   22.7370  -49.0240 C.3   114  TYR114      0.1605
     22  C         -0.9830   22.3600  -48.1870 C.2   114  TYR114      0.2264
     23  O         -0.6640   23.0380  -47.2100 O.2   114  TYR114     -0.2867
     24  CB        -3.2540   23.4220  -48.1370 C.3   114  TYR114      0.0534
     25  CG        -4.3120   22.5270  -47.5300 C.ar  114  TYR114     -0.0201
     26  CD1       -4.0160   21.6800  -46.4710 C.ar  114  TYR114     -0.0009
     27  CD2       -5.6240   22.5680  -47.9870 C.ar  114  TYR114     -0.0009
     28  CE1       -4.9890   20.8760  -45.9060 C.ar  114  TYR114      0.0417
     29  CE2       -6.6030   21.7710  -47.4280 C.ar  114  TYR114      0.0417
     30  CZ        -6.2810   20.9290  -46.3880 C.ar  114  TYR114      0.1957
     31  OH        -7.2570   20.1330  -45.8310 O.3   114  TYR114     -0.2866
     32  N          0.2560   19.7870  -46.0530 N.3   116  THR116     -0.1203
     33  CA         0.2830   19.4360  -44.6370 C.3   116  THR116      0.1994
     34  C          0.2820   17.9230  -44.4600 C.2   116  THR116      0.2618
     35  O         -0.0970   17.4110  -43.4060 O.2   116  THR116     -0.2717
     36  CB        -0.9130   20.0340  -43.8730 C.3   116  THR116      0.1784
     37  OG1       -2.1210   19.7950  -44.6050 O.3   116  THR116     -0.2211
     38  CG2       -0.7300   21.5300  -43.6750 C.3   116  THR116      0.0376
     39  N          0.7100   17.2150  -45.4990 N.am  117  LEU117     -0.1965
     40  CA         0.7460   15.7590  -45.4710 C.3   117  LEU117      0.1728
     41  C          1.9380   15.2650  -44.6650 C.2   117  LEU117      0.2616
     42  O          3.0880   15.4710  -45.0490 O.2   117  LEU117     -0.2715
     43  CB         0.8020   15.1900  -46.8890 C.3   117  LEU117      0.0311
     44  CG        -0.0610   13.9600  -47.1940 C.3   117  LEU117      0.0022
     45  CD1        0.6130   13.0890  -48.2390 C.3   117  LEU117      0.0001
     46  CD2       -0.3840   13.1510  -45.9430 C.3   117  LEU117      0.0001
     47  N          1.6560   14.6150  -43.5420 N.am  118  ASN118     -0.1972
     48  CA         2.7100   14.0810  -42.6960 C.3   118  ASN118      0.1688
     49  C          3.0220   12.6360  -43.0520 C.2   118  ASN118      0.2292
     50  O          2.1610   11.9110  -43.5510 O.2   118  ASN118     -0.2864
     51  CB         2.3140   14.1710  -41.2220 C.3   118  ASN118      0.1181
     52  CG         2.3710   15.5840  -40.6850 C.2   118  ASN118      0.2629
     53  OD1        3.1430   16.4140  -41.1620 O.2   118  ASN118     -0.2716
     54  ND2        1.5510   15.8650  -39.6790 N.am  118  ASN118     -0.0877
     55  N         -2.7800    9.9560  -46.8640 N.3   128  ASP128     -0.1239
     56  CA        -4.1080   10.1440  -47.4200 C.3   128  ASP128      0.1674
     57  C         -4.0750   11.1600  -48.5440 C.2   128  ASP128      0.2266
     58  O         -3.7640   12.3300  -48.3190 O.2   128  ASP128     -0.2867
     59  CB        -5.0830   10.5850  -46.3250 C.3   128  ASP128      0.1410
     60  CG        -6.3710   11.1440  -46.8850 C.2   128  ASP128      0.3668
     61  OD1       -7.0840   10.4050  -47.5930 O.co2 128  ASP128     -0.2456
     62  OD2       -6.6750   12.3250  -46.6130 O.co2 128  ASP128     -0.2456
     63  N         -6.5180   12.9160  -51.2990 N.3   130  ASP130     -0.1239
     64  CA        -7.8890   13.1000  -51.7630 C.3   130  ASP130      0.1674
     65  C         -7.9500   13.8190  -53.1070 C.2   130  ASP130      0.2266
     66  O         -7.6920   15.0140  -53.1880 O.2   130  ASP130     -0.2867
     67  CB        -8.7040   13.8840  -50.7310 C.3   130  ASP130      0.1410
     68  CG        -8.4310   13.4380  -49.3100 C.2   130  ASP130      0.3668
     69  OD1       -8.9380   12.3690  -48.9100 O.co2 130  ASP130     -0.2456
     70  OD2       -7.7180   14.1680  -48.5890 O.co2 130  ASP130     -0.2456
     71  N         -8.4530    8.7440  -51.8330 N.3   185  ASP185     -0.1239
     72  CA        -9.8830    8.9730  -51.7540 C.3   185  ASP185      0.1674
     73  C        -10.3370    9.7450  -52.9770 C.2   185  ASP185      0.2266
     74  O         -9.7000   10.7080  -53.3890 O.2   185  ASP185     -0.2867
     75  CB       -10.2470    9.7400  -50.4800 C.3   185  ASP185      0.1410
     76  CG       -10.0770    8.9070  -49.2270 C.2   185  ASP185      0.3668
     77  OD1      -10.1960    7.6670  -49.3150 O.co2 185  ASP185     -0.2456
     78  OD2       -9.8300    9.4930  -48.1520 O.co2 185  ASP185     -0.2456
     79  N        -18.0710   15.3290  -57.2880 N.3   189  TYR189     -0.1241
     80  CA       -18.8690   16.5410  -57.2290 C.3   189  TYR189      0.1605
     81  C        -19.6110   16.8090  -58.5270 C.2   189  TYR189      0.2264
     82  O        -19.1720   16.4050  -59.5970 O.2   189  TYR189     -0.2867
     83  CB       -17.9910   17.7480  -56.8830 C.3   189  TYR189      0.0534
     84  CG       -17.2580   17.6380  -55.5660 C.ar  189  TYR189     -0.0201
     85  CD1      -16.0800   16.9110  -55.4600 C.ar  189  TYR189     -0.0009
     86  CD2      -17.7400   18.2730  -54.4290 C.ar  189  TYR189     -0.0009
     87  CE1      -15.4090   16.8120  -54.2570 C.ar  189  TYR189      0.0417
     88  CE2      -17.0760   18.1810  -53.2230 C.ar  189  TYR189      0.0417
     89  CZ       -15.9120   17.4490  -53.1420 C.ar  189  TYR189      0.1957
     90  OH       -15.2460   17.3540  -51.9420 O.3   189  TYR189     -0.2866
     91  N        -21.2850   21.2520  -50.8510 N.3   217  SER217     -0.1202
     92  CA       -19.9930   21.2350  -50.1700 C.3   217  SER217      0.2020
     93  C        -18.8440   21.5450  -51.1250 C.2   217  SER217      0.2619
     94  O        -18.5150   20.7410  -51.9950 O.2   217  SER217     -0.2717
     95  CB       -19.7550   19.8800  -49.5020 C.3   217  SER217      0.2103
     96  OG       -18.7420   19.9710  -48.5130 O.3   217  SER217     -0.2182
     97  N        -18.2420   22.7190  -50.9580 N.am  218  ASP218     -0.1960
     98  CA       -17.1170   23.1430  -51.7870 C.3   218  ASP218      0.1825
     99  C        -15.8090   23.1230  -50.9960 C.2   218  ASP218      0.2464
    100  O        -15.6560   23.8690  -50.0300 O.2   218  ASP218     -0.2730
    101  CB       -17.3770   24.5430  -52.3530 C.3   218  ASP218      0.1450
    102  CG       -16.3150   24.9840  -53.3470 C.2   218  ASP218      0.3671
    103  OD1      -15.5760   24.1210  -53.8650 O.co2 218  ASP218     -0.2456
    104  OD2      -16.2220   26.2010  -53.6110 O.co2 218  ASP218     -0.2456
    105  N        -14.8610   22.2610  -51.3980 N.am  219  PRO219     -0.2727
    106  CA       -13.5830   22.1250  -50.6900 C.3   219  PRO219      0.1402
    107  C        -12.6670   23.3350  -50.8900 C.2   219  PRO219      0.2269
    108  O        -11.7070   23.5310  -50.1310 O.2   219  PRO219     -0.2865
    109  CB       -12.9830   20.8630  -51.3190 C.3   219  PRO219      0.0296
    110  CG       -13.5300   20.8720  -52.7060 C.3   219  PRO219      0.0237
    111  CD       -14.9570   21.3120  -52.5210 C.3   219  PRO219      0.0939
    112  N        -12.3860   25.5250  -47.7600 N.3   222  VAL222     -0.1245
    113  CA       -11.4220   25.1460  -46.7380 C.3   222  VAL222      0.1561
    114  C        -10.0060   25.3920  -47.2430 C.2   222  VAL222      0.2260
    115  O         -9.1440   25.8730  -46.4980 O.2   222  VAL222     -0.2867
    116  CB       -11.5860   23.6660  -46.3300 C.3   222  VAL222      0.0252
    117  CG1      -10.4810   23.2450  -45.3710 C.3   222  VAL222      0.0019
    118  CG2      -12.9520   23.4400  -45.7030 C.3   222  VAL222      0.0019
    119  N         -0.7670   17.6260  -35.8990 N.3   245  LYS245     -0.1245
    120  CA        -1.2370   16.4080  -36.5480 C.3   245  LYS245      0.1561
    121  C         -0.3460   15.2280  -36.1660 C.2   245  LYS245      0.2260
    122  O         -0.8230   14.1000  -36.0140 O.2   245  LYS245     -0.2867
    123  CB        -1.2720   16.5750  -38.0680 C.3   245  LYS245      0.0271
    124  CG        -2.5600   17.1830  -38.6020 C.3   245  LYS245      0.0035
    125  CD        -2.3910   17.6390  -40.0400 C.3   245  LYS245      0.0206
    126  CE        -2.1980   16.4510  -40.9700 C.3   245  LYS245      0.1093
    127  NZ        -2.2560   16.8310  -42.4090 N.3   245  LYS245     -0.1314
    128  N         -1.3070   14.1650  -32.7260 N.3   248  ARG248     -0.1245
    129  CA        -2.5100   13.3510  -32.8340 C.3   248  ARG248      0.1563
    130  C         -2.1580   11.9330  -33.2800 C.2   248  ARG248      0.2260
    131  O         -2.6850   10.9560  -32.7470 O.2   248  ARG248     -0.2867
    132  CB        -3.4960   13.9860  -33.8150 C.3   248  ARG248      0.0307
    133  CG        -4.8970   13.3840  -33.8030 C.3   248  ARG248      0.0489
    134  CD        -5.0330   12.2870  -34.8520 C.3   248  ARG248      0.2205
    135  NE        -4.1470   12.5110  -35.9900 N.pl3 248  ARG248     -0.0865
    136  CZ        -4.4420   13.2830  -37.0300 C.cat 248  ARG248      0.5346
    137  NH1       -5.6060   13.9130  -37.0800 N.pl3 248  ARG248      0.1354
    138  NH2       -3.5730   13.4250  -38.0180 N.pl3 248  ARG248      0.1354
    139  N         -8.0330   16.3410  -38.3870 N.3   259  SER259     -0.1202
    140  CA        -6.9370   17.2270  -38.7470 C.3   259  SER259      0.2020
    141  C         -7.4510   18.6470  -38.9450 C.2   259  SER259      0.2618
    142  O         -6.8090   19.6140  -38.5380 O.2   259  SER259     -0.2717
    143  CB        -6.2380   16.7300  -40.0120 C.3   259  SER259      0.2103
    144  OG        -5.7120   15.4290  -39.8220 O.3   259  SER259     -0.2182
    145  N         -8.6270   18.7590  -39.5550 N.am  260  ILE260     -0.1979
    146  CA        -9.2110   20.0540  -39.8810 C.3   260  ILE260      0.1595
    147  C         -9.6360   20.8300  -38.6280 C.2   260  ILE260      0.2287
    148  O         -9.6190   22.0620  -38.6200 O.2   260  ILE260     -0.2864
    149  CB       -10.4200   19.8890  -40.8430 C.3   260  ILE260      0.0276
    150  CG1      -10.7990   21.2280  -41.4790 C.3   260  ILE260      0.0022
    151  CG2      -11.6110   19.2540  -40.1350 C.3   260  ILE260      0.0022
    152  CD1      -12.0270   21.1540  -42.3630 C.3   260  ILE260      0.0001
    153  N         -6.5160   22.1590  -37.1790 N.3   263  MET263     -0.1245
    154  CA        -6.1110   23.2520  -38.0440 C.3   263  MET263      0.1570
    155  C         -6.8820   24.5160  -37.6940 C.2   263  MET263      0.2261
    156  O         -6.2840   25.5660  -37.4660 O.2   263  MET263     -0.2867
    157  CB        -6.3350   22.8810  -39.5110 C.3   263  MET263      0.0387
    158  CG        -5.2660   21.9760  -40.0990 C.3   263  MET263      0.0595
    159  SD        -5.7950   21.2120  -41.6450 S.3   263  MET263     -0.1393
    160  CE        -5.3280   22.4710  -42.8270 C.3   263  MET263      0.0692
    161  N        -16.5540   25.1200  -37.9890 N.3   301  SER301     -0.1217
    162  CA       -15.9710   24.9660  -39.3130 C.3   301  SER301      0.1889
    163  C        -15.7940   26.3160  -39.9940 C.2   301  SER301      0.2288
    164  O        -16.6540   27.1900  -39.8790 O.2   301  SER301     -0.2866
    165  CB       -16.8420   24.0500  -40.1760 C.3   301  SER301      0.2089
    166  OG       -16.3350   23.9520  -41.4940 O.3   301  SER301     -0.2183
    167  N        -16.2570   26.7640  -42.8220 N.3   303  ASP303     -0.1239
    168  CA       -17.3160   26.7620  -43.8160 C.3   303  ASP303      0.1674
    169  C        -18.6080   27.0340  -43.0600 C.2   303  ASP303      0.2266
    170  O        -19.0320   26.2320  -42.2280 O.2   303  ASP303     -0.2867
    171  CB       -17.3700   25.4200  -44.5510 C.3   303  ASP303      0.1410
    172  CG       -18.3350   25.4220  -45.7270 C.2   303  ASP303      0.3668
    173  OD1      -19.2280   26.2920  -45.7840 O.co2 303  ASP303     -0.2456
    174  OD2      -18.2020   24.5370  -46.5980 O.co2 303  ASP303     -0.2456
    175  N        -21.7890   24.6660  -43.1530 N.3   306  ASP306     -0.1239
    176  CA       -21.8240   23.4430  -42.3590 C.3   306  ASP306      0.1674
    177  C        -22.7410   23.6420  -41.1590 C.2   306  ASP306      0.2266
    178  O        -22.6130   24.6270  -40.4330 O.2   306  ASP306     -0.2867
    179  CB       -20.4190   23.0460  -41.8960 C.3   306  ASP306      0.1410
    180  CG       -19.6770   22.2100  -42.9220 C.2   306  ASP306      0.3668
    181  OD1      -20.1250   22.1510  -44.0870 O.co2 306  ASP306     -0.2456
    182  OD2      -18.6400   21.6130  -42.5630 O.co2 306  ASP306     -0.2456
    183  N        -22.9550   21.4670  -38.6710 N.3   308  LYS308     -0.1245
    184  CA       -22.2990   20.9010  -37.5040 C.3   308  LYS308      0.1561
    185  C        -20.8440   21.3370  -37.4370 C.2   308  LYS308      0.2260
    186  O        -20.1800   21.4690  -38.4650 O.2   308  LYS308     -0.2867
    187  CB       -22.3980   19.3700  -37.5260 C.3   308  LYS308      0.0271
    188  CG       -22.7930   18.7650  -38.8740 C.3   308  LYS308      0.0035
    189  CD       -21.6610   18.8230  -39.8960 C.3   308  LYS308      0.0206
    190  CE       -22.0160   18.0500  -41.1610 C.3   308  LYS308      0.1093
    191  NZ       -22.0790   16.5810  -40.9180 N.3   308  LYS308     -0.1314
    192  N        -16.6790   21.2160  -36.2190 N.3   310  LEU310     -0.1245
    193  CA       -15.6230   20.2340  -36.3970 C.3   310  LEU310      0.1561
    194  C        -15.4630   19.4660  -35.0940 C.2   310  LEU310      0.2260
    195  O        -15.1080   18.2870  -35.0840 O.2   310  LEU310     -0.2867
    196  CB       -14.3160   20.9130  -36.8040 C.3   310  LEU310      0.0270
    197  CG       -14.4050   21.7740  -38.0650 C.3   310  LEU310      0.0019
    198  CD1      -13.0570   22.3940  -38.3970 C.3   310  LEU310      0.0001
    199  CD2      -14.9320   20.9610  -39.2370 C.3   310  LEU310      0.0001
@<TRIPOS>BOND
     1    82    81    2
     2    81    80    1
     3    79    80    1
     4    80    83    1
     5    83    84    1
     6    84    85   ar
     7    84    86   ar
     8    85    87   ar
     9    86    88   ar
    10    87    89   ar
    11   103   102   ar
    12   104   102   ar
    13    74    73    2
    14   102   101    1
    15    88    89   ar
    16    66    65    2
    17    89    90    1
    18    65    64    1
    19     1     2    1
    20    73    72    1
    21   110   111    1
    22   110   109    1
    23     8     7    2
    24   111   105    1
    25   101    98    1
    26    94    93    2
    27     2     5    1
    28     2     3    1
    29    71    72    1
    30    98    99    1
    31    98    97    1
    32    64    63    1
    33    64    67    1
    34    72    75    1
    35     5     6    1
    36     7     6    1
    37     7     9   am
    38   105    99   am
    39   105   106    1
    40   109   106    1
    41    93    97   am
    42    93    92    1
    43    99   100    2
    44   107   106    1
    45   107   108    2
    46    91    92    1
    47     4     3    2
    48    67    68    1
    49     3    10   am
    50    75    76    1
    51    92    95    1
    52    20    21    1
    53    10    11    1
    54    95    96    1
    55    77    76   ar
    56    68    69   ar
    57    68    70   ar
    58    76    78   ar
    59    21    22    1
    60    21    24    1
    61    13    12    2
    62    57    58    2
    63    57    56    1
    64    11    12    1
    65    45    44    1
    66    22    23    2
    67    17    16    2
    68    16    15    1
    69    24    25    1
    70    12    14   am
    71    27    25   ar
    72    27    29   ar
    73   112   113    1
    74    61    60   ar
    75    25    26   ar
    76    29    30   ar
    77    56    55    1
    78    56    59    1
    79    14    15    1
    80   114   113    1
    81   114   115    2
    82    44    43    1
    83    44    46    1
    84    15    18    1
    85    43    40    1
    86    60    62   ar
    87    60    59    1
    88   113   116    1
    89   174   172   ar
    90    26    28   ar
    91    30    28   ar
    92    30    31    1
    93    19    18    1
    94   116   118    1
    95   116   117    1
    96    32    33    1
    97   173   172   ar
    98   172   171    1
    99    39    40    1
   100    39    34   am
   101    40    41    1
   102    42    41    2
   103    41    47   am
   104    33    34    1
   105    33    36    1
   106    37    36    1
   107   171   168    1
   108    34    35    2
   109   181   180   ar
   110    36    38    1
   111   168   169    1
   112   168   167    1
   113    50    49    2
   114    47    48    1
   115   175   176    1
   116   169   170    2
   117    49    48    1
   118   180   182   ar
   119   180   179    1
   120   160   159    1
   121    48    51    1
   122   127   126    1
   123   152   150    1
   124   176   179    1
   125   176   177    1
   126   159   158    1
   127   166   165    1
   128   150   149    1
   129    51    52    1
   130    53    52    2
   131   190   191    1
   132   190   189    1
   133   177   178    2
   134   126   125    1
   135   149   151    1
   136   149   146    1
   137    52    54   am
   138   165   162    1
   139   158   157    1
   140   125   124    1
   141   143   144    1
   142   143   140    1
   143   163   164    2
   144   163   162    1
   145   189   188    1
   146   146   145    1
   147   146   147    1
   148   145   141   am
   149   157   154    1
   150   162   161    1
   151   199   197    1
   152   141   140    1
   153   141   142    2
   154   188   187    1
   155   140   139    1
   156   183   184    1
   157   147   148    2
   158   124   123    1
   159   186   185    2
   160   198   197    1
   161   123   120    1
   162   197   196    1
   163   154   155    1
   164   154   153    1
   165   138   136    1
   166   155   156    2
   167   187   184    1
   168   184   185    1
   169   137   136    1
   170   136   135    2
   171   196   193    1
   172   120   121    1
   173   120   119    1
   174   193   192    1
   175   193   194    1
   176   121   122    2
   177   135   134    1
   178   194   195    2
   179   134   133    1
   180   132   133    1
   181   132   129    1
   182   130   129    1
   183   130   131    2
   184   129   128    1
