@<TRIPOS>MOLECULE
tmp/4txzB00.pdb
 169 154 0 0 0
SMALL
GASTEIGER

@<TRIPOS>ATOM
      1  N         -2.0130   19.1780 -103.1110 N.3   109  GLN109     -0.1231
      2  CA        -2.1860   19.9170 -101.8700 C.3   109  GLN109      0.1698
      3  C         -1.3570   19.2570 -100.7750 C.2   109  GLN109      0.2593
      4  O         -0.8020   18.1760 -100.9760 O.2   109  GLN109     -0.2718
      5  CB        -3.6610   19.9680 -101.4730 C.3   109  GLN109      0.0381
      6  CG        -4.2050   18.6390 -100.9720 C.3   109  GLN109      0.0905
      7  CD        -5.6960   18.4920 -101.2040 C.2   109  GLN109      0.2608
      8  OE1       -6.1860   18.6940 -102.3160 O.2   109  GLN109     -0.2717
      9  NE2       -6.4260   18.1330 -100.1530 N.am  109  GLN109     -0.0878
     10  N         -1.2770   19.9010  -99.6180 N.am  110  GLY110     -0.1942
     11  CA        -0.5500   19.3410  -98.4950 C.3   110  GLY110      0.2014
     12  C          0.9290   19.6770  -98.5140 C.2   110  GLY110      0.2639
     13  O          1.3560   20.6140  -99.1910 O.2   110  GLY110     -0.2714
     14  N          1.7040   18.9100  -97.7540 N.am  111  SER111     -0.1949
     15  CA         3.1420   19.1240  -97.6000 C.3   111  SER111      0.1924
     16  C          3.9090   19.1800  -98.9190 C.2   111  SER111      0.2314
     17  O          4.8140   19.9960  -99.0780 O.2   111  SER111     -0.2863
     18  CB         3.7360   18.0340  -96.7100 C.3   111  SER111      0.2116
     19  OG         2.7860   17.0170  -96.4510 O.3   111  SER111     -0.2180
     20  N          3.2210   22.8060 -100.4120 N.3   114  TYR114     -0.1241
     21  CA         3.8830   23.9400  -99.7680 C.3   114  TYR114      0.1605
     22  C          5.1920   23.5620  -99.0740 C.2   114  TYR114      0.2264
     23  O          5.6330   24.2510  -98.1540 O.2   114  TYR114     -0.2867
     24  CB         2.9470   24.6430  -98.7730 C.3   114  TYR114      0.0534
     25  CG         1.9470   23.7710  -98.0430 C.ar  114  TYR114     -0.0201
     26  CD1        2.3440   22.9290  -97.0130 C.ar  114  TYR114     -0.0009
     27  CD2        0.5940   23.8300  -98.3560 C.ar  114  TYR114     -0.0009
     28  CE1        1.4230   22.1490  -96.3350 C.ar  114  TYR114      0.0417
     29  CE2       -0.3320   23.0550  -97.6850 C.ar  114  TYR114      0.0417
     30  CZ         0.0870   22.2180  -96.6750 C.ar  114  TYR114      0.1957
     31  OH        -0.8350   21.4450  -96.0060 O.3   114  TYR114     -0.2866
     32  N          6.6720   20.9940  -97.0740 N.3   116  THR116     -0.1203
     33  CA         6.8830   20.6460  -95.6740 C.3   116  THR116      0.1994
     34  C          6.8660   19.1340  -95.5010 C.2   116  THR116      0.2617
     35  O          6.6230   18.6270  -94.4050 O.2   116  THR116     -0.2717
     36  CB         5.8190   21.2760  -94.7570 C.3   116  THR116      0.1784
     37  OG1        4.5160   21.0640  -95.3130 O.3   116  THR116     -0.2211
     38  CG2        6.0640   22.7700  -94.5970 C.3   116  THR116      0.0376
     39  N          7.1270   18.4190  -96.5910 N.am  117  LEU117     -0.1979
     40  CA         7.1160   16.9620  -96.5730 C.3   117  LEU117      0.1596
     41  C          8.3830   16.4230  -95.9270 C.2   117  LEU117      0.2287
     42  O          9.4810   16.5770  -96.4620 O.2   117  LEU117     -0.2864
     43  CB         6.9730   16.4050  -97.9910 C.3   117  LEU117      0.0297
     44  CG         6.0780   15.1790  -98.2100 C.3   117  LEU117      0.0022
     45  CD1        6.5810   14.3710  -99.3940 C.3   117  LEU117      0.0001
     46  CD2        5.9660   14.3040  -96.9670 C.3   117  LEU117      0.0001
     47  N          3.4230   11.2520  -97.7200 N.3   128  ASP128     -0.1239
     48  CA         2.0360   11.4260  -98.1210 C.3   128  ASP128      0.1674
     49  C          1.9090   12.4180  -99.2730 C.2   128  ASP128      0.2266
     50  O          2.2830   13.5850  -99.1380 O.2   128  ASP128     -0.2867
     51  CB         1.2040   11.8860  -96.9260 C.3   128  ASP128      0.1410
     52  CG        -0.1470   12.4320  -97.3290 C.2   128  ASP128      0.3668
     53  OD1       -0.9790   11.6740  -97.8670 O.co2 128  ASP128     -0.2456
     54  OD2       -0.3640   13.6410  -97.1130 O.co2 128  ASP128     -0.2456
     55  N         -0.9050   14.2040 -101.5350 N.3   130  ASP130     -0.1239
     56  CA        -2.3260   14.4170 -101.7610 C.3   130  ASP130      0.1674
     57  C         -2.5180   15.1330 -103.0880 C.2   130  ASP130      0.2266
     58  O         -2.2300   16.3180 -103.2120 O.2   130  ASP130     -0.2867
     59  CB        -2.9550   15.2190 -100.6210 C.3   130  ASP130      0.1410
     60  CG        -2.4870   14.7590  -99.2560 C.2   130  ASP130      0.3668
     61  OD1       -2.9650   13.7050  -98.7810 O.co2 130  ASP130     -0.2456
     62  OD2       -1.6400   15.4550  -98.6570 O.co2 130  ASP130     -0.2456
     63  N        -15.1520   22.7750  -99.3920 N.3   213  SER213     -0.1217
     64  CA       -13.7840   22.7090  -98.8950 C.3   213  SER213      0.1889
     65  C        -12.7770   22.9700 -100.0110 C.2   213  SER213      0.2288
     66  O        -12.5840   22.1400 -100.9010 O.2   213  SER213     -0.2866
     67  CB       -13.5190   21.3510  -98.2480 C.3   213  SER213      0.2089
     68  OG       -12.3920   21.4120  -97.3930 O.3   213  SER213     -0.2183
     69  N         -8.8840   23.5820 -100.7920 N.3   215  PRO215     -0.2116
     70  CA        -7.5640   23.4640 -100.1650 C.3   215  PRO215      0.1372
     71  C         -6.6280   24.6420 -100.4480 C.2   215  PRO215      0.2244
     72  O         -5.6810   24.8710  -99.6870 O.2   215  PRO215     -0.2868
     73  CB        -7.0200   22.1720 -100.7840 C.3   215  PRO215      0.0268
     74  CG        -7.6730   22.1240 -102.1340 C.3   215  PRO215      0.0207
     75  CD        -9.0750   22.5850 -101.8600 C.3   215  PRO215      0.0892
     76  N         -5.9500   26.9040  -97.5560 N.3   218  VAL218     -0.1245
     77  CA        -4.8850   26.5460  -96.6250 C.3   218  VAL218      0.1561
     78  C         -3.5200   26.7880  -97.2600 C.2   218  VAL218      0.2260
     79  O         -2.5890   27.2600  -96.6030 O.2   218  VAL218     -0.2867
     80  CB        -4.9930   25.0740  -96.1750 C.3   218  VAL218      0.0252
     81  CG1       -3.8030   24.6890  -95.3050 C.3   218  VAL218      0.0019
     82  CG2       -6.2920   24.8520  -95.4180 C.3   218  VAL218      0.0019
     83  N          6.6870   18.9260  -86.9030 N.3   241  LYS241     -0.1245
     84  CA         6.1290   17.7180  -87.4930 C.3   241  LYS241      0.1561
     85  C          7.0330   16.5220  -87.2060 C.2   241  LYS241      0.2260
     86  O          6.5540   15.4030  -87.0200 O.2   241  LYS241     -0.2867
     87  CB         5.9330   17.8860  -89.0000 C.3   241  LYS241      0.0271
     88  CG         4.6070   18.5170  -89.3840 C.3   241  LYS241      0.0035
     89  CD         4.6220   18.9720  -90.8300 C.3   241  LYS241      0.0206
     90  CE         4.6860   17.7830  -91.7720 C.3   241  LYS241      0.1093
     91  NZ         4.4720   18.1750  -93.1920 N.3   241  LYS241     -0.1314
     92  N          6.4280   15.5180  -83.6280 N.3   244  ARG244     -0.1245
     93  CA         5.1910   14.7510  -83.6010 C.3   244  ARG244      0.1563
     94  C          5.4490   13.3300  -84.0920 C.2   244  ARG244      0.2260
     95  O          4.9270   12.3640  -83.5360 O.2   244  ARG244     -0.2867
     96  CB         4.1190   15.4430  -84.4470 C.3   244  ARG244      0.0307
     97  CG         2.7150   14.8830  -84.2740 C.3   244  ARG244      0.0489
     98  CD         2.3800   13.8340  -85.3210 C.3   244  ARG244      0.2205
     99  NE         3.0670   14.0840  -86.5860 N.pl3 244  ARG244     -0.0865
    100  CZ         2.6150   14.9030  -87.5310 C.cat 244  ARG244      0.5346
    101  NH1        1.4780   15.5660  -87.3520 N.pl3 244  ARG244      0.1354
    102  NH2        3.3040   15.0690  -88.6530 N.pl3 244  ARG244      0.1354
    103  N         -2.5510   16.9400  -85.5450 N.3   254  SER254     -0.1202
    104  CA        -2.4490   17.0260  -86.9960 C.3   254  SER254      0.2020
    105  C         -1.3700   18.0260  -87.3900 C.2   254  SER254      0.2619
    106  O         -1.0740   18.9550  -86.6390 O.2   254  SER254     -0.2717
    107  CB        -3.7940   17.4190  -87.6100 C.3   254  SER254      0.2103
    108  OG        -4.1580   18.7400  -87.2440 O.3   254  SER254     -0.2182
    109  N         -0.7790   17.8310  -88.5640 N.am  255  SER255     -0.1937
    110  CA         0.2700   18.7240  -89.0460 C.3   255  SER255      0.2055
    111  C         -0.2450   20.1500  -89.2250 C.2   255  SER255      0.2642
    112  O          0.4510   21.1150  -88.9070 O.2   255  SER255     -0.2714
    113  CB         0.8510   18.2070  -90.3640 C.3   255  SER255      0.2130
    114  OG         1.4190   16.9190  -90.2070 O.3   255  SER255     -0.2179
    115  N         -1.4700   20.2750  -89.7250 N.am  256  ILE256     -0.1977
    116  CA        -2.0500   21.5810  -90.0110 C.3   256  ILE256      0.1596
    117  C         -2.3410   22.3700  -88.7310 C.2   256  ILE256      0.2287
    118  O         -2.2910   23.6020  -88.7300 O.2   256  ILE256     -0.2864
    119  CB        -3.3390   21.4440  -90.8600 C.3   256  ILE256      0.0276
    120  CG1       -3.7360   22.7980  -91.4520 C.3   256  ILE256      0.0022
    121  CG2       -4.4790   20.8360  -90.0500 C.3   256  ILE256      0.0022
    122  CD1       -5.0340   22.7680  -92.2270 C.3   256  ILE256      0.0001
    123  N          0.9060   23.6520  -87.5500 N.3   259  MET259     -0.1245
    124  CA         1.2420   24.7410  -88.4510 C.3   259  MET259      0.1570
    125  C          0.5280   26.0140  -88.0180 C.2   259  MET259      0.2261
    126  O          1.1560   27.0590  -87.8590 O.2   259  MET259     -0.2867
    127  CB         0.8630   24.3850  -89.8880 C.3   259  MET259      0.0387
    128  CG         1.8470   23.4600  -90.5800 C.3   259  MET259      0.0595
    129  SD         1.1420   22.7130  -92.0630 S.3   259  MET259     -0.1393
    130  CE         1.5200   23.9580  -93.2910 C.3   259  MET259      0.0692
    131  N         -9.1200   26.7490  -87.4150 N.3   297  SER297     -0.1217
    132  CA        -8.6230   26.5760  -88.7690 C.3   297  SER297      0.1889
    133  C         -8.5000   27.9300  -89.4480 C.2   297  SER297      0.2288
    134  O         -9.3560   28.7950  -89.2700 O.2   297  SER297     -0.2866
    135  CB        -9.5480   25.6570  -89.5720 C.3   297  SER297      0.2089
    136  OG        -9.1150   25.5420  -90.9170 O.3   297  SER297     -0.2183
    137  N         -9.1340   28.3990  -92.2210 N.3   299  ASP299     -0.1239
    138  CA       -10.2330   28.3380  -93.1690 C.3   299  ASP299      0.1674
    139  C        -11.5470   28.5880  -92.4320 C.2   299  ASP299      0.2266
    140  O        -11.8900   27.8710  -91.4910 O.2   299  ASP299     -0.2867
    141  CB       -10.2540   26.9750  -93.8720 C.3   299  ASP299      0.1410
    142  CG       -11.2470   26.9090  -95.0190 C.2   299  ASP299      0.3668
    143  OD1      -12.1740   27.7390  -95.0750 O.co2 299  ASP299     -0.2456
    144  OD2      -11.1020   26.0040  -95.8680 O.co2 299  ASP299     -0.2456
    145  N        -14.5100   26.0050  -92.3040 N.3   302  ASP302     -0.1239
    146  CA       -14.4450   24.8820  -91.3710 C.3   302  ASP302      0.1674
    147  C        -15.4790   24.9990  -90.2650 C.2   302  ASP302      0.2266
    148  O        -15.6120   26.0390  -89.6200 O.2   302  ASP302     -0.2867
    149  CB       -13.0540   24.7570  -90.7480 C.3   302  ASP302      0.1410
    150  CG       -12.1420   23.8450  -91.5390 C.2   302  ASP302      0.3668
    151  OD1      -11.4620   24.3290  -92.4670 O.co2 302  ASP302     -0.2456
    152  OD2      -12.1060   22.6350  -91.2270 O.co2 302  ASP302     -0.2456
    153  N        -15.5360   22.8550  -87.6910 N.3   304  LYS304     -0.1245
    154  CA       -14.8410   22.4590  -86.4700 C.3   304  LYS304      0.1561
    155  C        -13.4160   23.0030  -86.4370 C.2   304  LYS304      0.2260
    156  O        -12.7870   23.1540  -87.4830 O.2   304  LYS304     -0.2867
    157  CB       -14.8380   20.9320  -86.3350 C.3   304  LYS304      0.0271
    158  CG       -14.8650   20.1850  -87.6620 C.3   304  LYS304      0.0035
    159  CD       -13.4930   20.1240  -88.3180 C.3   304  LYS304      0.0206
    160  CE       -13.6080   19.7510  -89.7890 C.3   304  LYS304      0.1093
    161  NZ       -14.4960   18.5730  -90.0010 N.3   304  LYS304     -0.1314
    162  N         -9.2460   23.0000  -85.4810 N.3   306  LEU306     -0.1245
    163  CA        -8.2200   21.9890  -85.7140 C.3   306  LEU306      0.1561
    164  C         -7.9160   21.2030  -84.4460 C.2   306  LEU306      0.2260
    165  O         -7.5790   20.0200  -84.4970 O.2   306  LEU306     -0.2867
    166  CB        -6.9430   22.6410  -86.2460 C.3   306  LEU306      0.0270
    167  CG        -7.1050   23.4670  -87.5230 C.3   306  LEU306      0.0019
    168  CD1       -5.7740   24.0580  -87.9630 C.3   306  LEU306      0.0001
    169  CD2       -7.7150   22.6230  -88.6310 C.3   306  LEU306      0.0001
@<TRIPOS>BOND
     1    58    57    2
     2     1     2    1
     3    57    56    1
     4     8     7    2
     5    74    75    1
     6    74    73    1
     7     2     5    1
     8     2     3    1
     9    75    69    1
    10    56    55    1
    11    56    59    1
    12     5     6    1
    13     7     6    1
    14     7     9   am
    15     4     3    2
    16    66    65    2
    17    69    70    1
    18    73    70    1
    19     3    10   am
    20    59    60    1
    21    71    70    1
    22    71    72    2
    23    20    21    1
    24    65    64    1
    25    21    22    1
    26    21    24    1
    27    10    11    1
    28    45    44    1
    29    63    64    1
    30    49    50    2
    31    49    48    1
    32    60    61   ar
    33    60    62   ar
    34    13    12    2
    35    17    16    2
    36    22    23    2
    37    16    15    1
    38    64    67    1
    39    24    25    1
    40    12    11    1
    41    12    14   am
    42    27    25   ar
    43    27    29   ar
    44    67    68    1
    45    44    43    1
    46    44    46    1
    47    48    47    1
    48    48    51    1
    49    25    26   ar
    50    43    40    1
    51    53    52   ar
    52    14    15    1
    53    29    30   ar
    54    15    18    1
    55    76    77    1
    56    52    54   ar
    57    52    51    1
    58    78    77    1
    59    78    79    2
    60    32    33    1
    61    26    28   ar
    62    18    19    1
    63    30    28   ar
    64    30    31    1
    65    77    80    1
    66    39    40    1
    67    39    34   am
    68    40    41    1
    69    42    41    2
    70    80    82    1
    71    80    81    1
    72   144   142   ar
    73    33    34    1
    74    33    36    1
    75    34    35    2
    76    37    36    1
    77   143   142   ar
    78   142   141    1
    79    36    38    1
    80   141   138    1
    81   130   129    1
    82    91    90    1
    83   138   139    1
    84   138   137    1
    85   151   150   ar
    86   139   140    2
    87   145   146    1
    88   122   120    1
    89   129   128    1
    90    90    89    1
    91   150   152   ar
    92   150   149    1
    93   120   119    1
    94   146   149    1
    95   146   147    1
    96   136   135    1
    97   119   121    1
    98   119   116    1
    99    89    88    1
   100   128   127    1
   101   113   114    1
   102   113   110    1
   103   147   148    2
   104   116   115    1
   105   116   117    1
   106   161   160    1
   107   127   124    1
   108   160   159    1
   109   115   111   am
   110   135   132    1
   111   133   134    2
   112   133   132    1
   113    88    87    1
   114   111   110    1
   115   111   112    2
   116   110   109    1
   117    87    84    1
   118   132   131    1
   119   117   118    2
   120   102   100    1
   121   169   167    1
   122   109   105   am
   123   124   125    1
   124   124   123    1
   125   159   158    1
   126   125   126    2
   127   168   167    1
   128   153   154    1
   129   158   157    1
   130   107   108    1
   131   107   104    1
   132   100   101    1
   133   100    99    2
   134   167   166    1
   135    84    85    1
   136    84    83    1
   137   156   155    2
   138   105   104    1
   139   105   106    2
   140    85    86    2
   141   104   103    1
   142    99    98    1
   143   154   155    1
   144   154   157    1
   145   166   163    1
   146   163   162    1
   147   163   164    1
   148    98    97    1
   149   165   164    2
   150    96    97    1
   151    96    93    1
   152    94    93    1
   153    94    95    2
   154    92    93    1
