@<TRIPOS>MOLECULE
tmp/4ty1A00.pdb
 176 164 0 0 0
SMALL
GASTEIGER

@<TRIPOS>ATOM
      1  N        -16.1420   37.7070    5.0780 N.3    12  LEU12      -0.1231
      2  CA       -17.5830   37.5410    5.3260 C.3    12  LEU12       0.1693
      3  C        -17.8920   36.2010    5.9940 C.2    12  LEU12       0.2593
      4  O        -18.8450   36.0960    6.7540 O.2    12  LEU12      -0.2718
      5  CB       -18.3560   37.6660    4.0190 C.3    12  LEU12       0.0284
      6  CG       -18.2970   39.0580    3.3860 C.3    12  LEU12       0.0019
      7  CD1      -18.6130   39.0010    1.8980 C.3    12  LEU12       0.0001
      8  CD2      -19.2350   40.0120    4.1070 C.3    12  LEU12       0.0001
      9  N        -17.0830   35.1830    5.7090 N.am   13  GLY13      -0.1942
     10  CA       -17.2520   33.8380    6.2810 C.3    13  GLY13       0.2014
     11  C        -16.4680   32.7960    5.4820 C.2    13  GLY13       0.2640
     12  O        -15.8990   33.1100    4.4110 O.2    13  GLY13      -0.2714
     13  N        -16.4250   31.5640    5.9980 N.am   14  SER14      -0.1935
     14  CA       -15.7410   30.4640    5.3030 C.3    14  SER14       0.2055
     15  C        -16.2480   29.1250    5.8010 C.2    14  SER14       0.2644
     16  O        -16.6010   29.0080    6.9620 O.2    14  SER14      -0.2714
     17  CB       -14.2090   30.5530    5.4640 C.3    14  SER14       0.2130
     18  OG       -13.7920   30.2720    6.7960 O.3    14  SER14      -0.2179
     19  N        -16.2980   28.1340    4.9100 N.am   15  GLY15      -0.1939
     20  CA       -16.7630   26.7830    5.2410 C.3    15  GLY15       0.2014
     21  C        -15.7650   25.7710    4.7240 C.2    15  GLY15       0.2639
     22  O        -14.5610   26.0360    4.7270 O.2    15  GLY15      -0.2714
     23  N        -16.2700   24.6390    4.2560 N.am   16  GLY16      -0.1954
     24  CA       -15.4530   23.6830    3.5450 C.3    16  GLY16       0.1869
     25  C        -15.4200   24.1050    2.0950 C.2    16  GLY16       0.2309
     26  O        -16.4530   24.4320    1.5230 O.2    16  GLY16      -0.2863
     27  N        -14.1500   26.7990    0.7750 N.3    18  GLY18      -0.1225
     28  CA       -14.1460   28.2150    0.4330 C.3    18  GLY18       0.1811
     29  C        -13.9450   29.2660    1.5080 C.2    18  GLY18       0.2280
     30  O        -14.3090   29.0700    2.6630 O.2    18  GLY18      -0.2866
     31  N        -14.6420   33.6160    1.8120 N.3    20  VAL20      -0.1245
     32  CA       -15.3320   34.6850    1.0810 C.3    20  VAL20       0.1561
     33  C        -15.0970   36.0440    1.6780 C.2    20  VAL20       0.2260
     34  O        -15.4000   36.2650    2.8590 O.2    20  VAL20      -0.2867
     35  CB       -16.8600   34.4220    0.9740 C.3    20  VAL20       0.0252
     36  CG1      -17.5900   35.6070    0.3520 C.3    20  VAL20       0.0019
     37  CG2      -17.0980   33.1890    0.1200 C.3    20  VAL20       0.0019
     38  N        -18.5400   40.0440   -3.9560 N.3    33  ALA33      -0.1245
     39  CA       -17.9990   39.1110   -2.9730 C.3    33  ALA33       0.1562
     40  C        -16.9550   38.2620   -3.6620 C.2    33  ALA33       0.2260
     41  O        -17.1350   37.8400   -4.8080 O.2    33  ALA33      -0.2867
     42  CB       -19.0860   38.2450   -2.3740 C.3    33  ALA33       0.0290
     43  N        -14.6350   34.9850   -3.5810 N.3    35  LYS35      -0.1245
     44  CA       -14.4790   33.6490   -3.0300 C.3    35  LYS35       0.1561
     45  C        -13.2260   32.9390   -3.5700 C.2    35  LYS35       0.2260
     46  O        -13.0060   32.8620   -4.7780 O.2    35  LYS35      -0.2867
     47  CB       -15.7240   32.8100   -3.3280 C.3    35  LYS35       0.0271
     48  CG       -15.6860   31.4180   -2.7220 C.3    35  LYS35       0.0035
     49  CD       -17.0100   30.7050   -2.8680 C.3    35  LYS35       0.0206
     50  CE       -16.9750   29.3770   -2.1480 C.3    35  LYS35       0.1093
     51  NZ       -18.3230   28.7900   -2.0440 N.3    35  LYS35      -0.1314
     52  N        -18.4540   24.3360   -8.5960 N.3    57  GLU57      -0.1245
     53  CA       -19.2050   25.5510   -8.3080 C.3    57  GLU57       0.1567
     54  C        -19.2770   26.4960   -9.5040 C.2    57  GLU57       0.2260
     55  O        -20.3030   27.1590   -9.7110 O.2    57  GLU57      -0.2867
     56  CB       -18.6760   26.2920   -7.0720 C.3    57  GLU57       0.0388
     57  CG       -19.5120   27.5410   -6.7400 C.3    57  GLU57       0.1160
     58  CD       -19.3460   28.0350   -5.3110 C.2    57  GLU57       0.3649
     59  OE1      -18.3160   27.6710   -4.6700 O.co2  57  GLU57      -0.2457
     60  OE2      -20.2470   28.7920   -4.8490 O.co2  57  GLU57      -0.2457
     61  N        -27.5000   33.5290   -6.6820 N.3    72  ILE72      -0.1245
     62  CA       -26.4000   34.4840   -6.6930 C.3    72  ILE72       0.1561
     63  C        -25.7500   34.5430   -8.0880 C.2    72  ILE72       0.2260
     64  O        -25.5430   33.5170   -8.6880 O.2    72  ILE72      -0.2867
     65  CB       -25.3780   34.0860   -5.6020 C.3    72  ILE72       0.0252
     66  CG1      -24.4740   35.2670   -5.2240 C.3    72  ILE72       0.0019
     67  CG2      -24.6190   32.8090   -5.9770 C.3    72  ILE72       0.0019
     68  CD1      -25.0980   36.1460   -4.1570 C.3    72  ILE72       0.0001
     69  N        -18.6820   37.3130   -7.1290 N.3    88  LEU88      -0.1231
     70  CA       -20.1160   37.0400   -7.0210 C.3    88  LEU88       0.1693
     71  C        -20.8180   38.3030   -6.6140 C.2    88  LEU88       0.2592
     72  O        -20.1920   39.1890   -6.0330 O.2    88  LEU88      -0.2718
     73  CB       -20.3690   35.9630   -5.9690 C.3    88  LEU88       0.0284
     74  CG       -19.7170   34.6250   -6.3100 C.3    88  LEU88       0.0019
     75  CD1      -19.1110   33.9380   -5.0970 C.3    88  LEU88       0.0001
     76  CD2      -20.7570   33.7570   -6.9890 C.3    88  LEU88       0.0001
     77  N        -22.1130   38.3900   -6.9050 N.am   89  GLU89      -0.1966
     78  CA       -22.8690   39.5940   -6.5790 C.3    89  GLU89       0.1733
     79  C        -22.9190   39.7250   -5.0770 C.2    89  GLU89       0.2616
     80  O        -22.8050   38.7310   -4.3600 O.2    89  GLU89      -0.2715
     81  CB       -24.2840   39.5670   -7.1770 C.3    89  GLU89       0.0429
     82  CG       -25.3810   39.2100   -6.1790 C.3    89  GLU89       0.1163
     83  CD       -26.7720   39.1270   -6.7880 C.2    89  GLU89       0.3649
     84  OE1      -27.0020   38.1830   -7.5790 O.co2  89  GLU89      -0.2457
     85  OE2      -27.6290   39.9870   -6.4520 O.co2  89  GLU89      -0.2457
     86  N        -23.0590   40.9600   -4.6080 N.am   90  ARG90      -0.1964
     87  CA       -23.2760   41.2300   -3.1970 C.3    90  ARG90       0.1714
     88  C        -24.3290   42.3090   -3.0150 C.2    90  ARG90       0.2458
     89  O        -24.0640   43.4810   -3.2550 O.2    90  ARG90      -0.2730
     90  CB       -21.9830   41.6580   -2.4950 C.3    90  ARG90       0.0347
     91  CG       -22.2030   42.1600   -1.0600 C.3    90  ARG90       0.0492
     92  CD       -20.9440   42.0920   -0.2200 C.3    90  ARG90       0.2205
     93  NE       -19.9610   43.0890   -0.6420 N.pl3  90  ARG90      -0.0865
     94  CZ       -19.8880   44.3540   -0.2040 C.cat  90  ARG90       0.5346
     95  NH1      -20.7490   44.8340    0.6890 N.pl3  90  ARG90       0.1354
     96  NH2      -18.9350   45.1530   -0.6790 N.pl3  90  ARG90       0.1354
     97  N        -25.5350   41.9220   -2.5760 N.am   91  PRO91      -0.2727
     98  CA       -26.4690   42.9700   -2.1690 C.3    91  PRO91       0.1402
     99  C        -26.0110   43.7190   -0.9040 C.2    91  PRO91       0.2269
    100  O        -25.1480   43.2470   -0.1580 O.2    91  PRO91      -0.2865
    101  CB       -27.7780   42.2000   -1.9320 C.3    91  PRO91       0.0296
    102  CG       -27.6140   40.8890   -2.6380 C.3    91  PRO91       0.0237
    103  CD       -26.1520   40.5810   -2.5120 C.3    91  PRO91       0.0939
    104  N        -27.4900   43.4640    3.3450 N.3    94  VAL94      -0.1231
    105  CA       -27.7590   42.0300    3.1880 C.3    94  VAL94       0.1692
    106  C        -27.6380   41.3540    4.5380 C.2    94  VAL94       0.2592
    107  O        -27.0400   41.8870    5.4450 O.2    94  VAL94      -0.2718
    108  CB       -26.7990   41.3660    2.1580 C.3    94  VAL94       0.0266
    109  CG1      -25.4570   40.9760    2.7740 C.3    94  VAL94       0.0020
    110  CG2      -27.4520   40.1600    1.5170 C.3    94  VAL94       0.0020
    111  N        -28.2290   40.1850    4.6820 N.am   95  GLN95      -0.1966
    112  CA       -28.0290   39.3980    5.8940 C.3    95  GLN95       0.1733
    113  C        -28.3330   37.9420    5.6100 C.2    95  GLN95       0.2616
    114  O        -29.3250   37.6110    4.9510 O.2    95  GLN95      -0.2715
    115  CB       -28.8990   39.9050    7.0600 C.3    95  GLN95       0.0408
    116  CG       -28.4600   39.4020    8.4330 C.3    95  GLN95       0.0908
    117  CD       -29.4940   39.6700    9.5070 C.2    95  GLN95       0.2608
    118  OE1      -30.6400   40.0000    9.2170 O.2    95  GLN95      -0.2717
    119  NE2      -29.0940   39.5160   10.7570 N.am   95  GLN95      -0.0878
    120  N        -27.4530   37.0960    6.1250 N.am   96  ASP96      -0.1971
    121  CA       -27.5860   35.6600    6.0470 C.3    96  ASP96       0.1709
    122  C        -28.8040   35.1540    6.8490 C.2    96  ASP96       0.2293
    123  O        -29.0690   35.6050    7.9670 O.2    96  ASP96      -0.2864
    124  CB       -26.3000   35.0330    6.5690 C.3    96  ASP96       0.1436
    125  CG       -26.1510   33.6080    6.1620 C.2    96  ASP96       0.3671
    126  OD1      -25.7310   33.3600    5.0030 O.co2  96  ASP96      -0.2456
    127  OD2      -26.4480   32.7500    7.0150 O.co2  96  ASP96      -0.2456
    128  N        -28.1570   33.9910   10.3650 N.3    99  ASP99      -0.1239
    129  CA       -28.0040   35.0700   11.3390 C.3    99  ASP99       0.1674
    130  C        -29.3540   35.7100   11.5870 C.2    99  ASP99       0.2266
    131  O        -29.6980   36.0380   12.7160 O.2    99  ASP99      -0.2867
    132  CB       -26.9740   36.1110   10.8810 C.3    99  ASP99       0.1410
    133  CG       -25.5770   35.5220   10.7040 C.2    99  ASP99       0.3668
    134  OD1      -25.0740   34.8440   11.6260 O.co2  99  ASP99      -0.2456
    135  OD2      -24.9790   35.7330    9.6320 O.co2  99  ASP99      -0.2456
    136  N        -27.8380   28.8250    6.3550 N.3   139  GLU139     -0.1231
    137  CA       -26.5030   29.4180    6.0690 C.3   139  GLU139      0.1699
    138  C        -26.2360   29.7860    4.5860 C.2   139  GLU139      0.2592
    139  O        -25.4320   30.6850    4.3090 O.2   139  GLU139     -0.2718
    140  CB       -25.3590   28.5050    6.5880 C.3   139  GLU139      0.0402
    141  CG       -25.2240   28.4630    8.1140 C.3   139  GLU139      0.1161
    142  CD       -24.7480   27.1180    8.6680 C.2   139  GLU139      0.3649
    143  OE1      -25.4800   26.1090    8.5430 O.co2 139  GLU139     -0.2457
    144  OE2      -23.6620   27.0690    9.2680 O.co2 139  GLU139     -0.2457
    145  N        -26.8930   29.0850    3.6470 N.am  140  ASN140     -0.1974
    146  CA       -26.6960   29.2850    2.1910 C.3   140  ASN140      0.1688
    147  C        -27.8390   30.0820    1.5240 C.2   140  ASN140      0.2292
    148  O        -28.1420   29.9190    0.3360 O.2   140  ASN140     -0.2864
    149  CB       -26.4640   27.9430    1.4840 C.3   140  ASN140      0.1181
    150  CG       -25.1840   27.2450    1.9430 C.2   140  ASN140      0.2629
    151  OD1      -24.1920   27.8890    2.2670 O.2   140  ASN140     -0.2716
    152  ND2      -25.1960   25.9250    1.9500 N.am  140  ASN140     -0.0877
    153  N        -29.3300   34.2210    1.4510 N.3   142  LEU142     -0.1245
    154  CA       -29.0770   35.6160    1.7960 C.3   142  LEU142      0.1561
    155  C        -30.3610   36.3810    1.6130 C.2   142  LEU142      0.2260
    156  O        -31.1290   36.0820    0.7220 O.2   142  LEU142     -0.2867
    157  CB       -27.9790   36.2210    0.8940 C.3   142  LEU142      0.0270
    158  CG       -26.5550   35.6860    1.0470 C.3   142  LEU142      0.0019
    159  CD1      -25.6580   36.2690   -0.0290 C.3   142  LEU142      0.0001
    160  CD2      -26.0120   35.9780    2.4380 C.3   142  LEU142      0.0001
    161  N        -26.8260   30.5590   -2.2400 N.3   153  ILE153     -0.1231
    162  CA       -25.3870   30.6890   -2.3700 C.3   153  ILE153      0.1692
    163  C        -24.6760   29.3620   -2.0720 C.2   153  ILE153      0.2592
    164  O        -25.2430   28.4360   -1.5160 O.2   153  ILE153     -0.2718
    165  CB       -24.8180   31.7990   -1.4330 C.3   153  ILE153      0.0266
    166  CG1      -25.2880   31.6100    0.0080 C.3   153  ILE153      0.0019
    167  CG2      -25.2330   33.1820   -1.9140 C.3   153  ILE153      0.0020
    168  CD1      -24.2950   32.0670    1.0370 C.3   153  ILE153      0.0001
    169  N        -23.4130   29.3120   -2.4580 N.am  154  ASP154     -0.1974
    170  CA       -22.5130   28.2180   -2.1570 C.3   154  ASP154      0.1709
    171  C        -22.9200   26.9300   -2.8370 C.2   154  ASP154      0.2293
    172  O        -23.4580   26.0290   -2.2000 O.2   154  ASP154     -0.2864
    173  CB       -22.3420   28.0110   -0.6430 C.3   154  ASP154      0.1436
    174  CG       -21.2170   27.0440   -0.3140 C.2   154  ASP154      0.3671
    175  OD1      -20.5780   26.4840   -1.2360 O.co2 154  ASP154     -0.2456
    176  OD2      -20.9800   26.8390    0.8900 O.co2 154  ASP154     -0.2456
@<TRIPOS>BOND
     1    55    54    2
     2    54    53    1
     3    64    63    2
     4    52    53    1
     5    53    56    1
     6    63    62    1
     7    84    83   ar
     8    81    78    1
     9    81    82    1
    10    69    70    1
    11    56    57    1
    12    70    71    1
    13    70    73    1
    14    76    74    1
    15    77    71   am
    16    77    78    1
    17    83    85   ar
    18    83    82    1
    19    57    58    1
    20    62    61    1
    21    62    65    1
    22    71    72    2
    23    78    79    1
    24    74    73    1
    25    74    75    1
    26    67    65    1
    27    65    66    1
    28    58    60   ar
    29    58    59   ar
    30    66    68    1
    31    79    86   am
    32    79    80    2
    33    41    40    2
    34    46    45    2
    35    86    87    1
    36    38    39    1
    37    40    39    1
    38    43    44    1
    39    45    44    1
    40    47    44    1
    41    47    48    1
    42    89    88    2
    43    87    88    1
    44    87    90    1
    45    88    97   am
    46    39    42    1
    47    49    48    1
    48    49    50    1
    49   171   172    2
    50   171   170    1
    51   102   103    1
    52   102   101    1
    53    97   103    1
    54    97    98    1
    55    90    91    1
    56   169   170    1
    57   169   163   am
    58   162   161    1
    59   162   163    1
    60   162   165    1
    61    98   101    1
    62    98    99    1
    63   170   173    1
    64    50    51    1
    65   163   164    2
    66   167   165    1
    67   165   166    1
    68   175   174   ar
    69    91    92    1
    70    99   100    2
    71    96    94    1
    72   173   174    1
    73    93    92    1
    74    93    94    2
    75   174   176   ar
    76    94    95    1
    77   159   158    1
    78   166   168    1
    79    37    35    1
    80   148   147    2
    81    36    35    1
    82    28    27    1
    83    28    29    1
    84   156   155    2
    85   157   158    1
    86   157   154    1
    87    35    32    1
    88   158   160    1
    89    32    33    1
    90    32    31    1
    91   153   154    1
    92   149   150    1
    93   149   146    1
    94    29    30    2
    95   110   108    1
    96    26    25    2
    97   147   146    1
    98   155   154    1
    99    33    34    2
   100     7     6    1
   101   150   152   am
   102   150   151    2
   103    25    24    1
   104   108   109    1
   105   108   105    1
   106   146   145    1
   107   105   104    1
   108   105   106    1
   109     6     5    1
   110     6     8    1
   111    24    23    1
   112   145   138   am
   113     5     2    1
   114    23    21   am
   115   139   138    2
   116    12    11    2
   117   106   111   am
   118   106   107    2
   119   138   137    1
   120   111   112    1
   121    21    22    2
   122    21    20    1
   123    19    20    1
   124    19    15   am
   125   114   113    2
   126   126   125   ar
   127     1     2    1
   128    14    17    1
   129    14    15    1
   130    14    13    1
   131     2     3    1
   132    17    18    1
   133    11    13   am
   134    11    10    1
   135   113   112    1
   136   113   120   am
   137     9     3   am
   138     9    10    1
   139    15    16    2
   140   112   115    1
   141     3     4    2
   142   121   120    1
   143   121   124    1
   144   121   122    1
   145   137   136    1
   146   137   140    1
   147   125   124    1
   148   125   127   ar
   149   140   141    1
   150   122   123    2
   151   115   116    1
   152   141   142    1
   153   116   117    1
   154   143   142   ar
   155   142   144   ar
   156   118   117    2
   157   117   119   am
   158   135   133   ar
   159   128   129    1
   160   133   132    1
   161   133   134   ar
   162   132   129    1
   163   129   130    1
   164   130   131    2
