@<TRIPOS>MOLECULE
tmp/4ty6A00.pdb
 160 157 0 0 0
SMALL
GASTEIGER

@<TRIPOS>ATOM
      1  N         29.9710  -23.7960   46.4430 N.3    34  ILE34      -0.1231
      2  CA        28.5270  -23.5600   46.5870 C.3    34  ILE34       0.1692
      3  C         27.9070  -24.4220   47.7090 C.2    34  ILE34       0.2593
      4  O         26.7420  -24.2400   48.0600 O.2    34  ILE34      -0.2718
      5  CB        27.7500  -23.6860   45.2490 C.3    34  ILE34       0.0266
      6  CG1       27.8550  -25.1110   44.6800 C.3    34  ILE34       0.0019
      7  CG2       28.1830  -22.5950   44.2300 C.3    34  ILE34       0.0020
      8  CD1       26.7590  -25.4850   43.7250 C.3    34  ILE34       0.0001
      9  N         28.6590  -25.3930   48.1990 N.am   35  GLY35      -0.1942
     10  CA        28.2240  -26.2930   49.2720 C.3    35  GLY35       0.2014
     11  C         29.4340  -26.9130   49.9200 C.2    35  GLY35       0.2639
     12  O         30.5440  -26.7430   49.4110 O.2    35  GLY35      -0.2714
     13  N         29.2650  -27.6660   51.0310 N.am   36  ASN36      -0.1958
     14  CA        30.4850  -28.0990   51.7210 C.3    36  ASN36       0.1819
     15  C         31.2370  -29.2340   51.0120 C.2    36  ASN36       0.2621
     16  O         32.3580  -29.5200   51.4050 O.2    36  ASN36      -0.2715
     17  CB        30.2580  -28.3740   53.2170 C.3    36  ASN36       0.1195
     18  CG        29.3470  -29.5060   53.5580 C.2    36  ASN36       0.2630
     19  OD1       28.8960  -30.2660   52.6990 O.2    36  ASN36      -0.2716
     20  ND2       29.1390  -29.6920   54.8570 N.am   36  ASN36      -0.0877
     21  N         30.6870  -29.8180   49.9360 N.am   37  GLN37      -0.1963
     22  CA        31.4210  -30.8170   49.1480 C.3    37  GLN37       0.1733
     23  C         31.2810  -30.4930   47.6510 C.2    37  GLN37       0.2616
     24  O         31.5380  -31.3450   46.8040 O.2    37  GLN37      -0.2715
     25  CB        30.9390  -32.2540   49.4720 C.3    37  GLN37       0.0408
     26  CG        29.5170  -32.5680   48.9970 C.3    37  GLN37       0.0908
     27  CD        29.0930  -34.0070   49.2020 C.2    37  GLN37       0.2608
     28  OE1       29.9050  -34.9380   49.2210 O.2    37  GLN37      -0.2717
     29  NE2       27.7940  -34.2190   49.3130 N.am   37  GLN37      -0.0878
     30  N         30.8700  -29.2550   47.3260 N.am   38  TRP38      -0.1974
     31  CA        30.5820  -28.8730   45.9400 C.3    38  TRP38       0.1640
     32  C         31.2350  -27.6090   45.4100 C.2    38  TRP38       0.2290
     33  O         31.0530  -26.5310   45.9830 O.2    38  TRP38      -0.2864
     34  CB        29.0550  -28.6840   45.8140 C.3    38  TRP38       0.0576
     35  CG        28.2630  -29.9320   46.1130 C.ar   38  TRP38       0.0006
     36  CD1       27.5210  -30.1970   47.2330 C.ar   38  TRP38       0.0946
     37  CD2       28.1430  -31.0820   45.2640 C.ar   38  TRP38       0.0152
     38  NE1       26.9220  -31.4460   47.1170 N.ar   38  TRP38      -0.2442
     39  CE2       27.3120  -32.0180   45.9310 C.ar   38  TRP38       0.0810
     40  CE3       28.6510  -31.4110   43.9920 C.ar   38  TRP38       0.0012
     41  CZ2       26.9340  -33.2400   45.3400 C.ar   38  TRP38       0.0191
     42  CZ3       28.2740  -32.6210   43.4050 C.ar   38  TRP38       0.0001
     43  CH2       27.4560  -33.5350   44.0950 C.ar   38  TRP38       0.0015
     44  N         34.9530  -32.7520   53.0710 N.3   102  THR102     -0.1218
     45  CA        34.1130  -31.6040   53.3610 C.3   102  THR102      0.1862
     46  C         34.9540  -30.3310   53.6310 C.2   102  THR102      0.2287
     47  O         35.9170  -30.3620   54.4010 O.2   102  THR102     -0.2866
     48  CB        33.2000  -32.0160   54.5490 C.3   102  THR102      0.1770
     49  OG1       32.1940  -32.8910   54.0360 O.3   102  THR102     -0.2211
     50  CG2       32.5340  -30.8540   55.2300 C.3   102  THR102      0.0375
     51  N         30.7920  -20.5850   51.2190 N.3   111  PRO111     -0.2102
     52  CA        30.0570  -20.6380   49.9490 C.3   111  PRO111      0.1504
     53  C         29.4040  -19.3310   49.5520 C.2   111  PRO111      0.2576
     54  O         29.1340  -18.4660   50.3800 O.2   111  PRO111     -0.2718
     55  CB        28.9980  -21.7300   50.2060 C.3   111  PRO111      0.0282
     56  CG        28.6970  -21.6050   51.6680 C.3   111  PRO111      0.0208
     57  CD        29.9760  -21.1100   52.3400 C.3   111  PRO111      0.0893
     58  N         29.1570  -19.1910   48.2620 N.am  112  ILE112     -0.1966
     59  CA        28.4170  -18.0600   47.7370 C.3   112  ILE112      0.1727
     60  C         26.9760  -18.5780   47.4840 C.2   112  ILE112      0.2616
     61  O         26.8070  -19.7290   47.0700 O.2   112  ILE112     -0.2715
     62  CB        29.0690  -17.4930   46.4320 C.3   112  ILE112      0.0290
     63  CG1       28.2640  -16.2660   45.9370 C.3   112  ILE112      0.0022
     64  CG2       29.2500  -18.5740   45.3050 C.3   112  ILE112      0.0023
     65  CD1       28.9450  -15.4030   44.8170 C.3   112  ILE112      0.0001
     66  N         25.9560  -17.7340   47.7420 N.am  113  CYS113     -0.1954
     67  CA        24.5490  -18.0720   47.5090 C.3   113  CYS113      0.1843
     68  C         24.2930  -18.2050   46.0300 C.2   113  CYS113      0.2625
     69  O         24.7570  -17.3800   45.2460 O.2   113  CYS113     -0.2714
     70  CB        23.6330  -17.0010   48.0950 C.3   113  CYS113      0.0997
     71  SG        23.8270  -16.7530   49.8700 S.3   113  CYS113     -0.0797
     72  N         23.4450  -19.1480   45.6600 N.am  114  LEU114     -0.1964
     73  CA        23.0190  -19.2400   44.2780 C.3   114  LEU114      0.1713
     74  C         21.9060  -18.2060   44.0970 C.2   114  LEU114      0.2458
     75  O         21.3130  -17.7960   45.1040 O.2   114  LEU114     -0.2730
     76  CB        22.4920  -20.6520   43.9860 C.3   114  LEU114      0.0310
     77  CG        23.5300  -21.7670   43.9860 C.3   114  LEU114      0.0022
     78  CD1       22.8370  -23.1180   43.8330 C.3   114  LEU114      0.0001
     79  CD2       24.5620  -21.5730   42.8670 C.3   114  LEU114      0.0001
     80  N         21.6050  -17.7540   42.8590 N.am  115  PRO115     -0.2716
     81  CA        20.4880  -16.8090   42.6810 C.3   115  PRO115      0.1536
     82  C         19.1550  -17.4700   43.0070 C.2   115  PRO115      0.2599
     83  O         19.0490  -18.7010   42.9960 O.2   115  PRO115     -0.2715
     84  CB        20.5240  -16.4610   41.1810 C.3   115  PRO115      0.0310
     85  CG        21.7390  -17.0710   40.6370 C.3   115  PRO115      0.0237
     86  CD        22.1790  -18.1560   41.5590 C.3   115  PRO115      0.0939
     87  N         18.1500  -16.6500   43.3200 N.am  116  SER116     -0.1950
     88  CA        16.7930  -17.1390   43.5780 C.3   116  SER116      0.1924
     89  C         16.0240  -17.0430   42.2550 C.2   116  SER116      0.2314
     90  O         16.2640  -16.1100   41.4750 O.2   116  SER116     -0.2863
     91  CB        16.1010  -16.2850   44.6370 C.3   116  SER116      0.2116
     92  OG        16.9350  -16.0620   45.7640 O.3   116  SER116     -0.2180
     93  N         23.9480   -9.0940   50.0610 N.3   199  VAL199     -0.1245
     94  CA        24.2680  -10.5290   49.9220 C.3   199  VAL199      0.1561
     95  C         24.9050  -10.7390   48.5330 C.2   199  VAL199      0.2260
     96  O         24.4160  -10.1760   47.5580 O.2   199  VAL199     -0.2867
     97  CB        23.0150  -11.4610   50.1130 C.3   199  VAL199      0.0252
     98  CG1       23.3890  -12.9470   49.9660 C.3   199  VAL199      0.0019
     99  CG2       22.3450  -11.2370   51.4800 C.3   199  VAL199      0.0019
    100  N         25.6700  -13.0160   45.2440 N.3   201  HIS201     -0.1241
    101  CA        25.0170  -14.1210   44.5320 C.3   201  HIS201      0.1621
    102  C         25.8710  -14.5160   43.3560 C.2   201  HIS201      0.2264
    103  O         26.4710  -13.6390   42.7170 O.2   201  HIS201     -0.2867
    104  CB        23.6140  -13.7120   44.0400 C.3   201  HIS201      0.0745
    105  CG        22.6300  -13.6130   45.1710 C.ar  201  HIS201      0.0817
    106  ND1       22.2880  -12.3960   45.7230 N.ar  201  HIS201     -0.2268
    107  CD2       21.9870  -14.5980   45.8440 C.ar  201  HIS201      0.1154
    108  CE1       21.4490  -12.6680   46.7130 C.ar  201  HIS201      0.1986
    109  NE2       21.2420  -13.9810   46.8280 N.ar  201  HIS201     -0.2212
    110  N         19.6260  -23.4080   38.4380 N.3   228  VAL228     -0.1245
    111  CA        19.4220  -23.7080   39.8620 C.3   228  VAL228      0.1561
    112  C         18.7580  -25.0910   40.0460 C.2   228  VAL228      0.2260
    113  O         19.2130  -25.8610   40.8780 O.2   228  VAL228     -0.2867
    114  CB        18.6860  -22.5620   40.6010 C.3   228  VAL228      0.0252
    115  CG1       18.1980  -22.9970   41.9950 C.3   228  VAL228      0.0019
    116  CG2       19.6120  -21.3360   40.7170 C.3   228  VAL228      0.0019
    117  N         21.3910  -27.7930   39.3740 N.3   231  ILE231     -0.1231
    118  CA        22.3450  -27.8890   40.4900 C.3   231  ILE231      0.1692
    119  C         21.7170  -28.6760   41.6550 C.2   231  ILE231      0.2591
    120  O         22.3500  -29.5880   42.1890 O.2   231  ILE231     -0.2718
    121  CB        22.8160  -26.4740   40.9410 C.3   231  ILE231      0.0266
    122  CG1       23.6370  -25.7730   39.8190 C.3   231  ILE231      0.0019
    123  CG2       23.6490  -26.5860   42.2400 C.3   231  ILE231      0.0020
    124  CD1       23.7960  -24.1890   40.0520 C.3   231  ILE231      0.0001
    125  N         20.4640  -28.3280   42.0260 N.am  232  LEU232     -0.1980
    126  CA        19.7610  -29.0170   43.1180 C.3   232  LEU232      0.1596
    127  C         19.5320  -30.4830   42.7890 C.2   232  LEU232      0.2287
    128  O         19.6860  -31.3240   43.6640 O.2   232  LEU232     -0.2864
    129  CB        18.4320  -28.3240   43.4300 C.3   232  LEU232      0.0297
    130  CG        18.5300  -26.9140   44.0260 C.3   232  LEU232      0.0022
    131  CD1       17.1390  -26.3120   44.2200 C.3   232  LEU232      0.0001
    132  CD2       19.3080  -26.9100   45.3380 C.3   232  LEU232      0.0001
    133  N         23.0310  -32.0280   43.4290 N.3   235  THR235     -0.1203
    134  CA        23.5590  -31.9070   44.7890 C.3   235  THR235      0.1994
    135  C         22.6060  -32.4360   45.8830 C.2   235  THR235      0.2618
    136  O         23.0760  -32.7500   46.9750 O.2   235  THR235     -0.2717
    137  CB        24.0070  -30.4610   45.0920 C.3   235  THR235      0.1784
    138  OG1       22.8500  -29.6290   45.2080 O.3   235  THR235     -0.2211
    139  CG2       25.0310  -29.9060   44.0470 C.3   235  THR235      0.0376
    140  N         21.2800  -32.4780   45.6170 N.am  236  GLN236     -0.1965
    141  CA        20.2750  -32.9130   46.6030 C.3   236  GLN236      0.1733
    142  C         19.6960  -34.2790   46.2460 C.2   236  GLN236      0.2616
    143  O         18.6200  -34.6110   46.7360 O.2   236  GLN236     -0.2715
    144  CB        19.1040  -31.9070   46.7190 C.3   236  GLN236      0.0408
    145  CG        19.4620  -30.4310   46.7410 C.3   236  GLN236      0.0908
    146  CD        20.1050  -30.0040   48.0180 C.2   236  GLN236      0.2608
    147  OE1       21.3220  -29.8440   48.0880 O.2   236  GLN236     -0.2717
    148  NE2       19.2940  -29.7660   49.0380 N.am  236  GLN236     -0.0878
    149  N         20.3810  -35.0630   45.3930 N.am  237  ALA237     -0.1963
    150  CA        19.9150  -36.3980   44.9940 C.3   237  ALA237      0.1728
    151  C         19.7000  -37.2990   46.2260 C.2   237  ALA237      0.2616
    152  O         20.5280  -37.2960   47.1400 O.2   237  ALA237     -0.2715
    153  CB        20.9150  -37.0460   44.0560 C.3   237  ALA237      0.0334
    154  N         18.5910  -38.0630   46.2460 N.am  238  VAL238     -0.1977
    155  CA        18.2500  -38.9590   47.3650 C.3   238  VAL238      0.1596
    156  C         19.1980  -40.1650   47.4610 C.2   238  VAL238      0.2287
    157  O         19.7660  -40.5910   46.4580 O.2   238  VAL238     -0.2864
    158  CB        16.7620  -39.3960   47.3790 C.3   238  VAL238      0.0276
    159  CG1       15.8330  -38.2150   47.6470 C.3   238  VAL238      0.0022
    160  CG2       16.3800  -40.1150   46.0990 C.3   238  VAL238      0.0022
@<TRIPOS>BOND
     1   110   111    1
     2   117   118    1
     3   122   124    1
     4   122   121    1
     5   111   112    1
     6   111   114    1
     7   112   113    2
     8   118   121    1
     9   118   119    1
    10   114   116    1
    11   114   115    1
    12    85    84    1
    13    85    86    1
    14   121   123    1
    15    84    81    1
    16    90    89    2
    17    86    80    1
    18   119   125   am
    19   119   120    2
    20   125   126    1
    21    89    88    1
    22    81    80    1
    23    81    82    1
    24   103   102    2
    25   127   126    1
    26   127   128    2
    27    80    74   am
    28    79    77    1
    29    83    82    2
    30    82    87   am
    31   126   129    1
    32    87    88    1
    33   102   101    1
    34    42    40   ar
    35    42    43   ar
    36   133   134    1
    37   129   130    1
    38    88    91    1
    39     8     6    1
    40    78    77    1
    41    77    76    1
    42    76    73    1
    43    40    37   ar
    44   130   131    1
    45   130   132    1
    46   104   101    1
    47   104   105    1
    48   139   137    1
    49   153   150    1
    50    43    41   ar
    51    74    73    1
    52    74    75    2
    53     7     5    1
    54    73    72    1
    55   101   100    1
    56    91    92    1
    57     6     5    1
    58   134   137    1
    59   134   135    1
    60    65    63    1
    61   150   149    1
    62   150   151    1
    63   137   138    1
    64   105   106   ar
    65   105   107   ar
    66    69    68    2
    67     5     2    1
    68    37    39   ar
    69    37    35   ar
    70    64    62    1
    71    41    39   ar
    72   149   142   am
    73    32    31    1
    74    32    33    2
    75   140   135   am
    76   140   141    1
    77    72    68   am
    78   106   108   ar
    79    34    31    1
    80    34    35    1
    81   107   109   ar
    82   135   136    2
    83    39    38   ar
    84    63    62    1
    85    31    30    1
    86    68    67    1
    87   160   158    1
    88    35    36   ar
    89   151   154   am
    90   151   152    2
    91   142   141    1
    92   142   143    2
    93   154   155    1
    94    62    59    1
    95     1     2    1
    96   157   156    2
    97     2     3    1
    98   141   144    1
    99   108   109   ar
   100   144   145    1
   101   145   146    1
   102    24    23    2
   103    61    60    2
   104    38    36   ar
   105    30    23   am
   106   155   158    1
   107   155   156    1
   108   158   159    1
   109    60    59    1
   110    60    66   am
   111    67    66    1
   112    67    70    1
   113    96    95    2
   114    23    22    1
   115     3     4    2
   116     3     9   am
   117    59    58    1
   118   146   147    2
   119   146   148   am
   120    70    71    1
   121     9    10    1
   122    58    53   am
   123    95    94    1
   124    26    27    1
   125    26    25    1
   126    22    25    1
   127    22    21    1
   128    27    28    2
   129    27    29   am
   130    10    11    1
   131    12    11    2
   132    53    52    1
   133    53    54    2
   134    11    13   am
   135    94    93    1
   136    94    97    1
   137    21    15   am
   138    52    55    1
   139    52    51    1
   140    98    97    1
   141    97    99    1
   142    55    56    1
   143    15    16    2
   144    15    14    1
   145    13    14    1
   146    51    57    1
   147    56    57    1
   148    14    17    1
   149    19    18    2
   150    44    45    1
   151    17    18    1
   152    45    46    1
   153    45    48    1
   154    18    20   am
   155    46    47    2
   156    49    48    1
   157    48    50    1
