@<TRIPOS>MOLECULE
tmp/4ty6A01.pdb
 180 179 0 0 0
SMALL
GASTEIGER

@<TRIPOS>ATOM
      1  N         49.5530  -27.4040   37.3850 N.3    26  ARG26      -0.1231
      2  CA        49.3300  -26.0200   36.9730 C.3    26  ARG26       0.1694
      3  C         47.8680  -25.6500   37.2040 C.2    26  ARG26       0.2592
      4  O         47.0160  -26.5420   37.2670 O.2    26  ARG26      -0.2718
      5  CB        49.7190  -25.8170   35.4800 C.3    26  ARG26       0.0321
      6  CG        48.8060  -26.5250   34.4810 C.3    26  ARG26       0.0489
      7  CD        49.3990  -26.6170   33.0850 C.3    26  ARG26       0.2205
      8  NE        50.5240  -27.5550   33.0220 N.pl3  26  ARG26      -0.0865
      9  CZ        51.2700  -27.7610   31.9400 C.cat  26  ARG26       0.5346
     10  NH1       51.0150  -27.1040   30.8140 N.pl3  26  ARG26       0.1354
     11  NH2       52.2760  -28.6230   31.9750 N.pl3  26  ARG26       0.1354
     12  N         47.5830  -24.3400   37.2940 N.am   27  HIS27      -0.1962
     13  CA        46.2180  -23.8220   37.4210 C.3    27  HIS27       0.1787
     14  C         45.5160  -24.1780   36.0920 C.2    27  HIS27       0.2620
     15  O         46.0790  -23.9820   35.0090 O.2    27  HIS27      -0.2715
     16  CB        46.2780  -22.2900   37.5920 C.3    27  HIS27       0.0785
     17  CG        44.9740  -21.5730   37.3710 C.ar   27  HIS27       0.0821
     18  ND1       44.0590  -21.4070   38.3960 N.ar   27  HIS27      -0.2267
     19  CD2       44.4870  -20.9820   36.2480 C.ar   27  HIS27       0.1154
     20  CE1       43.0380  -20.7430   37.8680 C.ar   27  HIS27       0.1986
     21  NE2       43.2470  -20.4670   36.5780 N.ar   27  HIS27      -0.2212
     22  N         44.3010  -24.6860   36.1870 N.am   28  LEU28      -0.1963
     23  CA        43.5060  -25.0520   35.0350 C.3    28  LEU28       0.1728
     24  C         42.3730  -24.0610   34.8350 C.2    28  LEU28       0.2616
     25  O         42.1640  -23.5680   33.7260 O.2    28  LEU28      -0.2715
     26  CB        42.9320  -26.4700   35.2480 C.3    28  LEU28       0.0311
     27  CG        42.0590  -27.0450   34.1210 C.3    28  LEU28       0.0022
     28  CD1       42.8700  -27.2100   32.8190 C.3    28  LEU28       0.0001
     29  CD2       41.4040  -28.3560   34.5590 C.3    28  LEU28       0.0001
     30  N         41.6110  -23.7850   35.9200 N.am   29  CYS29      -0.1968
     31  CA        40.3770  -22.9980   35.8600 C.3    29  CYS29       0.1712
     32  C         40.0790  -22.4200   37.2380 C.2    29  CYS29       0.2296
     33  O         40.5900  -22.9340   38.2360 O.2    29  CYS29      -0.2864
     34  CB        39.2260  -23.9170   35.4260 C.3    29  CYS29       0.0983
     35  SG        39.0060  -24.1040   33.6310 S.3    29  CYS29      -0.0798
     36  N         33.7820  -26.7490   29.9820 N.3    44  HIS44      -0.1226
     37  CA        34.8780  -26.7530   28.9910 C.3    44  HIS44       0.1752
     38  C         36.2680  -26.9740   29.6120 C.2    44  HIS44       0.2596
     39  O         37.2000  -27.3560   28.9040 O.2    44  HIS44      -0.2718
     40  CB        34.8570  -25.4930   28.0940 C.3    44  HIS44       0.0759
     41  CG        35.3360  -24.2590   28.7950 C.ar   44  HIS44       0.0818
     42  ND1       34.4500  -23.3110   29.2520 N.ar   44  HIS44      -0.2268
     43  CD2       36.5920  -23.9090   29.1690 C.ar   44  HIS44       0.1154
     44  CE1       35.1850  -22.3850   29.8610 C.ar   44  HIS44       0.1986
     45  NE2       36.4780  -22.7220   29.8750 N.ar   44  HIS44      -0.2212
     46  N         36.3980  -26.7350   30.9360 N.am   45  CYS45      -0.1970
     47  CA        37.6250  -26.9230   31.7380 C.3    45  CYS45       0.1712
     48  C         38.1540  -28.3390   31.6150 C.2    45  CYS45       0.2296
     49  O         39.3550  -28.5670   31.7650 O.2    45  CYS45      -0.2864
     50  CB        37.3490  -26.6170   33.2100 C.3    45  CYS45       0.0983
     51  SG        37.1200  -24.8670   33.5840 S.3    45  CYS45      -0.0798
     52  N         38.0380  -30.5700   29.1050 N.3    47  TYR47      -0.1241
     53  CA        38.3910  -31.1130   27.7940 C.3    47  TYR47       0.1605
     54  C         39.6330  -31.9930   27.9500 C.2    47  TYR47       0.2264
     55  O         40.6340  -31.5470   28.5240 O.2    47  TYR47      -0.2867
     56  CB        38.6430  -30.0000   26.7710 C.3    47  TYR47       0.0534
     57  CG        38.9820  -30.5620   25.4030 C.ar   47  TYR47      -0.0201
     58  CD1       37.9800  -31.0250   24.5520 C.ar   47  TYR47      -0.0009
     59  CD2       40.3100  -30.7230   25.0010 C.ar   47  TYR47      -0.0009
     60  CE1       38.2830  -31.5560   23.2970 C.ar   47  TYR47       0.0417
     61  CE2       40.6290  -31.2820   23.7580 C.ar   47  TYR47       0.0417
     62  CZ        39.6090  -31.6940   22.9110 C.ar   47  TYR47       0.1957
     63  OH        39.9000  -32.2240   21.6810 O.3    47  TYR47      -0.2866
     64  N         45.1540  -14.2130   32.6470 N.3   134  TYR134     -0.1241
     65  CA        46.0210  -13.2470   31.9770 C.3   134  TYR134      0.1605
     66  C         45.4890  -11.8290   32.1440 C.2   134  TYR134      0.2264
     67  O         44.2860  -11.6230   32.2420 O.2   134  TYR134     -0.2867
     68  CB        46.0510  -13.5690   30.4630 C.3   134  TYR134      0.0534
     69  CG        46.7780  -14.8110   30.0030 C.ar  134  TYR134     -0.0201
     70  CD1       47.1530  -15.8090   30.9040 C.ar  134  TYR134     -0.0009
     71  CD2       47.0480  -15.0180   28.6520 C.ar  134  TYR134     -0.0009
     72  CE1       47.7660  -16.9830   30.4660 C.ar  134  TYR134      0.0417
     73  CE2       47.6410  -16.1920   28.2040 C.ar  134  TYR134      0.0417
     74  CZ        48.0050  -17.1650   29.1090 C.ar  134  TYR134      0.1957
     75  OH        48.6500  -18.2750   28.6280 O.3   134  TYR134     -0.2866
     76  N         49.5030  -16.7700   33.7770 N.3   141  ILE141     -0.1245
     77  CA        48.6720  -16.8470   34.9940 C.3   141  ILE141      0.1561
     78  C         49.2850  -15.9110   36.0530 C.2   141  ILE141      0.2260
     79  O         50.5020  -15.9270   36.2650 O.2   141  ILE141     -0.2867
     80  CB        48.5830  -18.3270   35.4720 C.3   141  ILE141      0.0252
     81  CG1       47.7930  -19.1820   34.4270 C.3   141  ILE141      0.0019
     82  CG2       47.9460  -18.4510   36.9040 C.3   141  ILE141      0.0019
     83  CD1       46.3660  -18.6140   33.9620 C.3   141  ILE141      0.0001
     84  N         37.6480   -7.0970   31.6400 N.3   182  ASP182     -0.1225
     85  CA        37.0130   -8.3770   31.2490 C.3   182  ASP182      0.1805
     86  C         37.7890   -9.5170   31.8640 C.2   182  ASP182      0.2598
     87  O         38.9200   -9.3450   32.3220 O.2   182  ASP182     -0.2718
     88  CB        37.1350   -8.5170   29.6980 C.3   182  ASP182      0.1424
     89  CG        36.2920   -9.5500   28.9510 C.2   182  ASP182      0.3668
     90  OD1       35.4130  -10.2000   29.5960 O.co2 182  ASP182     -0.2456
     91  OD2       36.4580   -9.6630   27.6950 O.co2 182  ASP182     -0.2456
     92  N         37.2150  -10.7150   31.7740 N.am  183  ALA183     -0.1966
     93  CA        37.9000  -11.9410   32.1050 C.3   183  ALA183      0.1728
     94  C         38.8470  -12.2160   30.9210 C.2   183  ALA183      0.2616
     95  O         38.6210  -11.7210   29.8030 O.2   183  ALA183     -0.2715
     96  CB        36.8840  -13.0860   32.2140 C.3   183  ALA183      0.0334
     97  N         39.9020  -12.9840   31.1670 N.am  184  CYS184     -0.1954
     98  CA        40.8140  -13.3830   30.0990 C.3   184  CYS184      0.1843
     99  C         41.2920  -14.8170   30.3400 C.2   184  CYS184      0.2625
    100  O         40.7510  -15.4930   31.2180 O.2   184  CYS184     -0.2714
    101  CB        41.9640  -12.3930   29.8900 C.3   184  CYS184      0.0997
    102  SG        42.6670  -12.4400   28.2120 S.3   184  CYS184     -0.0797
    103  N         42.2040  -15.3350   29.5110 N.am  185  LYS185     -0.1963
    104  CA        42.6700  -16.7380   29.5890 C.3   185  LYS185      0.1728
    105  C         43.0910  -17.1610   31.0020 C.2   185  LYS185      0.2616
    106  O         43.9190  -16.4940   31.6300 O.2   185  LYS185     -0.2715
    107  CB        43.7950  -16.9780   28.5820 C.3   185  LYS185      0.0311
    108  CG        43.3440  -16.6950   27.1530 C.3   185  LYS185      0.0038
    109  CD        44.4340  -17.0920   26.1860 C.3   185  LYS185      0.0206
    110  CE        44.0420  -16.7730   24.7620 C.3   185  LYS185      0.1093
    111  NZ        44.9080  -17.5160   23.8080 N.3   185  LYS185     -0.1314
    112  N         42.4930  -18.2420   31.4950 N.am  186  GLY186     -0.1955
    113  CA        42.7410  -18.7590   32.8470 C.3   186  GLY186      0.1869
    114  C         41.7030  -18.3130   33.8700 C.2   186  GLY186      0.2309
    115  O         41.7090  -18.7850   35.0160 O.2   186  GLY186     -0.2863
    116  N         38.3630  -18.6950   33.1960 N.3   188  SER188     -0.1217
    117  CA        37.1640  -19.5130   32.9640 C.3   188  SER188      0.1889
    118  C         36.8360  -20.4240   34.1230 C.2   188  SER188      0.2288
    119  O         37.7310  -20.8290   34.8660 O.2   188  SER188     -0.2866
    120  CB        37.2440  -20.2740   31.6480 C.3   188  SER188      0.2089
    121  OG        38.0760  -21.4100   31.7700 O.3   188  SER188     -0.2183
    122  N         32.3040  -17.7450   34.3440 N.3   206  THR206     -0.1203
    123  CA        33.1220  -17.2810   33.2010 C.3   206  THR206      0.1994
    124  C         33.2310  -18.3720   32.1490 C.2   206  THR206      0.2619
    125  O         33.6830  -19.4640   32.4680 O.2   206  THR206     -0.2717
    126  CB        34.4680  -16.7880   33.7170 C.3   206  THR206      0.1784
    127  OG1       34.2040  -15.7950   34.7150 O.3   206  THR206     -0.2211
    128  CG2       35.3420  -16.2390   32.5880 C.3   206  THR206      0.0376
    129  N         32.8200  -18.0760   30.8950 N.am  207  SER207     -0.1937
    130  CA        32.7050  -19.1110   29.8890 C.3   207  SER207      0.2055
    131  C         33.5160  -18.8400   28.6350 C.2   207  SER207      0.2643
    132  O         34.4950  -19.5530   28.4070 O.2   207  SER207     -0.2714
    133  CB        31.2240  -19.3750   29.5800 C.3   207  SER207      0.2130
    134  OG        31.0310  -20.3990   28.6180 O.3   207  SER207     -0.2179
    135  N         33.1560  -17.8290   27.8420 N.am  208  TRP208     -0.1959
    136  CA        33.8980  -17.5760   26.5940 C.3   208  TRP208      0.1771
    137  C         33.7370  -16.1070   26.1480 C.2   208  TRP208      0.2620
    138  O         32.9870  -15.3440   26.7440 O.2   208  TRP208     -0.2715
    139  CB        33.4190  -18.5460   25.4810 C.3   208  TRP208      0.0590
    140  CG        31.9760  -18.3700   25.0830 C.ar  208  TRP208      0.0006
    141  CD1       30.8790  -18.8460   25.7370 C.ar  208  TRP208      0.0946
    142  CD2       31.4830  -17.6250   23.9620 C.ar  208  TRP208      0.0152
    143  NE1       29.7300  -18.4550   25.0810 N.ar  208  TRP208     -0.2442
    144  CE2       30.0740  -17.7210   23.9790 C.ar  208  TRP208      0.0810
    145  CE3       32.1040  -16.8840   22.9270 C.ar  208  TRP208      0.0012
    146  CZ2       29.2660  -17.1130   23.0000 C.ar  208  TRP208      0.0191
    147  CZ3       31.3030  -16.2930   21.9580 C.ar  208  TRP208      0.0001
    148  CH2       29.9090  -16.4450   21.9740 C.ar  208  TRP208      0.0015
    149  N         34.4270  -15.7430   25.0820 N.am  209  GLY209     -0.1954
    150  CA        34.2980  -14.4130   24.4900 C.3   209  GLY209      0.1869
    151  C         35.2230  -14.3010   23.2960 C.2   209  GLY209      0.2309
    152  O         36.0850  -15.1650   23.1030 O.2   209  GLY209     -0.2863
    153  N         38.2830  -12.7430   22.1030 N.3   211  GLY211     -0.1210
    154  CA        39.4440  -12.0450   22.6660 C.3   211  GLY211      0.1956
    155  C         39.1820  -11.6710   24.1230 C.2   211  GLY211      0.2612
    156  O         38.3270  -12.2930   24.7730 O.2   211  GLY211     -0.2717
    157  N         39.9000  -10.6560   24.6450 N.am  212  CYS212     -0.1970
    158  CA        39.7520  -10.1990   26.0390 C.3   212  CYS212      0.1712
    159  C         39.6600   -8.6900   26.1010 C.2   212  CYS212      0.2296
    160  O         40.5760   -8.0090   25.6190 O.2   212  CYS212     -0.2864
    161  CB        40.9030  -10.7000   26.9070 C.3   212  CYS212      0.0983
    162  SG        41.1900  -12.4820   26.8110 S.3   212  CYS212     -0.0798
    163  N         31.6530   -8.1620   24.7550 N.3   218  PRO218     -0.2102
    164  CA        31.5600   -8.4990   26.1840 C.3   218  PRO218      0.1504
    165  C         31.8730   -9.9760   26.4600 C.2   218  PRO218      0.2576
    166  O         31.7560  -10.8030   25.5700 O.2   218  PRO218     -0.2718
    167  CB        30.1140   -8.1470   26.5440 C.3   218  PRO218      0.0282
    168  CG        29.3610   -8.2180   25.2610 C.3   218  PRO218      0.0208
    169  CD        30.3170   -7.9160   24.1530 C.3   218  PRO218      0.0893
    170  N         32.2640  -10.2800   27.6880 N.am  219  GLY219     -0.1943
    171  CA        32.5150  -11.6510   28.1210 C.3   219  GLY219      0.2014
    172  C         31.1690  -12.3470   28.1810 C.2   219  GLY219      0.2638
    173  O         30.1590  -11.7160   28.4990 O.2   219  GLY219     -0.2714
    174  N         31.1300  -13.6420   27.8660 N.am  220  VAL220     -0.1977
    175  CA        29.8830  -14.4290   27.8950 C.3   220  VAL220      0.1596
    176  C         30.0010  -15.4000   29.0570 C.2   220  VAL220      0.2287
    177  O         31.0550  -16.0230   29.2480 O.2   220  VAL220     -0.2864
    178  CB        29.5720  -15.1520   26.5600 C.3   220  VAL220      0.0276
    179  CG1       28.1940  -15.8220   26.6230 C.3   220  VAL220      0.0022
    180  CG2       29.6140  -14.1630   25.3820 C.3   220  VAL220      0.0022
@<TRIPOS>BOND
     1    63    62    1
     2   147   148   ar
     3   147   145   ar
     4   148   146   ar
     5   153   154    1
     6   154   155    1
     7    62    60   ar
     8    62    61   ar
     9   145   142   ar
    10   146   144   ar
    11   152   151    2
    12   151   150    1
    13    60    58   ar
    14    61    59   ar
    15   111   110    1
    16   142   144   ar
    17   142   140   ar
    18   144   143   ar
    19   155   157   am
    20   155   156    2
    21   169   163    1
    22   169   168    1
    23   150   149    1
    24    58    57   ar
    25   157   158    1
    26   163   164    1
    27   110   109    1
    28    59    57   ar
    29   143   141   ar
    30   149   137   am
    31   140   139    1
    32   140   141   ar
    33   168   167    1
    34   180   178    1
    35    57    56    1
    36   139   136    1
    37   166   165    2
    38   160   159    2
    39   158   159    1
    40   158   161    1
    41   137   136    1
    42   137   138    2
    43   164   165    1
    44   164   167    1
    45   109   108    1
    46   165   170   am
    47   178   179    1
    48   178   175    1
    49   136   135    1
    50    56    53    1
    51   162   161    1
    52   162   102    1
    53   108   107    1
    54   170   171    1
    55    91    89   ar
    56    53    54    1
    57    53    52    1
    58   135   131   am
    59   174   175    1
    60   174   172   am
    61   175   176    1
    62    54    55    2
    63    40    41    1
    64    40    37    1
    65   171   172    1
    66   172   173    2
    67    73    71   ar
    68    73    74   ar
    69   102   101    1
    70   132   131    2
    71   107   104    1
    72   134   133    1
    73    75    74    1
    74   131   130    1
    75    71    69   ar
    76    41    43   ar
    77    41    42   ar
    78    39    38    2
    79    89    90   ar
    80    89    88    1
    81    37    38    1
    82    37    36    1
    83   176   177    2
    84    74    72   ar
    85    43    45   ar
    86    42    44   ar
    87   103   104    1
    88   103    99   am
    89   133   130    1
    90   104   105    1
    91    38    46   am
    92    88    85    1
    93    95    94    2
    94    44    45   ar
    95   130   129    1
    96   101    98    1
    97    69    68    1
    98    69    70   ar
    99    98    99    1
   100    98    97    1
   101    99   100    2
   102    68    65    1
   103    72    70   ar
   104    10     9    1
   105   129   124   am
   106    94    97   am
   107    94    93    1
   108    46    47    1
   109   105   112   am
   110   105   106    2
   111    85    84    1
   112    85    86    1
   113   112   113    1
   114    48    47    1
   115    48    49    2
   116   120   121    1
   117   120   117    1
   118    47    50    1
   119    92    86   am
   120    92    93    1
   121    86    87    2
   122     9    11    1
   123     9     8    2
   124    65    66    1
   125    65    64    1
   126    93    96    1
   127    66    67    2
   128   124   125    2
   129   124   123    1
   130   128   126    1
   131    28    27    1
   132   113   114    1
   133   117   116    1
   134   117   118    1
   135     8     7    1
   136     7     6    1
   137   123   126    1
   138   123   122    1
   139    50    51    1
   140    51    35    1
   141    35    34    1
   142   126   127    1
   143    25    24    2
   144    76    77    1
   145   114   115    2
   146    83    81    1
   147    27    29    1
   148    27    26    1
   149   118   119    2
   150    81    80    1
   151     6     5    1
   152    24    23    1
   153    24    30   am
   154    77    80    1
   155    77    78    1
   156    15    14    2
   157    23    26    1
   158    23    22    1
   159    34    31    1
   160    80    82    1
   161     5     2    1
   162    31    30    1
   163    31    32    1
   164    78    79    2
   165    14    22   am
   166    14    13    1
   167    19    21   ar
   168    19    17   ar
   169    21    20   ar
   170     2     3    1
   171     2     1    1
   172     3     4    2
   173     3    12   am
   174    32    33    2
   175    12    13    1
   176    17    16    1
   177    17    18   ar
   178    13    16    1
   179    20    18   ar
