@<TRIPOS>MOLECULE
tmp/4ty7A00.pdb
 189 188 0 0 0
SMALL
GASTEIGER

@<TRIPOS>ATOM
      1  N         49.5830  -27.2290   37.3530 N.3    26  ARG26      -0.1231
      2  CA        49.3360  -25.8370   36.9790 C.3    26  ARG26       0.1694
      3  C         47.8510  -25.4990   37.1570 C.2    26  ARG26       0.2592
      4  O         47.0120  -26.4020   37.2150 O.2    26  ARG26      -0.2718
      5  CB        49.7800  -25.5850   35.5160 C.3    26  ARG26       0.0321
      6  CG        48.9540  -26.3660   34.4800 C.3    26  ARG26       0.0489
      7  CD        49.5070  -26.2350   33.0730 C.3    26  ARG26       0.2205
      8  NE        48.6900  -26.9820   32.1100 N.pl3  26  ARG26      -0.0865
      9  CZ        47.6310  -26.4910   31.4670 C.cat  26  ARG26       0.5346
     10  NH1       47.2430  -25.2380   31.6710 N.pl3  26  ARG26       0.1354
     11  NH2       46.9530  -27.2500   30.6170 N.pl3  26  ARG26       0.1354
     12  N         47.5360  -24.2040   37.2310 N.am   27  HIS27      -0.1962
     13  CA        46.1600  -23.7160   37.3240 C.3    27  HIS27       0.1787
     14  C         45.4770  -24.0830   35.9780 C.2    27  HIS27       0.2620
     15  O         46.0740  -23.8840   34.9070 O.2    27  HIS27      -0.2715
     16  CB        46.1700  -22.1940   37.5330 C.3    27  HIS27       0.0785
     17  CG        44.8480  -21.5230   37.2810 C.ar   27  HIS27       0.0821
     18  ND1       43.9310  -21.3280   38.3040 N.ar   27  HIS27      -0.2267
     19  CD2       44.3480  -20.9870   36.1330 C.ar   27  HIS27       0.1154
     20  CE1       42.9000  -20.7140   37.7490 C.ar   27  HIS27       0.1986
     21  NE2       43.1000  -20.4910   36.4380 N.ar   27  HIS27      -0.2212
     22  N         44.2470  -24.6210   36.0490 N.am   28  LEU28      -0.1963
     23  CA        43.4470  -24.9850   34.8770 C.3    28  LEU28       0.1728
     24  C         42.2690  -24.0120   34.6960 C.2    28  LEU28       0.2616
     25  O         42.0540  -23.4780   33.6030 O.2    28  LEU28      -0.2715
     26  CB        42.9190  -26.4310   35.0420 C.3    28  LEU28       0.0311
     27  CG        42.0210  -26.9970   33.9300 C.3    28  LEU28       0.0022
     28  CD1       42.7870  -27.0940   32.5940 C.3    28  LEU28       0.0001
     29  CD2       41.4260  -28.3580   34.3430 C.3    28  LEU28       0.0001
     30  N         41.4930  -23.8030   35.7780 N.am   29  CYS29      -0.1968
     31  CA        40.2920  -22.9830   35.7530 C.3    29  CYS29       0.1712
     32  C         39.9860  -22.4010   37.1170 C.2    29  CYS29       0.2296
     33  O         40.4360  -22.9150   38.1350 O.2    29  CYS29      -0.2864
     34  CB        39.1120  -23.8430   35.2910 C.3    29  CYS29       0.0983
     35  SG        38.9730  -24.0340   33.4970 S.3    29  CYS29      -0.0798
     36  N         33.6740  -26.7310   29.8870 N.3    44  HIS44      -0.1226
     37  CA        34.8070  -26.7020   28.9220 C.3    44  HIS44       0.1752
     38  C         36.1920  -26.9420   29.5710 C.2    44  HIS44       0.2596
     39  O         37.1330  -27.3560   28.8890 O.2    44  HIS44      -0.2718
     40  CB        34.7920  -25.4320   28.0370 C.3    44  HIS44       0.0759
     41  CG        35.2400  -24.2000   28.7740 C.ar   44  HIS44       0.0818
     42  ND1       34.3420  -23.2260   29.1560 N.ar   44  HIS44      -0.2268
     43  CD2       36.4700  -23.8670   29.2390 C.ar   44  HIS44       0.1154
     44  CE1       35.0480  -22.3160   29.8120 C.ar   44  HIS44       0.1986
     45  NE2       36.3230  -22.6770   29.9270 N.ar   44  HIS44      -0.2212
     46  N         36.3070  -26.7040   30.8860 N.am   45  CYS45      -0.1970
     47  CA        37.5520  -26.9270   31.6510 C.3    45  CYS45       0.1712
     48  C         38.0290  -28.3770   31.5660 C.2    45  CYS45       0.2296
     49  O         39.2200  -28.6330   31.7150 O.2    45  CYS45      -0.2864
     50  CB        37.3500  -26.5030   33.1080 C.3    45  CYS45       0.0983
     51  SG        37.0660  -24.7220   33.3080 S.3    45  CYS45      -0.0798
     52  N         37.8620  -30.5560   28.9140 N.3    47  TYR47      -0.1241
     53  CA        38.2390  -31.0690   27.5980 C.3    47  TYR47       0.1605
     54  C         39.5290  -31.9170   27.7530 C.2    47  TYR47       0.2264
     55  O         40.5110  -31.4430   28.3250 O.2    47  TYR47      -0.2867
     56  CB        38.4560  -29.9220   26.5980 C.3    47  TYR47       0.0534
     57  CG        38.8330  -30.4510   25.2300 C.ar   47  TYR47      -0.0201
     58  CD1       37.8570  -30.8860   24.3380 C.ar   47  TYR47      -0.0009
     59  CD2       40.1740  -30.5970   24.8590 C.ar   47  TYR47      -0.0009
     60  CE1       38.1960  -31.4220   23.0970 C.ar   47  TYR47       0.0417
     61  CE2       40.5270  -31.1250   23.6120 C.ar   47  TYR47       0.0417
     62  CZ        39.5290  -31.5280   22.7350 C.ar   47  TYR47       0.1957
     63  OH        39.8350  -32.0630   21.5140 O.3    47  TYR47      -0.2866
     64  N         44.9880  -14.1530   32.5010 N.3   134  TYR134     -0.1241
     65  CA        45.8680  -13.2030   31.8330 C.3   134  TYR134      0.1605
     66  C         45.3600  -11.7770   32.0030 C.2   134  TYR134      0.2264
     67  O         44.1560  -11.5630   32.0910 O.2   134  TYR134     -0.2867
     68  CB        45.9350  -13.5280   30.3220 C.3   134  TYR134      0.0534
     69  CG        46.6430  -14.8040   29.8980 C.ar  134  TYR134     -0.0201
     70  CD1       46.9840  -15.7880   30.8290 C.ar  134  TYR134     -0.0009
     71  CD2       46.9160  -15.0550   28.5550 C.ar  134  TYR134     -0.0009
     72  CE1       47.5690  -16.9900   30.4300 C.ar  134  TYR134      0.0417
     73  CE2       47.5010  -16.2550   28.1460 C.ar  134  TYR134      0.0417
     74  CZ        47.8210  -17.2190   29.0850 C.ar  134  TYR134      0.1957
     75  OH        48.4210  -18.3830   28.6750 O.3   134  TYR134     -0.2866
     76  N         50.6310  -14.7000   31.1430 N.3   140  LYS140     -0.1231
     77  CA        50.7320  -15.9090   31.9310 C.3   140  LYS140      0.1693
     78  C         49.7430  -15.7840   33.0790 C.2   140  LYS140      0.2591
     79  O         49.2280  -14.6960   33.3370 O.2   140  LYS140     -0.2718
     80  CB        52.1820  -16.1680   32.4180 C.3   140  LYS140      0.0285
     81  CG        52.8060  -15.0670   33.2780 C.3   140  LYS140      0.0035
     82  CD        54.1620  -15.4910   33.8500 C.3   140  LYS140      0.0206
     83  CE        55.3370  -15.2360   32.9230 C.3   140  LYS140      0.1093
     84  NZ        55.7890  -13.8170   32.9600 N.3   140  LYS140     -0.1314
     85  N         49.4640  -16.8950   33.7470 N.am  141  ILE141     -0.1980
     86  CA        48.5800  -16.9340   34.9200 C.3   141  ILE141      0.1595
     87  C         49.1710  -15.9920   35.9800 C.2   141  ILE141      0.2287
     88  O         50.3830  -15.9930   36.1940 O.2   141  ILE141     -0.2864
     89  CB        48.4400  -18.4030   35.4210 C.3   141  ILE141      0.0276
     90  CG1       47.6380  -19.2530   34.3910 C.3   141  ILE141      0.0022
     91  CG2       47.8340  -18.5080   36.8620 C.3   141  ILE141      0.0022
     92  CD1       46.2010  -18.6550   33.9060 C.3   141  ILE141      0.0001
     93  N         37.6530   -6.9690   31.5910 N.3   182  ASP182     -0.1225
     94  CA        37.0290   -8.2480   31.2120 C.3   182  ASP182      0.1805
     95  C         37.7650   -9.4200   31.8170 C.2   182  ASP182      0.2598
     96  O         38.9010   -9.2940   32.2600 O.2   182  ASP182     -0.2718
     97  CB        37.1390   -8.4000   29.6620 C.3   182  ASP182      0.1424
     98  CG        36.2630   -9.4190   28.9510 C.2   182  ASP182      0.3668
     99  OD1       35.3720  -10.0390   29.6250 O.co2 182  ASP182     -0.2456
    100  OD2       36.4310   -9.5780   27.7190 O.co2 182  ASP182     -0.2456
    101  N         37.1490  -10.5920   31.6970 N.am  183  ALA183     -0.1966
    102  CA        37.7630  -11.8680   31.9810 C.3   183  ALA183      0.1728
    103  C         38.7490  -12.1310   30.8280 C.2   183  ALA183      0.2616
    104  O         38.5780  -11.5910   29.7290 O.2   183  ALA183     -0.2715
    105  CB        36.6960  -12.9500   31.9820 C.3   183  ALA183      0.0334
    106  N         39.7870  -12.9190   31.0780 N.am  184  CYS184     -0.1954
    107  CA        40.7170  -13.2900   30.0190 C.3   184  CYS184      0.1843
    108  C         41.1950  -14.7280   30.2520 C.2   184  CYS184      0.2625
    109  O         40.6810  -15.3870   31.1560 O.2   184  CYS184     -0.2714
    110  CB        41.8710  -12.2900   29.8670 C.3   184  CYS184      0.0997
    111  SG        42.7280  -12.4030   28.2690 S.3   184  CYS184     -0.0797
    112  N         42.0950  -15.2460   29.4060 N.am  185  LYS185     -0.1963
    113  CA        42.5790  -16.6340   29.4840 C.3   185  LYS185      0.1728
    114  C         42.9890  -17.1000   30.8940 C.2   185  LYS185      0.2616
    115  O         43.8640  -16.4910   31.5120 O.2   185  LYS185     -0.2715
    116  CB        43.7100  -16.8500   28.4750 C.3   185  LYS185      0.0311
    117  CG        43.2030  -16.6630   27.0510 C.3   185  LYS185      0.0038
    118  CD        44.3810  -16.4090   26.1300 C.3   185  LYS185      0.0206
    119  CE        43.9980  -16.4980   24.6700 C.3   185  LYS185      0.1093
    120  NZ        45.2240  -16.5520   23.8300 N.3   185  LYS185     -0.1314
    121  N         42.3310  -18.1510   31.3960 N.am  186  GLY186     -0.1955
    122  CA        42.5990  -18.6770   32.7400 C.3   186  GLY186      0.1869
    123  C         41.5690  -18.2620   33.7720 C.2   186  GLY186      0.2309
    124  O         41.5580  -18.7790   34.8990 O.2   186  GLY186     -0.2863
    125  N         38.2350  -18.5640   33.0840 N.3   188  SER188     -0.1217
    126  CA        37.0630  -19.4170   32.8290 C.3   188  SER188      0.1889
    127  C         36.7400  -20.3820   33.9690 C.2   188  SER188      0.2288
    128  O         37.6400  -20.8330   34.6770 O.2   188  SER188     -0.2866
    129  CB        37.1490  -20.1130   31.4750 C.3   188  SER188      0.2089
    130  OG        37.9920  -21.2540   31.5330 O.3   188  SER188     -0.2183
    131  N         32.2220  -17.6890   34.2320 N.3   206  THR206     -0.1203
    132  CA        33.0480  -17.2030   33.0990 C.3   206  THR206      0.1994
    133  C         33.1660  -18.3110   32.0660 C.2   206  THR206      0.2619
    134  O         33.6470  -19.3840   32.3840 O.2   206  THR206     -0.2717
    135  CB        34.3940  -16.7000   33.6230 C.3   206  THR206      0.1784
    136  OG1       34.1400  -15.6970   34.6170 O.3   206  THR206     -0.2211
    137  CG2       35.3080  -16.1810   32.4990 C.3   206  THR206      0.0376
    138  N         32.6940  -18.0540   30.8470 N.am  207  SER207     -0.1937
    139  CA        32.5940  -19.0730   29.8160 C.3   207  SER207      0.2055
    140  C         33.4330  -18.8050   28.5800 C.2   207  SER207      0.2643
    141  O         34.4180  -19.5130   28.3430 O.2   207  SER207     -0.2714
    142  CB        31.1190  -19.3130   29.4690 C.3   207  SER207      0.2130
    143  OG        30.9420  -20.3930   28.5680 O.3   207  SER207     -0.2179
    144  N         33.0510  -17.8100   27.7820 N.am  208  TRP208     -0.1959
    145  CA        33.7980  -17.5350   26.5480 C.3   208  TRP208      0.1771
    146  C         33.6530  -16.0750   26.1220 C.2   208  TRP208      0.2620
    147  O         32.9140  -15.3160   26.7350 O.2   208  TRP208     -0.2715
    148  CB        33.3360  -18.5230   25.4230 C.3   208  TRP208      0.0590
    149  CG        31.9010  -18.3390   25.0040 C.ar  208  TRP208      0.0006
    150  CD1       30.7940  -18.7940   25.6570 C.ar  208  TRP208      0.0946
    151  CD2       31.4200  -17.5770   23.8770 C.ar  208  TRP208      0.0152
    152  NE1       29.6580  -18.3890   24.9990 N.ar  208  TRP208     -0.2442
    153  CE2       30.0130  -17.6460   23.8980 C.ar  208  TRP208      0.0810
    154  CE3       32.0510  -16.8480   22.8430 C.ar  208  TRP208      0.0012
    155  CZ2       29.2140  -17.0230   22.9180 C.ar  208  TRP208      0.0191
    156  CZ3       31.2620  -16.2080   21.8920 C.ar  208  TRP208      0.0001
    157  CH2       29.8660  -16.3300   21.9130 C.ar  208  TRP208      0.0015
    158  N         34.3300  -15.7100   25.0520 N.am  209  GLY209     -0.1954
    159  CA        34.2320  -14.3760   24.4620 C.3   209  GLY209      0.1869
    160  C         35.1580  -14.2580   23.2680 C.2   209  GLY209      0.2309
    161  O         36.0290  -15.1180   23.0820 O.2   209  GLY209     -0.2863
    162  N         38.2360  -12.6910   22.1650 N.3   211  GLY211     -0.1210
    163  CA        39.4100  -12.0250   22.7340 C.3   211  GLY211      0.1956
    164  C         39.1760  -11.6030   24.1760 C.2   211  GLY211      0.2612
    165  O         38.3330  -12.1980   24.8610 O.2   211  GLY211     -0.2717
    166  N         39.8840  -10.5460   24.6410 N.am  212  CYS212     -0.1970
    167  CA        39.7480  -10.0680   26.0270 C.3   212  CYS212      0.1712
    168  C         39.6440   -8.5610   26.0730 C.2   212  CYS212      0.2296
    169  O         40.5610   -7.9060   25.5970 O.2   212  CYS212     -0.2864
    170  CB        40.9300  -10.5250   26.8740 C.3   212  CYS212      0.0983
    171  SG        41.2350  -12.3030   26.8510 S.3   212  CYS212     -0.0798
    172  N         31.6120   -8.1160   24.7610 N.3   218  PRO218     -0.2102
    173  CA        31.5310   -8.4580   26.1960 C.3   218  PRO218      0.1504
    174  C         31.8490   -9.9360   26.4680 C.2   218  PRO218      0.2576
    175  O         31.7330  -10.7630   25.5740 O.2   218  PRO218     -0.2718
    176  CB        30.0770   -8.1290   26.5610 C.3   218  PRO218      0.0282
    177  CG        29.3200   -8.2080   25.2760 C.3   218  PRO218      0.0208
    178  CD        30.2710   -7.8530   24.1830 C.3   218  PRO218      0.0893
    179  N         32.2670  -10.2420   27.6860 N.am  219  GLY219     -0.1943
    180  CA        32.5100  -11.6120   28.1180 C.3   219  GLY219      0.2014
    181  C         31.1650  -12.3100   28.1650 C.2   219  GLY219      0.2638
    182  O         30.1570  -11.6740   28.4780 O.2   219  GLY219     -0.2714
    183  N         31.1180  -13.6000   27.7800 N.am  220  VAL220     -0.1977
    184  CA        29.8740  -14.3890   27.8180 C.3   220  VAL220      0.1596
    185  C         30.0120  -15.3530   28.9760 C.2   220  VAL220      0.2287
    186  O         31.0750  -15.9710   29.1560 O.2   220  VAL220     -0.2864
    187  CB        29.5350  -15.0910   26.4730 C.3   220  VAL220      0.0276
    188  CG1       28.1400  -15.7410   26.5230 C.3   220  VAL220      0.0022
    189  CG2       29.6270  -14.1050   25.2940 C.3   220  VAL220      0.0022
@<TRIPOS>BOND
     1    63    62    1
     2   156   157   ar
     3   156   154   ar
     4   157   155   ar
     5   162   163    1
     6   163   164    1
     7    62    60   ar
     8    62    61   ar
     9   154   151   ar
    10   155   153   ar
    11   161   160    2
    12    60    58   ar
    13   160   159    1
    14    61    59   ar
    15   120   119    1
    16   151   153   ar
    17   151   149   ar
    18   153   152   ar
    19   164   166   am
    20   164   165    2
    21   178   172    1
    22   178   177    1
    23    58    57   ar
    24   159   158    1
    25   166   167    1
    26   119   118    1
    27   172   173    1
    28    59    57   ar
    29   152   150   ar
    30   149   148    1
    31   149   150   ar
    32   158   146   am
    33    57    56    1
    34   177   176    1
    35   189   187    1
    36   148   145    1
    37   175   174    2
    38   169   168    2
    39   167   168    1
    40   167   170    1
    41   146   145    1
    42   146   147    2
    43   118   117    1
    44   173   174    1
    45   173   176    1
    46   174   179   am
    47   187   188    1
    48   187   184    1
    49   145   144    1
    50    56    53    1
    51   171   170    1
    52   171   111    1
    53   117   116    1
    54    53    54    1
    55    53    52    1
    56   179   180    1
    57   100    98   ar
    58    54    55    2
    59   183   184    1
    60   183   181   am
    61   144   140   am
    62   184   185    1
    63    40    41    1
    64    40    37    1
    65   180   181    1
    66    73    71   ar
    67    73    74   ar
    68   181   182    2
    69   111   110    1
    70   141   140    2
    71   116   113    1
    72    71    69   ar
    73   143   142    1
    74   140   139    1
    75    75    74    1
    76    41    42   ar
    77    41    43   ar
    78    39    38    2
    79    37    38    1
    80    37    36    1
    81    98    99   ar
    82    98    97    1
    83   185   186    2
    84    74    72   ar
    85    42    44   ar
    86    43    45   ar
    87   112   113    1
    88   112   108   am
    89   142   139    1
    90   113   114    1
    91    38    46   am
    92    97    94    1
    93   104   103    2
    94    44    45   ar
    95   139   138    1
    96   110   107    1
    97    69    68    1
    98    69    70   ar
    99   107   108    1
   100   107   106    1
   101   108   109    2
   102    68    65    1
   103    72    70   ar
   104    11     9    1
   105   103   106   am
   106   103   102    1
   107   138   133   am
   108    46    47    1
   109   114   121   am
   110   114   115    2
   111    76    77    1
   112    94    93    1
   113    94    95    1
   114   121   122    1
   115     9    10    1
   116     9     8    2
   117   129   130    1
   118   129   126    1
   119    48    47    1
   120    48    49    2
   121    47    50    1
   122   101    95   am
   123   101   102    1
   124    95    96    2
   125    65    66    1
   126    65    64    1
   127    77    80    1
   128    77    78    1
   129   102   105    1
   130    66    67    2
   131   133   134    2
   132   133   132    1
   133     8     7    1
   134    80    81    1
   135   137   135    1
   136    28    27    1
   137   122   123    1
   138   126   125    1
   139   126   127    1
   140    83    84    1
   141    83    82    1
   142     7     6    1
   143    78    79    2
   144    78    85   am
   145   132   135    1
   146   132   131    1
   147    50    51    1
   148    81    82    1
   149    51    35    1
   150    35    34    1
   151    25    24    2
   152   135   136    1
   153    85    86    1
   154   123   124    2
   155    92    90    1
   156    27    29    1
   157    27    26    1
   158   127   128    2
   159    90    89    1
   160     6     5    1
   161    24    23    1
   162    24    30   am
   163    23    26    1
   164    23    22    1
   165    15    14    2
   166    86    89    1
   167    86    87    1
   168    34    31    1
   169    89    91    1
   170     5     2    1
   171    31    30    1
   172    31    32    1
   173    14    22   am
   174    14    13    1
   175    87    88    2
   176    19    21   ar
   177    19    17   ar
   178    21    20   ar
   179     2     3    1
   180     2     1    1
   181    32    33    2
   182     3     4    2
   183     3    12   am
   184    12    13    1
   185    17    16    1
   186    17    18   ar
   187    13    16    1
   188    20    18   ar
