@<TRIPOS>MOLECULE
tmp/4ty8A00.pdb
 95 91 0 0 0
SMALL
GASTEIGER

@<TRIPOS>ATOM
      1  N         10.5830  -22.2690  -23.4570 N.3   187  PRO187     -0.2116
      2  CA         9.7490  -22.2340  -24.6610 C.3   187  PRO187      0.1372
      3  C         10.5880  -22.2300  -25.8970 C.2   187  PRO187      0.2244
      4  O         10.3460  -23.0280  -26.7730 O.2   187  PRO187     -0.2868
      5  CB         9.0110  -20.9190  -24.5480 C.3   187  PRO187      0.0268
      6  CG         8.9330  -20.6590  -23.0760 C.3   187  PRO187      0.0207
      7  CD        10.1070  -21.3400  -22.4180 C.3   187  PRO187      0.0892
      8  N         12.1450  -25.5020  -26.4600 N.3   190  ARG190     -0.1245
      9  CA        11.1230  -26.4700  -26.8030 C.3   190  ARG190      0.1563
     10  C         10.7240  -26.3840  -28.2650 C.2   190  ARG190      0.2260
     11  O         10.4680  -27.4240  -28.8770 O.2   190  ARG190     -0.2867
     12  CB         9.8810  -26.3000  -25.9240 C.3   190  ARG190      0.0307
     13  CG         8.8220  -27.3380  -26.2430 C.3   190  ARG190      0.0489
     14  CD         7.5640  -27.1060  -25.4700 C.3   190  ARG190      0.2205
     15  NE         6.5210  -28.0700  -25.8200 N.pl3 190  ARG190     -0.0865
     16  CZ         6.2330  -29.1830  -25.1480 C.cat 190  ARG190      0.5346
     17  NH1        6.9140  -29.5520  -24.0740 N.pl3 190  ARG190      0.1354
     18  NH2        5.2420  -29.9470  -25.5750 N.pl3 190  ARG190      0.1354
     19  N          1.3970  -29.5100  -24.4290 N.3   356  CYS356     -0.1221
     20  CA         1.3160  -28.5510  -23.3230 C.3   356  CYS356      0.1808
     21  C          0.4620  -27.3390  -23.7220 C.2   356  CYS356      0.2602
     22  O          0.8300  -26.1940  -23.4840 O.2   356  CYS356     -0.2717
     23  CB         2.6880  -28.0870  -22.8460 C.3   356  CYS356      0.0970
     24  SG         3.7660  -29.3910  -22.2670 S.3   356  CYS356     -0.0800
     25  N         -0.6830  -27.5960  -24.3400 N.am  357  SER357     -0.1938
     26  CA        -1.6410  -26.5320  -24.6140 C.3   357  SER357      0.2055
     27  C         -1.0940  -25.4990  -25.6100 C.2   357  SER357      0.2643
     28  O         -1.6380  -24.3970  -25.7250 O.2   357  SER357     -0.2714
     29  CB        -2.0650  -25.8640  -23.2860 C.3   357  SER357      0.2130
     30  OG        -2.1640  -26.8130  -22.2340 O.3   357  SER357     -0.2179
     31  N         -0.0340  -25.8770  -26.3320 N.am  358  SER358     -0.1949
     32  CA         0.6440  -24.9890  -27.2780 C.3   358  SER358      0.1924
     33  C          0.9290  -25.7120  -28.5930 C.2   358  SER358      0.2314
     34  O          1.0960  -26.9270  -28.6230 O.2   358  SER358     -0.2863
     35  CB         1.9900  -24.4860  -26.7380 C.3   358  SER358      0.2116
     36  OG         1.9720  -24.3080  -25.3390 O.3   358  SER358     -0.2180
     37  N          6.2700  -20.7820  -29.8460 N.3   374  LEU374     -0.1245
     38  CA         5.1030  -21.4590  -29.2980 C.3   374  LEU374      0.1561
     39  C          3.9580  -20.4960  -29.0380 C.2   374  LEU374      0.2260
     40  O          4.1780  -19.4200  -28.5220 O.2   374  LEU374     -0.2867
     41  CB         5.4910  -22.1390  -27.9890 C.3   374  LEU374      0.0270
     42  CG         6.0480  -23.5760  -28.0530 C.3   374  LEU374      0.0019
     43  CD1        6.6490  -23.9280  -29.4100 C.3   374  LEU374      0.0001
     44  CD2        7.0640  -23.8170  -26.9440 C.3   374  LEU374      0.0001
     45  N         -0.8070  -20.3320  -28.5320 N.3   376  ARG376     -0.1245
     46  CA        -2.0380  -21.0290  -28.2290 C.3   376  ARG376      0.1563
     47  C         -3.2110  -20.1060  -28.4730 C.2   376  ARG376      0.2260
     48  O         -3.0460  -18.8730  -28.4970 O.2   376  ARG376     -0.2867
     49  CB        -2.0590  -21.5270  -26.7860 C.3   376  ARG376      0.0307
     50  CG        -1.6780  -20.4820  -25.7520 C.3   376  ARG376      0.0489
     51  CD        -1.8820  -20.9840  -24.3320 C.3   376  ARG376      0.2205
     52  NE        -3.3030  -21.2100  -24.1080 N.pl3 376  ARG376     -0.0865
     53  CZ        -3.8260  -22.0210  -23.1840 C.cat 376  ARG376      0.5346
     54  NH1       -3.0380  -22.6960  -22.3580 N.pl3 376  ARG376      0.1354
     55  NH2       -5.1540  -22.1450  -23.0780 N.pl3 376  ARG376      0.1354
     56  N          5.9510  -16.9730  -20.7080 N.3   404  MET404     -0.1230
     57  CA         5.8460  -18.1630  -21.5480 C.3   404  MET404      0.1702
     58  C          5.5790  -17.7920  -23.0110 C.2   404  MET404      0.2592
     59  O          6.1730  -18.3910  -23.9210 O.2   404  MET404     -0.2718
     60  CB         4.7710  -19.1300  -21.0370 C.3   404  MET404      0.0401
     61  CG         5.0440  -19.7540  -19.6670 C.3   404  MET404      0.0596
     62  SD         6.7830  -19.6830  -19.1600 S.3   404  MET404     -0.1393
     63  CE         7.4950  -21.0370  -20.0700 C.3   404  MET404      0.0692
     64  N          4.7470  -16.7760  -23.2400 N.am  405  TYR405     -0.1976
     65  CA         4.2830  -16.4660  -24.5880 C.3   405  TYR405      0.1639
     66  C          4.6900  -15.0970  -25.1410 C.2   405  TYR405      0.2290
     67  O          3.9840  -14.5500  -25.9950 O.2   405  TYR405     -0.2864
     68  CB         2.7770  -16.6340  -24.6230 C.3   405  TYR405      0.0560
     69  CG         2.3820  -18.0450  -24.3770 C.ar  405  TYR405     -0.0198
     70  CD1        2.5660  -19.0010  -25.3550 C.ar  405  TYR405     -0.0009
     71  CD2        1.8420  -18.4460  -23.1640 C.ar  405  TYR405     -0.0009
     72  CE1        2.2060  -20.3270  -25.1470 C.ar  405  TYR405      0.0417
     73  CE2        1.4750  -19.7700  -22.9440 C.ar  405  TYR405      0.0417
     74  CZ         1.6520  -20.7050  -23.9480 C.ar  405  TYR405      0.1957
     75  OH         1.3000  -22.0210  -23.7660 O.3   405  TYR405     -0.2866
     76  N          5.9870  -21.0690  -12.6770 N.3   437  ILE437     -0.1231
     77  CA         6.6330  -21.6340  -13.8630 C.3   437  ILE437      0.1692
     78  C          6.9670  -23.1100  -13.6800 C.2   437  ILE437      0.2592
     79  O          7.7530  -23.4730  -12.8040 O.2   437  ILE437     -0.2718
     80  CB         7.9280  -20.8960  -14.2480 C.3   437  ILE437      0.0266
     81  CG1        7.6200  -19.4750  -14.7020 C.3   437  ILE437      0.0019
     82  CG2        8.6670  -21.6390  -15.3600 C.3   437  ILE437      0.0020
     83  CD1        8.8710  -18.6440  -14.8680 C.3   437  ILE437      0.0001
     84  N          6.3850  -23.9420  -14.5510 N.am  438  TYR438     -0.1976
     85  CA         6.4050  -25.3960  -14.4010 C.3   438  TYR438      0.1639
     86  C          6.0800  -25.7850  -12.9540 C.2   438  TYR438      0.2290
     87  O          6.7200  -26.6580  -12.3750 O.2   438  TYR438     -0.2864
     88  CB         7.7700  -25.9710  -14.8520 C.3   438  TYR438      0.0560
     89  CG         8.0430  -25.9710  -16.3530 C.ar  438  TYR438     -0.0198
     90  CD1        6.9900  -25.9420  -17.2890 C.ar  438  TYR438     -0.0009
     91  CD2        9.3530  -26.0560  -16.8410 C.ar  438  TYR438     -0.0009
     92  CE1        7.2370  -25.9600  -18.6480 C.ar  438  TYR438      0.0417
     93  CE2        9.6000  -26.0780  -18.2070 C.ar  438  TYR438      0.0417
     94  CZ         8.5330  -26.0160  -19.1060 C.ar  438  TYR438      0.1957
     95  OH         8.7390  -26.0350  -20.4680 O.3   438  TYR438     -0.2866
@<TRIPOS>BOND
     1    37    38    1
     2    43    42    1
     3    38    39    1
     4    38    41    1
     5    39    40    2
     6    11    10    2
     7    34    33    2
     8    33    32    1
     9    45    46    1
    10    48    47    2
    11    47    46    1
    12    10     9    1
    13    46    49    1
    14    42    41    1
    15    42    44    1
    16    32    35    1
    17    32    31    1
    18     9     8    1
    19     9    12    1
    20    49    50    1
    21     4     3    2
    22    35    36    1
    23    31    27   am
    24    13    12    1
    25    13    14    1
    26    67    66    2
    27     3     2    1
    28    15    14    1
    29    15    16    2
    30    50    51    1
    31    28    27    2
    32    27    26    1
    33    18    16    1
    34    70    72   ar
    35    70    69   ar
    36    16    17    1
    37    72    74   ar
    38    66    65    1
    39     2     5    1
    40     2     1    1
    41    68    65    1
    42    68    69    1
    43    26    25    1
    44    26    29    1
    45    65    64    1
    46     5     6    1
    47    19    20    1
    48    69    71   ar
    49    25    21   am
    50    51    52    1
    51    52    53    2
    52    74    75    1
    53    74    73   ar
    54    59    58    2
    55    21    22    2
    56    21    20    1
    57     1     7    1
    58    20    23    1
    59    29    30    1
    60    64    58   am
    61    53    55    1
    62    53    54    1
    63    71    73   ar
    64     6     7    1
    65    58    57    1
    66    23    24    1
    67    57    60    1
    68    57    56    1
    69    60    61    1
    70    95    94    1
    71    63    62    1
    72    61    62    1
    73    94    92   ar
    74    94    93   ar
    75    92    90   ar
    76    93    91   ar
    77    90    89   ar
    78    91    89   ar
    79    89    88    1
    80    82    80    1
    81    83    81    1
    82    88    85    1
    83    81    80    1
    84    84    85    1
    85    84    78   am
    86    85    86    1
    87    80    77    1
    88    77    78    1
    89    77    76    1
    90    78    79    2
    91    86    87    2
