@<TRIPOS>MOLECULE
tmp/4tyaC00.pdb
 99 93 0 0 0
SMALL
GASTEIGER

@<TRIPOS>ATOM
      1  N         10.4060   20.2460  106.4600 N.3   183  PHE183     -0.1241
      2  CA        10.6350   21.3600  107.4100 C.3   183  PHE183      0.1605
      3  C         12.1100   21.8260  107.4550 C.2   183  PHE183      0.2264
      4  O         12.4660   22.7010  108.2270 O.2   183  PHE183     -0.2867
      5  CB        10.2050   20.9730  108.8550 C.3   183  PHE183      0.0534
      6  CG         8.7390   20.5480  109.0210 C.ar  183  PHE183     -0.0203
      7  CD1        7.7020   21.4650  108.9510 C.ar  183  PHE183     -0.0042
      8  CD2        8.4080   19.2400  109.3450 C.ar  183  PHE183     -0.0042
      9  CE1        6.3860   21.0750  109.1440 C.ar  183  PHE183     -0.0003
     10  CE2        7.0910   18.8600  109.5330 C.ar  183  PHE183     -0.0003
     11  CZ         6.0830   19.7790  109.4340 C.ar  183  PHE183     -0.0000
     12  N         10.2590   28.5250  102.4550 N.3   187  PRO187     -0.2116
     13  CA         9.4200   28.5510  101.2760 C.3   187  PRO187      0.1372
     14  C         10.2670   28.5570  100.0410 C.2   187  PRO187      0.2244
     15  O         10.0280   27.7540   99.1560 O.2   187  PRO187     -0.2868
     16  CB         8.6730   29.8690  101.4080 C.3   187  PRO187      0.0268
     17  CG         8.5370   30.0550  102.8790 C.3   187  PRO187      0.0207
     18  CD         9.7950   29.4760  103.4810 C.3   187  PRO187      0.0892
     19  N         12.2100   25.3400   99.3540 N.3   190  ARG190     -0.1245
     20  CA        11.2150   24.3190   99.0270 C.3   190  ARG190      0.1563
     21  C         10.7360   24.4620   97.6020 C.2   190  ARG190      0.2260
     22  O         10.4770   23.4740   96.9430 O.2   190  ARG190     -0.2867
     23  CB        10.0130   24.4220   99.9700 C.3   190  ARG190      0.0307
     24  CG         8.8370   23.5290   99.6160 C.3   190  ARG190      0.0489
     25  CD         7.5550   24.0440  100.2240 C.3   190  ARG190      0.2205
     26  NE         6.4710   23.0910  100.0150 N.pl3 190  ARG190     -0.0865
     27  CZ         6.3010   21.9490  100.6920 C.cat 190  ARG190      0.5346
     28  NH1        7.1390   21.5550  101.6570 N.pl3 190  ARG190      0.1354
     29  NH2        5.2650   21.1840  100.3950 N.pl3 190  ARG190      0.1354
     30  N          5.5400   16.8530  105.0700 N.3   306  ASN306     -0.1240
     31  CA         5.4300   17.6990  106.2700 C.3   306  ASN306      0.1653
     32  C          4.2790   17.1740  107.1110 C.2   306  ASN306      0.2266
     33  O          3.1310   17.5090  106.8550 O.2   306  ASN306     -0.2867
     34  CB         5.0980   19.1560  105.9330 C.3   306  ASN306      0.1155
     35  CG         6.1500   19.8350  105.0940 C.2   306  ASN306      0.2627
     36  OD1        6.4940   19.3560  104.0310 O.2   306  ASN306     -0.2716
     37  ND2        6.6150   20.9980  105.5400 N.am  306  ASN306     -0.0877
     38  N          1.1770   21.3850  101.2900 N.3   356  CYS356     -0.1235
     39  CA         1.0810   22.3300  102.3920 C.3   356  CYS356      0.1677
     40  C          0.2420   23.5460  101.9540 C.2   356  CYS356      0.2270
     41  O          0.6990   24.6850  101.9830 O.2   356  CYS356     -0.2867
     42  CB         2.4650   22.7370  102.8800 C.3   356  CYS356      0.0956
     43  SG         3.5050   21.3850  103.5020 S.3   356  CYS356     -0.0801
     44  N         -0.1970   25.0180   99.4500 N.3   358  SER358     -0.1217
     45  CA         0.5730   25.9480   98.6620 C.3   358  SER358      0.1889
     46  C          0.9210   25.3010   97.3310 C.2   358  SER358      0.2288
     47  O          0.9700   24.0750   97.2340 O.2   358  SER358     -0.2866
     48  CB         1.8570   26.3390   99.3950 C.3   358  SER358      0.2089
     49  OG         1.5840   26.7740  100.7160 O.3   358  SER358     -0.2183
     50  N          6.5420   30.5620   95.8850 N.3   374  LEU374     -0.1245
     51  CA         5.5200   29.7040   96.4310 C.3   374  LEU374      0.1561
     52  C          4.2910   30.5080   96.8420 C.2   374  LEU374      0.2260
     53  O          4.4270   31.5040   97.5390 O.2   374  LEU374     -0.2867
     54  CB         6.1370   29.0490   97.6510 C.3   374  LEU374      0.0270
     55  CG         5.3990   27.8540   98.2090 C.3   374  LEU374      0.0019
     56  CD1        5.5620   26.6370   97.3120 C.3   374  LEU374      0.0001
     57  CD2        5.9380   27.5950   99.5940 C.3   374  LEU374      0.0001
     58  N          6.2960   34.0910  105.1870 N.3   404  MET404     -0.1230
     59  CA         6.1380   32.9460  104.2880 C.3   404  MET404      0.1702
     60  C          5.9170   33.3730  102.8290 C.2   404  MET404      0.2592
     61  O          6.5750   32.8630  101.9360 O.2   404  MET404     -0.2718
     62  CB         4.9630   32.0650  104.7380 C.3   404  MET404      0.0401
     63  CG         5.0810   31.4770  106.1390 C.3   404  MET404      0.0596
     64  SD         6.7070   30.7560  106.3970 S.3   404  MET404     -0.1393
     65  CE         6.3840   29.1540  105.6700 C.3   404  MET404      0.0692
     66  N          5.0250   34.3380  102.6090 N.am  405  TYR405     -0.1976
     67  CA         4.4940   34.6200  101.2860 C.3   405  TYR405      0.1639
     68  C          4.9020   36.0010  100.7480 C.2   405  TYR405      0.2290
     69  O          4.2390   36.5750   99.8850 O.2   405  TYR405     -0.2864
     70  CB         2.9700   34.4360  101.3100 C.3   405  TYR405      0.0560
     71  CG         2.5820   33.0230  101.6100 C.ar  405  TYR405     -0.0198
     72  CD1        2.7410   32.0370  100.6550 C.ar  405  TYR405     -0.0009
     73  CD2        2.0890   32.6580  102.8400 C.ar  405  TYR405     -0.0009
     74  CE1        2.4020   30.7100  100.9020 C.ar  405  TYR405      0.0417
     75  CE2        1.7490   31.3350  103.1150 C.ar  405  TYR405      0.0417
     76  CZ         1.9070   30.3530  102.1350 C.ar  405  TYR405      0.1957
     77  OH         1.5830   29.0320  102.3640 O.3   405  TYR405     -0.2866
     78  N          6.3310   27.1780  111.3640 N.3   438  TYR438     -0.1227
     79  CA         6.3900   25.7100  111.4310 C.3   438  TYR438      0.1736
     80  C          6.0290   25.1810  112.8380 C.2   438  TYR438      0.2596
     81  O          6.6360   24.2230  113.3200 O.2   438  TYR438     -0.2718
     82  CB         7.7680   25.1660  110.9590 C.3   438  TYR438      0.0548
     83  CG         8.0540   25.1910  109.4620 C.ar  438  TYR438     -0.0200
     84  CD1        7.0660   25.5090  108.5350 C.ar  438  TYR438     -0.0009
     85  CD2        9.3190   24.8460  108.9760 C.ar  438  TYR438     -0.0009
     86  CE1        7.3380   25.5330  107.1680 C.ar  438  TYR438      0.0417
     87  CE2        9.5930   24.8510  107.6140 C.ar  438  TYR438      0.0417
     88  CZ         8.6000   25.2060  106.7050 C.ar  438  TYR438      0.1957
     89  OH         8.8320   25.2120  105.3340 O.3   438  TYR438     -0.2866
     90  N          5.0500   25.8110  113.4920 N.am  439  GLY439     -0.1957
     91  CA         4.5860   25.3620  114.8130 C.3   439  GLY439      0.1869
     92  C          5.4080   25.8480  115.9890 C.2   439  GLY439      0.2309
     93  O          5.0300   25.6370  117.1340 O.2   439  GLY439     -0.2863
     94  N          4.7600   21.7340  115.3560 N.3   538  SER538     -0.1217
     95  CA         3.3470   21.9970  115.5700 C.3   538  SER538      0.1889
     96  C          2.8190   21.1970  116.7380 C.2   538  SER538      0.2288
     97  O          3.2430   20.0560  116.9900 O.2   538  SER538     -0.2866
     98  CB         2.5150   21.7450  114.3170 C.3   538  SER538      0.2089
     99  OG         2.1450   22.9800  113.7200 O.3   538  SER538     -0.2183
@<TRIPOS>BOND
     1    50    51    1
     2    51    52    1
     3    51    54    1
     4    52    53    2
     5    22    21    2
     6    47    46    2
     7    56    55    1
     8    46    45    1
     9    21    20    1
    10    54    55    1
    11    55    57    1
    12    45    48    1
    13    45    44    1
    14    20    19    1
    15    20    23    1
    16    15    14    2
    17    48    49    1
    18    24    23    1
    19    24    25    1
    20    69    68    2
    21    26    25    1
    22    26    27    2
    23    14    13    1
    24    29    27    1
    25    72    74   ar
    26    72    71   ar
    27    27    28    1
    28    68    67    1
    29    74    76   ar
    30    13    16    1
    31    13    12    1
    32    67    70    1
    33    67    66    1
    34    38    39    1
    35    70    71    1
    36    16    17    1
    37    71    73   ar
    38    61    60    2
    39    40    41    2
    40    40    39    1
    41    76    77    1
    42    76    75   ar
    43    39    42    1
    44    12    18    1
    45    66    60   am
    46    60    59    1
    47    73    75   ar
    48    17    18    1
    49    42    43    1
    50    36    35    2
    51    59    62    1
    52    59    58    1
    53    62    63    1
    54    30    31    1
    55    35    37   am
    56    35    34    1
    57    89    88    1
    58    65    64    1
    59    34    31    1
    60    63    64    1
    61    31    32    1
    62     1     2    1
    63    88    86   ar
    64    88    87   ar
    65    33    32    2
    66    86    84   ar
    67     2     3    1
    68     2     5    1
    69     3     4    2
    70    87    85   ar
    71    84    83   ar
    72     5     6    1
    73     7     6   ar
    74     7     9   ar
    75    85    83   ar
    76     6     8   ar
    77     9    11   ar
    78     8    10   ar
    79    11    10   ar
    80    83    82    1
    81    82    79    1
    82    78    79    1
    83    79    80    1
    84    80    81    2
    85    80    90   am
    86    90    91    1
    87    99    98    1
    88    98    95    1
    89    91    92    1
    90    94    95    1
    91    95    96    1
    92    92    93    2
    93    96    97    2
