@<TRIPOS>MOLECULE
tmp/4tybB00.pdb
 128 121 0 0 0
SMALL
GASTEIGER

@<TRIPOS>ATOM
      1  N         -8.7420  -71.1290  -19.1810 N.3   183  PHE183     -0.1241
      2  CA        -9.0350  -72.2460  -18.2860 C.3   183  PHE183      0.1605
      3  C        -10.5080  -72.6580  -18.2620 C.2   183  PHE183      0.2264
      4  O        -10.8710  -73.5820  -17.5590 O.2   183  PHE183     -0.2867
      5  CB        -8.5480  -71.9300  -16.8700 C.3   183  PHE183      0.0534
      6  CG        -7.0560  -71.8790  -16.7420 C.ar  183  PHE183     -0.0203
      7  CD1       -6.2850  -73.0250  -16.9460 C.ar  183  PHE183     -0.0042
      8  CD2       -6.4030  -70.6950  -16.3910 C.ar  183  PHE183     -0.0042
      9  CE1       -4.8960  -72.9900  -16.8160 C.ar  183  PHE183     -0.0003
     10  CE2       -5.0130  -70.6590  -16.2720 C.ar  183  PHE183     -0.0003
     11  CZ        -4.2650  -71.8070  -16.4890 C.ar  183  PHE183     -0.0000
     12  N         -9.6440  -79.6910  -23.2460 N.3   187  PRO187     -0.2116
     13  CA        -8.6930  -79.6760  -24.3570 C.3   187  PRO187      0.1372
     14  C         -9.3970  -79.6750  -25.6990 C.2   187  PRO187      0.2244
     15  O         -8.9440  -79.0120  -26.6100 O.2   187  PRO187     -0.2868
     16  CB        -7.9010  -80.9630  -24.1630 C.3   187  PRO187      0.0268
     17  CG        -8.0530  -81.2760  -22.7180 C.3   187  PRO187      0.0207
     18  CD        -9.4270  -80.8290  -22.3390 C.3   187  PRO187      0.0892
     19  N        -10.6480  -76.2010  -26.2980 N.3   190  ARG190     -0.1245
     20  CA        -9.5590  -75.2720  -26.5970 C.3   190  ARG190      0.1563
     21  C         -9.2680  -75.2880  -28.0900 C.2   190  ARG190      0.2260
     22  O         -9.2250  -74.2450  -28.7340 O.2   190  ARG190     -0.2867
     23  CB        -8.3000  -75.6390  -25.8390 C.3   190  ARG190      0.0307
     24  CG        -7.2670  -74.5360  -25.8410 C.3   190  ARG190      0.0489
     25  CD        -5.9170  -75.0240  -25.3490 C.3   190  ARG190      0.2205
     26  NE        -4.8930  -74.0170  -25.6000 N.pl3 190  ARG190     -0.0865
     27  CZ        -4.6650  -72.9650  -24.8310 C.cat 190  ARG190      0.5346
     28  NH1       -5.3760  -72.7720  -23.7230 N.pl3 190  ARG190      0.1354
     29  NH2       -3.7090  -72.1100  -25.1710 N.pl3 190  ARG190      0.1354
     30  N         -3.4710  -68.1590  -20.7050 N.3   306  ASN306     -0.1240
     31  CA        -3.4390  -69.1090  -19.6100 C.3   306  ASN306      0.1653
     32  C         -2.2770  -68.7240  -18.7290 C.2   306  ASN306      0.2266
     33  O         -1.1710  -69.2140  -18.8800 O.2   306  ASN306     -0.2867
     34  CB        -3.2980  -70.5470  -20.1050 C.3   306  ASN306      0.1155
     35  CG        -4.4460  -70.9740  -20.9870 C.2   306  ASN306      0.2627
     36  OD1       -4.5130  -70.6330  -22.1770 O.2   306  ASN306     -0.2716
     37  ND2       -5.3510  -71.7520  -20.4150 N.am  306  ASN306     -0.0877
     38  N          0.6700  -73.1690  -24.3860 N.3   356  CYS356     -0.1221
     39  CA         0.5530  -74.1270  -23.2810 C.3   356  CYS356      0.1808
     40  C          1.1850  -75.3880  -23.7960 C.2   356  CYS356      0.2602
     41  O          0.5430  -76.4160  -23.9220 O.2   356  CYS356     -0.2717
     42  CB        -0.9010  -74.3720  -22.8890 C.3   356  CYS356      0.0970
     43  SG        -1.8270  -72.8410  -22.6890 S.3   356  CYS356     -0.0800
     44  N          2.4350  -75.2410  -24.2010 N.am  357  SER357     -0.1938
     45  CA         3.2520  -76.3480  -24.6760 C.3   357  SER357      0.2055
     46  C          2.5750  -77.2820  -25.6960 C.2   357  SER357      0.2643
     47  O          3.0560  -78.3750  -25.9340 O.2   357  SER357     -0.2714
     48  CB         3.7460  -77.1230  -23.4580 C.3   357  SER357      0.2130
     49  OG         4.0750  -76.2260  -22.4050 O.3   357  SER357     -0.2179
     50  N          1.4910  -76.8370  -26.3260 N.am  358  SER358     -0.1949
     51  CA         0.6900  -77.7140  -27.1860 C.3   358  SER358      0.1924
     52  C          0.4050  -77.0630  -28.5270 C.2   358  SER358      0.2314
     53  O          0.5830  -75.8540  -28.6890 O.2   358  SER358     -0.2863
     54  CB        -0.6540  -78.0620  -26.5190 C.3   358  SER358      0.2116
     55  OG        -0.5460  -78.1100  -25.1050 O.3   358  SER358     -0.2180
     56  N         -5.6250  -81.5760  -29.9460 N.3   374  LEU374     -0.1245
     57  CA        -4.4350  -80.9410  -29.4260 C.3   374  LEU374      0.1561
     58  C         -3.3590  -81.9860  -29.2000 C.2   374  LEU374      0.2260
     59  O         -3.6250  -83.0390  -28.6340 O.2   374  LEU374     -0.2867
     60  CB        -4.7820  -80.2850  -28.0960 C.3   374  LEU374      0.0270
     61  CG        -3.9220  -79.0950  -27.7030 C.3   374  LEU374      0.0019
     62  CD1       -4.2550  -77.8850  -28.5560 C.3   374  LEU374      0.0001
     63  CD2       -4.1480  -78.8070  -26.2310 C.3   374  LEU374      0.0001
     64  N          1.2900  -82.4820  -28.3950 N.3   376  ARG376     -0.1245
     65  CA         2.5580  -81.8020  -28.1280 C.3   376  ARG376      0.1563
     66  C          3.7540  -82.6580  -28.4830 C.2   376  ARG376      0.2260
     67  O          3.5920  -83.7380  -29.0320 O.2   376  ARG376     -0.2867
     68  CB         2.6370  -81.3490  -26.6790 C.3   376  ARG376      0.0307
     69  CG         2.4180  -82.4510  -25.6730 C.3   376  ARG376      0.0489
     70  CD         2.7580  -81.9300  -24.2990 C.3   376  ARG376      0.2205
     71  NE         4.1980  -81.8780  -24.1280 N.pl3 376  ARG376     -0.0865
     72  CZ         4.8420  -81.0140  -23.3540 C.cat 376  ARG376      0.5346
     73  NH1        4.1960  -80.0890  -22.6680 N.pl3 376  ARG376      0.1354
     74  NH2        6.1600  -81.0840  -23.2600 N.pl3 376  ARG376      0.1354
     75  N         -2.5350  -87.6370  -16.1590 N.3   400  GLY400     -0.1210
     76  CA        -2.9850  -86.3150  -16.5780 C.3   400  GLY400      0.1956
     77  C         -2.7880  -86.1450  -18.0590 C.2   400  GLY400      0.2611
     78  O         -3.6340  -85.5970  -18.7550 O.2   400  GLY400     -0.2717
     79  N         -1.6720  -86.6600  -18.5490 N.am  401  ASN401     -0.1974
     80  CA        -1.3610  -86.5740  -19.9440 C.3   401  ASN401      0.1688
     81  C         -2.2470  -87.4900  -20.7890 C.2   401  ASN401      0.2292
     82  O         -2.6910  -87.0860  -21.8640 O.2   401  ASN401     -0.2864
     83  CB         0.1240  -86.8560  -20.1610 C.3   401  ASN401      0.1181
     84  CG         1.0160  -85.6260  -19.9350 C.2   401  ASN401      0.2629
     85  OD1        0.5710  -84.4690  -19.9120 O.2   401  ASN401     -0.2716
     86  ND2        2.3010  -85.8830  -19.7900 N.am  401  ASN401     -0.0877
     87  N         -5.5010  -85.3250  -20.6950 N.3   404  MET404     -0.1230
     88  CA        -5.4030  -84.1520  -21.5560 C.3   404  MET404      0.1702
     89  C         -5.0250  -84.4710  -23.0170 C.2   404  MET404      0.2592
     90  O         -5.3810  -83.7020  -23.9060 O.2   404  MET404     -0.2718
     91  CB        -4.3880  -83.1470  -20.9930 C.3   404  MET404      0.0401
     92  CG        -4.6960  -82.6370  -19.6020 C.3   404  MET404      0.0596
     93  SD        -6.1760  -81.6060  -19.5140 S.3   404  MET404     -0.1393
     94  CE        -5.6650  -80.2560  -20.5610 C.3   404  MET404      0.0692
     95  N         -4.3230  -85.5870  -23.2670 N.am  405  TYR405     -0.1976
     96  CA        -3.9100  -85.9660  -24.6380 C.3   405  TYR405      0.1639
     97  C         -4.4280  -87.3230  -25.1470 C.2   405  TYR405      0.2290
     98  O         -3.8530  -87.9200  -26.0690 O.2   405  TYR405     -0.2864
     99  CB        -2.3960  -85.8970  -24.7800 C.3   405  TYR405      0.0560
    100  CG        -1.8570  -84.5300  -24.5350 C.ar  405  TYR405     -0.0198
    101  CD1       -1.8770  -83.5720  -25.5380 C.ar  405  TYR405     -0.0009
    102  CD2       -1.3200  -84.1800  -23.3080 C.ar  405  TYR405     -0.0009
    103  CE1       -1.3770  -82.2920  -25.3140 C.ar  405  TYR405      0.0417
    104  CE2       -0.8180  -82.9060  -23.0790 C.ar  405  TYR405      0.0417
    105  CZ        -0.8580  -81.9720  -24.0800 C.ar  405  TYR405      0.1957
    106  OH        -0.3740  -80.7200  -23.8730 O.3   405  TYR405     -0.2866
    107  N         -5.2020  -78.3790  -14.5830 N.3   438  TYR438     -0.1227
    108  CA        -5.1830  -76.9330  -14.3690 C.3   438  TYR438      0.1736
    109  C         -4.7990  -76.6200  -12.9280 C.2   438  TYR438      0.2596
    110  O         -5.3830  -75.7610  -12.2880 O.2   438  TYR438     -0.2718
    111  CB        -6.5180  -76.2840  -14.7630 C.3   438  TYR438      0.0548
    112  CG        -6.8410  -76.3170  -16.2450 C.ar  438  TYR438     -0.0200
    113  CD1       -5.8690  -76.6000  -17.1870 C.ar  438  TYR438     -0.0009
    114  CD2       -8.1250  -76.0020  -16.7080 C.ar  438  TYR438     -0.0009
    115  CE1       -6.1560  -76.6060  -18.5370 C.ar  438  TYR438      0.0417
    116  CE2       -8.4200  -75.9930  -18.0690 C.ar  438  TYR438      0.0417
    117  CZ        -7.4260  -76.3070  -18.9880 C.ar  438  TYR438      0.1957
    118  OH        -7.6600  -76.3240  -20.3620 O.3   438  TYR438     -0.2866
    119  N         -3.8100  -77.3560  -12.4340 N.am  439  GLY439     -0.1957
    120  CA        -3.1850  -77.0880  -11.1530 C.3   439  GLY439      0.1869
    121  C         -3.9300  -77.6580   -9.9730 C.2   439  GLY439      0.2309
    122  O         -3.4700  -77.5290   -8.8360 O.2   439  GLY439     -0.2863
    123  N         -2.9960  -73.4310  -10.4240 N.3   538  SER538     -0.1217
    124  CA        -1.6030  -73.8220  -10.1740 C.3   538  SER538      0.1889
    125  C         -1.0690  -72.8750   -9.1160 C.2   538  SER538      0.2288
    126  O         -1.3720  -71.6760   -9.1360 O.2   538  SER538     -0.2866
    127  CB        -0.7580  -73.7880  -11.4490 C.3   538  SER538      0.2089
    128  OG        -1.5100  -74.3240  -12.5370 O.3   538  SER538     -0.2183
@<TRIPOS>BOND
     1    56    57    1
     2    57    58    1
     3    57    60    1
     4    58    59    2
     5    67    66    2
     6    22    21    2
     7    53    52    2
     8    62    61    1
     9    52    51    1
    10    66    65    1
    11    64    65    1
    12    65    68    1
    13    60    61    1
    14    21    20    1
    15    61    63    1
    16    51    54    1
    17    51    50    1
    18    68    69    1
    19    15    14    2
    20    20    19    1
    21    20    23    1
    22    54    55    1
    23    50    46   am
    24    98    97    2
    25    47    46    2
    26    24    23    1
    27    24    25    1
    28    14    13    1
    29    46    45    1
    30    69    70    1
    31    26    25    1
    32    26    27    2
    33   101   103   ar
    34   101   100   ar
    35   103   105   ar
    36    29    27    1
    37    97    96    1
    38    27    28    1
    39    99    96    1
    40    99   100    1
    41    45    44    1
    42    45    48    1
    43    96    95    1
    44   100   102   ar
    45    38    39    1
    46    13    16    1
    47    13    12    1
    48    70    71    1
    49    44    40   am
    50    16    17    1
    51    71    72    2
    52   105   106    1
    53   105   104   ar
    54    41    40    2
    55    90    89    2
    56    40    39    1
    57    48    49    1
    58    72    74    1
    59    72    73    1
    60   102   104   ar
    61    39    42    1
    62    95    89   am
    63    12    18    1
    64    89    88    1
    65    42    43    1
    66    17    18    1
    67    36    35    2
    68    82    81    2
    69    88    91    1
    70    88    87    1
    71    91    92    1
    72    35    37   am
    73    35    34    1
    74    81    80    1
    75    30    31    1
    76    94    93    1
    77   118   117    1
    78    83    80    1
    79    83    84    1
    80    34    31    1
    81    80    79    1
    82    84    85    2
    83    84    86   am
    84    31    32    1
    85    92    93    1
    86     1     2    1
    87   117   115   ar
    88   117   116   ar
    89    33    32    2
    90    78    77    2
    91    79    77   am
    92   115   113   ar
    93     2     3    1
    94     2     5    1
    95     3     4    2
    96   116   114   ar
    97    77    76    1
    98   113   112   ar
    99     7     9   ar
   100     7     6   ar
   101     5     6    1
   102     9    11   ar
   103     6     8   ar
   104   114   112   ar
   105    76    75    1
   106    11    10   ar
   107     8    10   ar
   108   112   111    1
   109   111   108    1
   110   107   108    1
   111   108   109    1
   112   109   119   am
   113   109   110    2
   114   128   127    1
   115   119   120    1
   116   127   124    1
   117   120   121    1
   118   123   124    1
   119   124   125    1
   120   121   122    2
   121   126   125    2
