@<TRIPOS>MOLECULE
tmp/4tydL01.pdb
 170 166 0 0 0
SMALL
GASTEIGER

@<TRIPOS>ATOM
      1  N         28.7020   44.9240   39.2140 N.3    41  GLN41      -0.1231
      2  CA        27.9340   43.7010   39.3960 C.3    41  GLN41       0.1698
      3  C         26.9630   43.7680   40.5590 C.2    41  GLN41       0.2593
      4  O         27.1200   44.5750   41.4780 O.2    41  GLN41      -0.2718
      5  CB        28.8590   42.4950   39.5630 C.3    41  GLN41       0.0381
      6  CG        29.8560   42.5980   40.6920 C.3    41  GLN41       0.0905
      7  CD        30.5990   41.2950   40.9150 C.2    41  GLN41       0.2608
      8  OE1       30.5960   40.4070   40.0520 O.2    41  GLN41      -0.2717
      9  NE2       31.2300   41.1660   42.0820 N.am   41  GLN41      -0.0878
     10  N         25.9680   42.8850   40.5060 N.am   42  SER42      -0.1938
     11  CA        24.8210   42.9380   41.4020 C.3    42  SER42       0.2055
     12  C         24.4750   41.5690   41.9720 C.2    42  SER42       0.2643
     13  O         24.5980   40.5450   41.3040 O.2    42  SER42      -0.2714
     14  CB        23.6080   43.5100   40.6650 C.3    42  SER42       0.2130
     15  OG        22.4830   43.5970   41.5200 O.3    42  SER42      -0.2179
     16  N         24.0270   41.5840   43.2200 N.am   43  PHE43      -0.1973
     17  CA        23.6740   40.3810   43.9410 C.3    43  PHE43       0.1639
     18  C         22.5900   40.7370   44.9700 C.2    43  PHE43       0.2290
     19  O         21.8430   41.7000   44.7650 O.2    43  PHE43      -0.2864
     20  CB        24.9340   39.7630   44.5530 C.3    43  PHE43       0.0560
     21  CG        25.8550   40.7610   45.1930 C.ar   43  PHE43      -0.0200
     22  CD1       26.6700   41.5810   44.4150 C.ar   43  PHE43      -0.0042
     23  CD2       25.9250   40.8680   46.5740 C.ar   43  PHE43      -0.0042
     24  CE1       27.5210   42.5020   45.0020 C.ar   43  PHE43      -0.0003
     25  CE2       26.7820   41.7780   47.1700 C.ar   43  PHE43      -0.0003
     26  CZ        27.5810   42.5990   46.3820 C.ar   43  PHE43      -0.0000
     27  N         31.0290   37.4670   49.9590 N.3    56  TYR56      -0.1227
     28  CA        32.2880   38.1580   49.7420 C.3    56  TYR56       0.1736
     29  C         32.5850   38.2220   48.2620 C.2    56  TYR56       0.2595
     30  O         33.0480   39.2470   47.7660 O.2    56  TYR56      -0.2718
     31  CB        33.4420   37.4700   50.4740 C.3    56  TYR56       0.0548
     32  CG        34.7600   38.2100   50.3620 C.ar   56  TYR56      -0.0200
     33  CD1       35.1630   39.1220   51.3390 C.ar   56  TYR56      -0.0009
     34  CD2       35.6000   38.0050   49.2750 C.ar   56  TYR56      -0.0009
     35  CE1       36.3650   39.8000   51.2300 C.ar   56  TYR56       0.0417
     36  CE2       36.8040   38.6810   49.1620 C.ar   56  TYR56       0.0417
     37  CZ        37.1780   39.5720   50.1400 C.ar   56  TYR56       0.1957
     38  OH        38.3700   40.2330   50.0150 O.3    56  TYR56      -0.2866
     39  N         32.2960   37.1390   47.5470 N.am   57  HIS57      -0.1961
     40  CA        32.6120   37.0740   46.1220 C.3    57  HIS57       0.1787
     41  C         31.8500   38.1170   45.2970 C.2    57  HIS57       0.2620
     42  O         32.1280   38.2840   44.1110 O.2    57  HIS57      -0.2715
     43  CB        32.3950   35.6540   45.5640 C.3    57  HIS57       0.0785
     44  CG        30.9890   35.3600   45.1250 C.ar   57  HIS57       0.0821
     45  ND1       30.0810   34.6950   45.9220 N.ar   57  HIS57      -0.2267
     46  CD2       30.3510   35.6060   43.9560 C.ar   57  HIS57       0.1154
     47  CE1       28.9410   34.5610   45.2680 C.ar   57  HIS57       0.1986
     48  NE2       29.0790   35.1040   44.0730 N.ar   57  HIS57      -0.2212
     49  N         30.8850   38.7980   45.9180 N.am   58  GLY58      -0.1954
     50  CA        30.1830   39.9120   45.2820 C.3    58  GLY58       0.1869
     51  C         30.5610   41.2770   45.8360 C.2    58  GLY58       0.2309
     52  O         30.7910   42.2230   45.0730 O.2    58  GLY58      -0.2863
     53  N         36.2830   35.4510   54.6460 N.3    78  VAL78      -0.1231
     54  CA        36.6390   35.1040   53.2750 C.3    78  VAL78       0.1692
     55  C         36.5280   33.6020   53.0680 C.2    78  VAL78       0.2592
     56  O         36.1100   33.1450   52.0040 O.2    78  VAL78      -0.2718
     57  CB        38.0840   35.5650   52.9320 C.3    78  VAL78       0.0266
     58  CG1       38.4640   35.1760   51.5000 C.3    78  VAL78       0.0020
     59  CG2       38.2240   37.0690   53.1230 C.3    78  VAL78       0.0020
     60  N         36.8950   32.8430   54.0950 N.am   79  ASP79      -0.1960
     61  CA        36.8920   31.3920   54.0120 C.3    79  ASP79       0.1840
     62  C         35.4740   30.8890   53.7630 C.2    79  ASP79       0.2622
     63  O         35.2820   29.9330   53.0180 O.2    79  ASP79      -0.2715
     64  CB        37.4780   30.7700   55.2870 C.3    79  ASP79       0.1450
     65  CG        38.8680   31.3150   55.6310 C.2    79  ASP79       0.3671
     66  OD1       39.5700   31.8110   54.7240 O.co2  79  ASP79      -0.2456
     67  OD2       39.2570   31.2530   56.8140 O.co2  79  ASP79      -0.2456
     68  N         34.4870   31.5570   54.3580 N.am   80  GLN80      -0.1963
     69  CA        33.0730   31.1930   54.1860 C.3    80  GLN80       0.1733
     70  C         32.3090   32.1040   53.2100 C.2    80  GLN80       0.2616
     71  O         31.0810   32.0560   53.1630 O.2    80  GLN80      -0.2715
     72  CB        32.3680   31.2070   55.5470 C.3    80  GLN80       0.0408
     73  CG        32.8520   30.1350   56.5150 C.3    80  GLN80       0.0908
     74  CD        32.0410   28.8470   56.4550 C.2    80  GLN80       0.2608
     75  OE1       31.3740   28.5480   55.4650 O.2    80  GLN80      -0.2717
     76  NE2       32.1030   28.0750   57.5310 N.am   80  GLN80      -0.0878
     77  N         33.0290   32.9240   52.4420 N.am   81  ASP81      -0.1971
     78  CA        32.4280   33.8500   51.4690 C.3    81  ASP81       0.1709
     79  C         31.3560   34.7600   52.0870 C.2    81  ASP81       0.2293
     80  O         30.3620   35.0640   51.4340 O.2    81  ASP81      -0.2864
     81  CB        31.8350   33.0560   50.2890 C.3    81  ASP81       0.1436
     82  CG        31.5230   33.9290   49.0650 C.2    81  ASP81       0.3671
     83  OD1       32.2010   34.9560   48.8540 O.co2  81  ASP81      -0.2456
     84  OD2       30.5940   33.5750   48.3050 O.co2  81  ASP81      -0.2456
     85  N         20.5970   27.8610   34.7120 N.3   132  VAL132     -0.1245
     86  CA        21.4240   28.6170   35.6670 C.3   132  VAL132      0.1561
     87  C         21.0580   30.1020   35.8230 C.2   132  VAL132      0.2260
     88  O         21.1550   30.6460   36.9240 O.2   132  VAL132     -0.2867
     89  CB        22.9410   28.4660   35.3360 C.3   132  VAL132      0.0252
     90  CG1       23.2640   29.0130   33.9720 C.3   132  VAL132      0.0019
     91  CG2       23.8020   29.1450   36.3820 C.3   132  VAL132      0.0019
     92  N         19.0950   31.4190   38.8140 N.3   135  LEU135     -0.1231
     93  CA        19.7960   31.6460   40.0800 C.3   135  LEU135      0.1693
     94  C         20.8900   32.7050   39.9830 C.2   135  LEU135      0.2592
     95  O         21.1750   33.3810   40.9670 O.2   135  LEU135     -0.2718
     96  CB        20.4300   30.3450   40.5790 C.3   135  LEU135      0.0284
     97  CG        19.5050   29.1380   40.7270 C.3   135  LEU135      0.0019
     98  CD1       20.3000   27.9270   41.1750 C.3   135  LEU135      0.0001
     99  CD2       18.3860   29.4330   41.7010 C.3   135  LEU135      0.0001
    100  N         21.5160   32.8360   38.8160 N.am  136  LYS136     -0.1966
    101  CA        22.6370   33.7590   38.6660 C.3   136  LYS136      0.1728
    102  C         22.2090   35.1840   39.0010 C.2   136  LYS136      0.2617
    103  O         21.1580   35.6500   38.5600 O.2   136  LYS136     -0.2715
    104  CB        23.2500   33.6900   37.2650 C.3   136  LYS136      0.0311
    105  CG        24.6220   34.3680   37.1520 C.3   136  LYS136      0.0038
    106  CD        25.6990   33.6530   37.9660 C.3   136  LYS136      0.0206
    107  CE        27.1030   34.1100   37.5760 C.3   136  LYS136      0.1093
    108  NZ        28.1670   33.2530   38.1820 N.3   136  LYS136     -0.1314
    109  N         23.0290   35.8470   39.8120 N.am  137  GLY137     -0.1940
    110  CA        22.7250   37.1690   40.3220 C.3   137  GLY137      0.2014
    111  C         22.1160   37.1690   41.7120 C.2   137  GLY137      0.2640
    112  O         21.9370   38.2340   42.2930 O.2   137  GLY137     -0.2714
    113  N         21.8060   35.9950   42.2640 N.am  138  SER138     -0.1935
    114  CA        21.0590   35.9330   43.5250 C.3   138  SER138      0.2055
    115  C         21.8860   35.4940   44.7400 C.2   138  SER138      0.2643
    116  O         21.3190   35.1020   45.7660 O.2   138  SER138     -0.2714
    117  CB        19.8310   35.0300   43.3660 C.3   138  SER138      0.2130
    118  OG        18.9550   35.5370   42.3790 O.3   138  SER138     -0.2179
    119  N         23.2110   35.5780   44.6450 N.am  139  SER139     -0.1949
    120  CA        24.0660   35.2820   45.8020 C.3   139  SER139      0.1924
    121  C         23.7790   36.2600   46.9460 C.2   139  SER139      0.2314
    122  O         23.4950   37.4390   46.7200 O.2   139  SER139     -0.2863
    123  CB        25.5560   35.3300   45.4350 C.3   139  SER139      0.2116
    124  OG        25.9150   36.5750   44.8670 O.3   139  SER139     -0.2180
    125  N         22.4620   32.2670   50.1410 N.3   154  PHE154     -0.1227
    126  CA        22.8590   31.5780   48.9160 C.3   154  PHE154      0.1736
    127  C         24.2590   31.9900   48.4600 C.2   154  PHE154      0.2595
    128  O         24.5740   33.1760   48.4110 O.2   154  PHE154     -0.2718
    129  CB        21.8040   31.8510   47.8320 C.3   154  PHE154      0.0547
    130  CG        22.0800   31.1970   46.5050 C.ar  154  PHE154     -0.0202
    131  CD1       22.6570   29.9440   46.4190 C.ar  154  PHE154     -0.0042
    132  CD2       21.7080   31.8370   45.3280 C.ar  154  PHE154     -0.0042
    133  CE1       22.8860   29.3590   45.1910 C.ar  154  PHE154     -0.0003
    134  CE2       21.9310   31.2550   44.0950 C.ar  154  PHE154     -0.0003
    135  CZ        22.5200   30.0140   44.0250 C.ar  154  PHE154     -0.0000
    136  N         25.0850   30.9960   48.1270 N.am  155  ARG155     -0.1966
    137  CA        26.5190   31.1870   47.8810 C.3   155  ARG155      0.1729
    138  C         27.0010   30.7080   46.4970 C.2   155  ARG155      0.2616
    139  O         27.7580   31.4030   45.8150 O.2   155  ARG155     -0.2715
    140  CB        27.2780   30.4400   48.9750 C.3   155  ARG155      0.0348
    141  CG        28.7910   30.4920   48.8720 C.3   155  ARG155      0.0492
    142  CD        29.4660   30.1910   50.2130 C.3   155  ARG155      0.2205
    143  NE        29.1340   28.8580   50.7180 N.pl3 155  ARG155     -0.0865
    144  CZ        29.7520   28.2490   51.7270 C.cat 155  ARG155      0.5346
    145  NH1       30.7610   28.8320   52.3650 N.pl3 155  ARG155      0.1354
    146  NH2       29.3590   27.0370   52.0970 N.pl3 155  ARG155      0.1354
    147  N         26.5720   29.5130   46.0970 N.am  156  ALA156     -0.1963
    148  CA        27.0470   28.8830   44.8620 C.3   156  ALA156      0.1728
    149  C         26.0690   27.8140   44.3730 C.2   156  ALA156      0.2616
    150  O         25.2000   27.3670   45.1250 O.2   156  ALA156     -0.2715
    151  CB        28.4200   28.2570   45.0900 C.3   156  ALA156      0.0334
    152  N         26.2300   27.3950   43.1180 N.am  157  ALA157     -0.1977
    153  CA        25.3780   26.3620   42.5380 C.3   157  ALA157      0.1597
    154  C         26.1620   25.2570   41.8360 C.2   157  ALA157      0.2287
    155  O         27.2610   25.4700   41.3260 O.2   157  ALA157     -0.2864
    156  CB        24.3820   26.9810   41.5780 C.3   157  ALA157      0.0319
    157  N         26.0700   23.0660   38.6720 N.3   159  CYS159     -0.1235
    158  CA        25.4660   23.1210   37.3420 C.3   159  CYS159      0.1677
    159  C         26.1270   22.1690   36.3540 C.2   159  CYS159      0.2270
    160  O         27.2530   21.7040   36.5650 O.2   159  CYS159     -0.2867
    161  CB        25.5460   24.5410   36.7900 C.3   159  CYS159      0.0956
    162  SG        24.7520   25.7500   37.8380 S.3   159  CYS159     -0.0801
    163  N         24.6040   25.6750   47.0300 N.3   168  ASP168     -0.1239
    164  CA        25.4760   25.7170   48.1870 C.3   168  ASP168      0.1674
    165  C         25.1790   27.0050   48.9230 C.2   168  ASP168      0.2266
    166  O         24.8920   28.0240   48.2950 O.2   168  ASP168     -0.2867
    167  CB        26.9330   25.7070   47.7410 C.3   168  ASP168      0.1410
    168  CG        27.8820   25.3980   48.8680 C.2   168  ASP168      0.3668
    169  OD1       27.8390   24.2620   49.3760 O.co2 168  ASP168     -0.2456
    170  OD2       28.6780   26.2850   49.2350 O.co2 168  ASP168     -0.2456
@<TRIPOS>BOND
     1    90    89    1
     2    85    86    1
     3    89    86    1
     4    89    91    1
     5    86    87    1
     6    87    88    2
     7   159   160    2
     8   159   158    1
     9   161   158    1
    10   161   162    1
    11   105   104    1
    12   105   106    1
    13   104   101    1
    14   158   157    1
    15   107   106    1
    16   107   108    1
    17   103   102    2
    18   101   100    1
    19   101   102    1
    20    92    93    1
    21   100    94   am
    22   102   109   am
    23     1     2    1
    24     2     5    1
    25     2     3    1
    26     5     6    1
    27   109   110    1
    28    94    93    1
    29    94    95    2
    30     8     7    2
    31    93    96    1
    32   110   111    1
    33    10     3   am
    34    10    11    1
    35     3     4    2
    36    96    97    1
    37    14    11    1
    38    14    15    1
    39     6     7    1
    40    97    98    1
    41    97    99    1
    42     7     9   am
    43    13    12    2
    44   155   154    2
    45    11    12    1
    46   156   153    1
    47   111   113   am
    48   111   112    2
    49   154   153    1
    50    12    16   am
    51   113   114    1
    52   118   117    1
    53   153   152    1
    54   152   149   am
    55    16    17    1
    56   117   114    1
    57   114   115    1
    58    17    20    1
    59    17    18    1
    60    46    48   ar
    61    46    44   ar
    62   135   134   ar
    63   135   133   ar
    64    48    47   ar
    65   134   132   ar
    66    42    41    2
    67   149   148    1
    68   149   150    2
    69    22    24   ar
    70    22    21   ar
    71    20    21    1
    72   119   115   am
    73   119   120    1
    74   115   116    2
    75    19    18    2
    76   148   151    1
    77   148   147    1
    78   124   123    1
    79    24    26   ar
    80    52    51    2
    81    44    43    1
    82    44    45   ar
    83   133   131   ar
    84    21    23   ar
    85    47    45   ar
    86    50    51    1
    87    50    49    1
    88    41    49   am
    89    41    40    1
    90   132   130   ar
    91   123   120    1
    92    43    40    1
    93   120   121    1
    94   139   138    2
    95   147   138   am
    96    40    39    1
    97    26    25   ar
    98   131   130   ar
    99   138   137    1
   100   130   129    1
   101    23    25   ar
   102   122   121    2
   103   163   164    1
   104    39    29   am
   105   167   164    1
   106   167   168    1
   107    30    29    2
   108   129   126    1
   109   137   136    1
   110   137   140    1
   111   136   127   am
   112   164   165    1
   113    29    28    1
   114   166   165    2
   115    84    82   ar
   116   128   127    2
   117   127   126    1
   118    83    82   ar
   119   168   170   ar
   120   168   169   ar
   121   141   140    1
   122   141   142    1
   123   126   125    1
   124    82    81    1
   125    36    34   ar
   126    36    37   ar
   127    34    32   ar
   128    28    27    1
   129    28    31    1
   130    38    37    1
   131    37    35   ar
   132   142   143    1
   133    81    78    1
   134    32    31    1
   135    32    33   ar
   136   143   144    2
   137    35    33   ar
   138    80    79    2
   139    78    79    1
   140    78    77    1
   141    58    57    1
   142   144   146    1
   143   144   145    1
   144    56    55    2
   145    77    70   am
   146    57    59    1
   147    57    54    1
   148    63    62    2
   149    55    54    1
   150    55    60   am
   151    71    70    2
   152    70    69    1
   153    54    53    1
   154    62    61    1
   155    62    68   am
   156    61    60    1
   157    61    64    1
   158    69    68    1
   159    69    72    1
   160    66    65   ar
   161    64    65    1
   162    75    74    2
   163    72    73    1
   164    65    67   ar
   165    74    73    1
   166    74    76   am
