@<TRIPOS>MOLECULE
tmp/4tyhB00.pdb
 172 163 0 0 0
SMALL
GASTEIGER

@<TRIPOS>ATOM
      1  N         83.4660   40.5440  114.9120 N.3    25  VAL25      -0.1231
      2  CA        84.2830   41.4150  114.0600 C.3    25  VAL25       0.1692
      3  C         84.1740   41.0200  112.5860 C.2    25  VAL25       0.2593
      4  O         84.0140   39.8450  112.2640 O.2    25  VAL25      -0.2718
      5  CB        85.7800   41.3680  114.4750 C.3    25  VAL25       0.0266
      6  CG1       86.4080   40.0220  114.1270 C.3    25  VAL25       0.0020
      7  CG2       86.5530   42.5000  113.8240 C.3    25  VAL25       0.0020
      8  N         84.2530   41.9990  111.6920 N.am   26  GLY26      -0.1942
      9  CA        84.3700   41.7160  110.2570 C.3    26  GLY26       0.2014
     10  C         83.0770   41.3100  109.5680 C.2    26  GLY26       0.2639
     11  O         82.0200   41.2160  110.2040 O.2    26  GLY26      -0.2714
     12  N         83.1660   41.0670  108.2610 N.am   27  SER27      -0.1949
     13  CA        81.9910   40.7660  107.4410 C.3    27  SER27       0.1924
     14  C         81.0560   39.8170  108.1520 C.2    27  SER27       0.2314
     15  O         79.8660   40.0840  108.2700 O.2    27  SER27      -0.2863
     16  CB        82.3930   40.1440  106.0890 C.3    27  SER27       0.2116
     17  OG        82.8360   38.7970  106.2160 O.3    27  SER27      -0.2180
     18  N         83.6350   35.4220  112.6000 N.3    33  VAL33      -0.1245
     19  CA        84.8290   35.6880  113.4140 C.3    33  VAL33       0.1561
     20  C         84.5620   36.5710  114.6520 C.2    33  VAL33       0.2260
     21  O         83.7260   37.4860  114.6330 O.2    33  VAL33      -0.2867
     22  CB        85.9210   36.3510  112.5800 C.3    33  VAL33       0.0252
     23  CG1       87.1970   36.4690  113.3880 C.3    33  VAL33       0.0019
     24  CG2       86.1490   35.5600  111.3090 C.3    33  VAL33       0.0019
     25  N         92.0320   36.0230  116.7580 N.3    46  ALA46      -0.1231
     26  CA        90.8130   35.8870  115.9860 C.3    46  ALA46       0.1694
     27  C         90.3440   34.4570  116.1280 C.2    46  ALA46       0.2592
     28  O         91.1290   33.5440  115.9090 O.2    46  ALA46      -0.2718
     29  CB        91.0870   36.1880  114.5470 C.3    46  ALA46       0.0304
     30  N         89.0780   34.2600  116.5100 N.am   47  VAL47      -0.1966
     31  CA        88.4990   32.9130  116.6250 C.3    47  VAL47       0.1727
     32  C         87.3450   32.8010  115.6600 C.2    47  VAL47       0.2616
     33  O         86.4330   33.6160  115.7130 O.2    47  VAL47      -0.2715
     34  CB        87.9760   32.6150  118.0420 C.3    47  VAL47       0.0290
     35  CG1       87.5770   31.1610  118.1500 C.3    47  VAL47       0.0023
     36  CG2       89.0310   32.9400  119.0870 C.3    47  VAL47       0.0023
     37  N         87.3900   31.8000  114.7820 N.am   48  LYS48      -0.1977
     38  CA        86.4020   31.6600  113.7010 C.3    48  LYS48       0.1596
     39  C         85.5970   30.3640  113.7990 C.2    48  LYS48       0.2287
     40  O         86.1810   29.2790  113.8470 O.2    48  LYS48      -0.2864
     41  CB        87.0890   31.7350  112.3310 C.3    48  LYS48       0.0298
     42  CG        86.4000   30.9070  111.2350 C.3    48  LYS48       0.0038
     43  CD        86.6580   31.4210  109.8060 C.3    48  LYS48       0.0206
     44  CE        85.3550   31.8410  109.1290 C.3    48  LYS48       0.1093
     45  NZ        85.5360   32.2830  107.7180 N.3    48  LYS48      -0.1314
     46  N         90.5210   22.7330  103.5180 N.3    66  GLU66      -0.1245
     47  CA        90.8910   23.9950  104.1690 C.3    66  GLU66       0.1567
     48  C         91.7700   23.7450  105.3980 C.2    66  GLU66       0.2260
     49  O         92.8220   24.3700  105.5740 O.2    66  GLU66      -0.2867
     50  CB        89.6240   24.7760  104.5620 C.3    66  GLU66       0.0388
     51  CG        89.8840   26.0550  105.3730 C.3    66  GLU66       0.1160
     52  CD        88.7840   27.1250  105.2390 C.2    66  GLU66       0.3649
     53  OE1       88.6240   27.9350  106.1840 O.co2  66  GLU66      -0.2457
     54  OE2       88.0910   27.1730  104.1910 O.co2  66  GLU66      -0.2457
     55  N         95.5910   24.8670  106.1820 N.3    70  LEU70      -0.1245
     56  CA        95.9060   25.7430  107.2960 C.3    70  LEU70       0.1561
     57  C         96.8830   25.1390  108.2880 C.2    70  LEU70       0.2260
     58  O         97.7290   25.8510  108.8310 O.2    70  LEU70      -0.2867
     59  CB        94.6220   26.1870  107.9930 C.3    70  LEU70       0.0270
     60  CG        94.1100   27.5860  107.6190 C.3    70  LEU70       0.0019
     61  CD1       94.7760   28.1930  106.3750 C.3    70  LEU70       0.0001
     62  CD2       92.6030   27.5470  107.4570 C.3    70  LEU70       0.0001
     63  N         98.5520   33.4630  106.8550 N.3    79  ILE79      -0.1245
     64  CA        97.6550   33.0780  107.9210 C.3    79  ILE79       0.1561
     65  C         98.0450   31.6950  108.4530 C.2    79  ILE79       0.2260
     66  O         98.3060   30.7720  107.6980 O.2    79  ILE79      -0.2867
     67  CB        96.1820   33.1540  107.4600 C.3    79  ILE79       0.0252
     68  CG1       95.2750   33.1400  108.6770 C.3    79  ILE79       0.0019
     69  CG2       95.8270   32.0690  106.4510 C.3    79  ILE79       0.0019
     70  CD1       95.3500   34.4380  109.4380 C.3    79  ILE79       0.0001
     71  N         97.6440   28.8030  111.9830 N.3    81  LEU81      -0.1245
     72  CA        96.6960   28.2920  112.9570 C.3    81  LEU81       0.1561
     73  C         97.3800   28.2430  114.3130 C.2    81  LEU81       0.2260
     74  O         98.3400   27.4940  114.4980 O.2    81  LEU81      -0.2867
     75  CB        96.2370   26.8910  112.5370 C.3    81  LEU81       0.0270
     76  CG        94.7460   26.6140  112.4290 C.3    81  LEU81       0.0019
     77  CD1       94.1260   27.5920  111.4940 C.3    81  LEU81       0.0001
     78  CD2       94.5420   25.2000  111.9230 C.3    81  LEU81       0.0001
     79  N         88.4440   27.7090  114.6240 N.3    99  LEU99      -0.1245
     80  CA        89.8320   27.9560  114.2690 C.3    99  LEU99       0.1561
     81  C         90.2910   29.2440  114.9070 C.2    99  LEU99       0.2260
     82  O         89.5700   30.2460  114.8750 O.2    99  LEU99      -0.2867
     83  CB        89.9790   28.0890  112.7620 C.3    99  LEU99       0.0270
     84  CG        89.4490   26.9440  111.9100 C.3    99  LEU99       0.0019
     85  CD1       89.4860   27.3670  110.4530 C.3    99  LEU99       0.0001
     86  CD2       90.2500   25.6600  112.1450 C.3    99  LEU99       0.0001
     87  N         93.5400   32.1600  115.3070 N.3   101  THR101     -0.1203
     88  CA        94.5420   32.8020  114.4800 C.3   101  THR101      0.1994
     89  C         94.9680   34.0750  115.1430 C.2   101  THR101      0.2618
     90  O         94.2660   34.5850  116.0100 O.2   101  THR101     -0.2717
     91  CB        93.9440   33.2250  113.1610 C.3   101  THR101      0.1784
     92  OG1       93.3360   32.0930  112.5390 O.3   101  THR101     -0.2211
     93  CG2       95.0150   33.7750  112.2690 C.3   101  THR101      0.0376
     94  N         96.1030   34.6160  114.7320 N.am  102  HIS102     -0.1961
     95  CA        96.4420   35.9560  115.1640 C.3   102  HIS102      0.1787
     96  C         95.3540   36.9000  114.7270 C.2   102  HIS102      0.2620
     97  O         94.5870   36.5820  113.8330 O.2   102  HIS102     -0.2715
     98  CB        97.7850   36.3830  114.5940 C.3   102  HIS102      0.0785
     99  CG        98.9450   35.7730  115.3130 C.ar  102  HIS102      0.0821
    100  ND1       99.3860   36.2380  116.5330 N.ar  102  HIS102     -0.2267
    101  CD2       99.7370   34.7220  114.9980 C.ar  102  HIS102      0.1154
    102  CE1      100.4150   35.5100  116.9300 C.ar  102  HIS102      0.1986
    103  NE2      100.6470   34.5820  116.0180 N.ar  102  HIS102     -0.2212
    104  N         95.2700   38.0460  115.3810 N.am  103  LEU103     -0.1963
    105  CA        94.3010   39.0690  115.0080 C.3   103  LEU103      0.1728
    106  C         95.0390   40.2930  114.4950 C.2   103  LEU103      0.2616
    107  O         96.0100   40.7340  115.0910 O.2   103  LEU103     -0.2715
    108  CB        93.3720   39.3980  116.1810 C.3   103  LEU103      0.0311
    109  CG        92.6050   40.7240  116.2310 C.3   103  LEU103      0.0022
    110  CD1       91.1590   40.5190  116.6520 C.3   103  LEU103      0.0001
    111  CD2       93.3110   41.6740  117.1900 C.3   103  LEU103      0.0001
    112  N         94.5560   40.8090  113.3710 N.am  104  MET104     -0.1963
    113  CA        95.1730   41.8980  112.6500 C.3   104  MET104      0.1736
    114  C         94.3770   43.1530  112.8990 C.2   104  MET104      0.2617
    115  O         93.4330   43.1330  113.6850 O.2   104  MET104     -0.2715
    116  CB        95.1410   41.5830  111.1680 C.3   104  MET104      0.0427
    117  CG        95.6710   40.2090  110.8290 C.3   104  MET104      0.0599
    118  SD        97.3450   39.9780  111.3780 S.3   104  MET104     -0.1393
    119  CE        98.1840   41.3960  110.6620 C.3   104  MET104      0.0692
    120  N         94.7390   44.2400  112.2180 N.am  105  GLY105     -0.1940
    121  CA        94.1080   45.5450  112.4240 C.3   105  GLY105      0.2014
    122  C         93.1430   45.9550  111.3390 C.2   105  GLY105      0.2639
    123  O         92.0700   46.4520  111.6400 O.2   105  GLY105     -0.2714
    124  N         93.5400   45.7540  110.0830 N.am  106  ALA106     -0.1963
    125  CA        92.7750   46.1890  108.9050 C.3   106  ALA106      0.1728
    126  C         93.0790   45.3010  107.7100 C.2   106  ALA106      0.2616
    127  O         93.9740   44.4610  107.7590 O.2   106  ALA106     -0.2715
    128  CB        93.1120   47.6210  108.5550 C.3   106  ALA106      0.0334
    129  N         92.3410   45.4880  106.6270 N.am  107  ASP107     -0.1971
    130  CA        92.6460   44.7940  105.3890 C.3   107  ASP107      0.1709
    131  C         93.0090   45.8380  104.3410 C.2   107  ASP107      0.2293
    132  O         92.6480   46.9960  104.4880 O.2   107  ASP107     -0.2864
    133  CB        91.4690   43.9300  104.9630 C.3   107  ASP107      0.1436
    134  CG        90.2330   44.7400  104.6290 C.2   107  ASP107      0.3671
    135  OD1       90.2510   45.4350  103.5790 O.co2 107  ASP107     -0.2456
    136  OD2       89.2420   44.6580  105.4060 O.co2 107  ASP107     -0.2456
    137  N         95.6010   40.9770  105.2190 N.3   152  ALA152     -0.1245
    138  CA        95.4190   41.5220  106.5360 C.3   152  ALA152      0.1562
    139  C         96.6860   42.2460  106.8470 C.2   152  ALA152      0.2260
    140  O         97.7770   41.7760  106.5300 O.2   152  ALA152     -0.2867
    141  CB        95.1710   40.4300  107.5390 C.3   152  ALA152      0.0290
    142  N         95.6100   35.9880  103.7140 N.3   162  LEU162     -0.1231
    143  CA        94.4870   35.2090  104.1990 C.3   162  LEU162      0.1693
    144  C         93.7410   34.5020  103.0620 C.2   162  LEU162      0.2592
    145  O         93.8350   34.8810  101.8970 O.2   162  LEU162     -0.2718
    146  CB        93.5040   36.1230  104.9300 C.3   162  LEU162      0.0284
    147  CG        93.6870   36.2660  106.4330 C.3   162  LEU162      0.0019
    148  CD1       95.1030   36.6590  106.7460 C.3   162  LEU162      0.0001
    149  CD2       92.6890   37.2640  107.0010 C.3   162  LEU162      0.0001
    150  N         93.0210   33.4470  103.4290 N.am  163  ASP163     -0.1960
    151  CA        91.8880   32.9170  102.6680 C.3   163  ASP163      0.1840
    152  C         92.2200   32.0020  101.4880 C.2   163  ASP163      0.2622
    153  O         92.2820   32.4180  100.3310 O.2   163  ASP163     -0.2715
    154  CB        90.9450   34.0320  102.2400 C.3   163  ASP163      0.1450
    155  CG        89.5150   33.6130  102.3180 C.2   163  ASP163      0.3671
    156  OD1       89.2270   32.4480  101.9860 O.co2 163  ASP163     -0.2456
    157  OD2       88.6820   34.4330  102.7430 O.co2 163  ASP163     -0.2456
    158  N         92.3540   30.7260  101.8070 N.am  164  PHE164     -0.1960
    159  CA        92.7570   29.7110  100.8520 C.3   164  PHE164      0.1771
    160  C         91.6000   28.7920  100.4010 C.2   164  PHE164      0.2620
    161  O         91.8500   27.6810   99.9190 O.2   164  PHE164     -0.2715
    162  CB        93.8290   28.8450  101.5160 C.3   164  PHE164      0.0574
    163  CG        95.1120   29.5590  101.7670 C.ar  164  PHE164     -0.0200
    164  CD1       95.2150   30.5180  102.7690 C.ar  164  PHE164     -0.0042
    165  CD2       96.2330   29.2540  101.0050 C.ar  164  PHE164     -0.0042
    166  CE1       96.4220   31.1670  102.9930 C.ar  164  PHE164     -0.0003
    167  CE2       97.4370   29.8930  101.2210 C.ar  164  PHE164     -0.0003
    168  CZ        97.5380   30.8500  102.2100 C.ar  164  PHE164     -0.0000
    169  N         90.3470   29.2250  100.5630 N.am  165  GLY165     -0.1954
    170  CA        89.1950   28.3160  100.3700 C.3   165  GLY165      0.1869
    171  C         89.1930   27.7110   98.9770 C.2   165  GLY165      0.2309
    172  O         89.0060   26.4920   98.7860 O.2   165  GLY165     -0.2863
@<TRIPOS>BOND
     1   172   171    2
     2   171   170    1
     3   161   160    2
     4   153   152    2
     5   170   169    1
     6   160   169   am
     7   160   159    1
     8   159   162    1
     9   159   158    1
    10   165   167   ar
    11   165   163   ar
    12   167   168   ar
    13   152   158   am
    14   152   151    1
    15   162   163    1
    16   163   164   ar
    17   145   144    2
    18   156   155   ar
    19   168   166   ar
    20   154   155    1
    21   154   151    1
    22   155   157   ar
    23   151   150    1
    24   164   166   ar
    25   144   150   am
    26   144   143    1
    27    46    47    1
    28   135   134   ar
    29   142   143    1
    30    47    50    1
    31    47    48    1
    32    54    52   ar
    33   143   146    1
    34   131   132    2
    35   131   130    1
    36    50    51    1
    37   134   133    1
    38   134   136   ar
    39   146   147    1
    40   133   130    1
    41   137   138    1
    42    52    51    1
    43    52    53   ar
    44   130   129    1
    45    48    49    2
    46    16    17    1
    47    16    13    1
    48    55    56    1
    49    61    60    1
    50   147   148    1
    51   147   149    1
    52    69    67    1
    53   140   139    2
    54   138   139    1
    55   138   141    1
    56   129   126   am
    57    63    64    1
    58    56    59    1
    59    56    57    1
    60    13    14    1
    61    13    12    1
    62    62    60    1
    63    67    64    1
    64    67    68    1
    65    60    59    1
    66    66    65    2
    67   126   127    2
    68   126   125    1
    69    45    44    1
    70    64    65    1
    71    14    15    2
    72    12    10   am
    73    57    58    2
    74   128   125    1
    75    68    70    1
    76   125   124    1
    77    44    43    1
    78    10    11    2
    79    10     9    1
    80    43    42    1
    81   124   122   am
    82     9     8    1
    83    85    84    1
    84   119   118    1
    85   117   116    1
    86   117   118    1
    87   116   113    1
    88    42    41    1
    89    24    22    1
    90   122   123    2
    91   122   121    1
    92    77    76    1
    93     8     3   am
    94    84    86    1
    95    84    83    1
    96    78    76    1
    97    71    72    1
    98   120   121    1
    99   120   114   am
   100     4     3    2
   101    93    91    1
   102    41    38    1
   103    76    75    1
   104    75    72    1
   105    92    91    1
   106    22    23    1
   107    22    19    1
   108     3     2    1
   109    18    19    1
   110   113   114    1
   111   113   112    1
   112    83    80    1
   113   114   115    2
   114    72    73    1
   115    91    88    1
   116   112   106   am
   117    19    20    1
   118    38    39    1
   119    38    37    1
   120    39    40    2
   121     7     5    1
   122    97    96    2
   123     2     5    1
   124     2     1    1
   125     6     5    1
   126    80    79    1
   127    80    81    1
   128    73    74    2
   129    88    89    1
   130    88    87    1
   131   106   105    1
   132   106   107    2
   133    29    26    1
   134    98    95    1
   135    98    99    1
   136    21    20    2
   137    96    95    1
   138    96   104   am
   139    94    89   am
   140    94    95    1
   141    37    32   am
   142    82    81    2
   143   101    99   ar
   144   101   103   ar
   145   105   104    1
   146   105   108    1
   147    89    90    2
   148    99   100   ar
   149    32    33    2
   150    32    31    1
   151    28    27    2
   152    26    27    1
   153    26    25    1
   154   103   102   ar
   155    27    30   am
   156   108   109    1
   157   109   110    1
   158   109   111    1
   159    30    31    1
   160   100   102   ar
   161    31    34    1
   162    34    35    1
   163    34    36    1
