@<TRIPOS>MOLECULE
tmp/4tyiA00.pdb
 132 122 0 0 0
SMALL
GASTEIGER

@<TRIPOS>ATOM
      1  N         -5.6360  -12.0430   10.2190 N.3    28  LEU28      -0.1231
      2  CA        -4.4850  -11.9300    9.3180 C.3    28  LEU28       0.1693
      3  C         -4.9060  -12.1470    7.8720 C.2    28  LEU28       0.2592
      4  O         -4.6500  -11.3030    7.0090 O.2    28  LEU28      -0.2718
      5  CB        -3.4120  -12.9660    9.6790 C.3    28  LEU28       0.0284
      6  CG        -2.7730  -12.8560   11.0640 C.3    28  LEU28       0.0019
      7  CD1       -2.0290  -14.1350   11.4230 C.3    28  LEU28       0.0001
      8  CD2       -1.8430  -11.6540   11.1360 C.3    28  LEU28       0.0001
      9  N         -5.5480  -13.2900    7.6250 N.am   29  GLY29      -0.1957
     10  CA        -5.9440  -13.7130    6.2840 C.3    29  GLY29       0.1869
     11  C         -7.4480  -13.8490    6.1350 C.2    29  GLY29       0.2309
     12  O         -8.0640  -14.7140    6.7640 O.2    29  GLY29      -0.2863
     13  N         -7.5950  -17.6140    8.7910 N.3    36  VAL36      -0.1245
     14  CA        -6.4120  -17.6070    9.6600 C.3    36  VAL36       0.1561
     15  C         -6.4270  -16.3040   10.4640 C.2    36  VAL36       0.2260
     16  O         -6.6400  -15.2290    9.8940 O.2    36  VAL36      -0.2867
     17  CB        -5.0970  -17.6950    8.8480 C.3    36  VAL36       0.0252
     18  CG1       -3.8920  -17.8560    9.7710 C.3    36  VAL36       0.0019
     19  CG2       -5.1450  -18.8550    7.8600 C.3    36  VAL36       0.0019
     20  N         -0.1090  -17.8840   14.5520 N.3    56  ALA56      -0.1245
     21  CA        -1.2700  -17.9220   13.6520 C.3    56  ALA56       0.1562
     22  C         -2.2100  -19.0540   14.0640 C.2    56  ALA56       0.2260
     23  O         -1.7740  -20.0440   14.6600 O.2    56  ALA56      -0.2867
     24  CB        -0.8180  -18.1050   12.2120 C.3    56  ALA56       0.0290
     25  N         -5.3440  -21.2070   12.2430 N.3    58  LYS58      -0.1245
     26  CA        -6.2790  -21.6210   11.1920 C.3    58  LYS58       0.1561
     27  C         -7.5630  -22.1680   11.8300 C.2    58  LYS58       0.2260
     28  O         -7.5030  -22.9950   12.7450 O.2    58  LYS58      -0.2867
     29  CB        -5.6280  -22.6820   10.2910 C.3    58  LYS58       0.0271
     30  CG        -6.4670  -23.1340    9.1020 C.3    58  LYS58       0.0035
     31  CD        -6.7520  -22.1230    8.0660 C.3    58  LYS58       0.0206
     32  CE        -7.6390  -22.6610    6.9540 C.3    58  LYS58       0.1093
     33  NZ        -7.9680  -21.6170    5.9440 N.3    58  LYS58      -0.1314
     34  N          0.4080  -32.3950    9.0150 N.3    79  MET79      -0.1245
     35  CA         1.4360  -31.5730    9.6790 C.3    79  MET79       0.1570
     36  C          2.0870  -32.2480   10.8940 C.2    79  MET79       0.2261
     37  O          3.2400  -31.9510   11.2170 O.2    79  MET79      -0.2867
     38  CB         0.8730  -30.2040   10.0890 C.3    79  MET79       0.0387
     39  CG         0.7630  -29.2100    8.9450 C.3    79  MET79       0.0595
     40  SD         0.2930  -27.5630    9.5060 S.3    79  MET79      -0.1393
     41  CE         0.4000  -26.6400    7.9740 C.3    79  MET79       0.0692
     42  N          6.1280  -23.7230    7.5370 N.3    89  ILE89      -0.1245
     43  CA         5.1130  -23.3680    8.5470 C.3    89  ILE89       0.1561
     44  C          4.8030  -24.6370    9.3550 C.2    89  ILE89       0.2260
     45  O          4.0340  -25.4970    8.9190 O.2    89  ILE89      -0.2867
     46  CB         3.8400  -22.7290    7.9150 C.3    89  ILE89       0.0252
     47  CG1        4.0920  -21.2480    7.6290 C.3    89  ILE89       0.0019
     48  CG2        2.6120  -22.8130    8.8240 C.3    89  ILE89       0.0019
     49  CD1        5.2590  -20.7880    6.9920 C.3    89  ILE89       0.0001
     50  N         -0.4730  -22.7600   14.1970 N.3   105  VAL105     -0.1231
     51  CA         0.7630  -22.8610   13.4050 C.3   105  VAL105      0.1692
     52  C          1.5870  -21.5850   13.5770 C.2   105  VAL105      0.2592
     53  O          1.0320  -20.5180   13.8530 O.2   105  VAL105     -0.2718
     54  CB         0.4790  -23.1170   11.9050 C.3   105  VAL105      0.0266
     55  CG1       -0.0680  -24.5220   11.7040 C.3   105  VAL105      0.0020
     56  CG2       -0.4820  -22.0860   11.3180 C.3   105  VAL105      0.0020
     57  N          2.9050  -21.7010   13.4110 N.am  106  GLU106     -0.1966
     58  CA         3.8220  -20.5820   13.6880 C.3   106  GLU106      0.1733
     59  C          3.6050  -19.3970   12.7450 C.2   106  GLU106      0.2616
     60  O          3.3460  -19.5810   11.5540 O.2   106  GLU106     -0.2715
     61  CB         5.2910  -21.0380   13.6700 C.3   106  GLU106      0.0429
     62  CG         5.8510  -21.4460   12.3100 C.3   106  GLU106      0.1163
     63  CD         7.2620  -22.0110   12.3950 C.2   106  GLU106      0.3649
     64  OE1        7.5410  -22.8230   13.3050 O.co2 106  GLU106     -0.2457
     65  OE2        8.0960  -21.6540   11.5350 O.co2 106  GLU106     -0.2457
     66  N          3.7150  -18.1910   13.3000 N.am  107  CYS107     -0.1954
     67  CA         3.3810  -16.9580   12.5870 C.3   107  CYS107      0.1843
     68  C          4.5360  -16.4290   11.7380 C.2   107  CYS107      0.2625
     69  O          5.7100  -16.6760   12.0280 O.2   107  CYS107     -0.2714
     70  CB         2.9380  -15.8770   13.5730 C.3   107  CYS107      0.0997
     71  SG         2.4200  -14.3310   12.7950 S.3   107  CYS107     -0.0797
     72  N          4.1640  -15.6810   10.7020 N.am  108  ALA108     -0.1963
     73  CA         5.0780  -15.0800    9.7370 C.3   108  ALA108      0.1728
     74  C          4.8060  -13.5750    9.7060 C.2   108  ALA108      0.2616
     75  O          3.7350  -13.1320    9.2580 O.2   108  ALA108     -0.2715
     76  CB         4.8680  -15.6950    8.3620 C.3   108  ALA108      0.0334
     77  N          5.7870  -12.8070   10.1800 N.am  109  ALA109     -0.1963
     78  CA         5.6240  -11.3770   10.4670 C.3   109  ALA109      0.1728
     79  C          5.5880  -10.4840    9.2270 C.2   109  ALA109      0.2616
     80  O          4.8030   -9.5340    9.1770 O.2   109  ALA109     -0.2715
     81  CB         6.7290  -10.9090   11.4050 C.3   109  ALA109      0.0334
     82  N          6.4360  -10.7840    8.2430 N.am  110  LYS110     -0.1963
     83  CA         6.5870   -9.9450    7.0440 C.3   110  LYS110      0.1728
     84  C          5.7280  -10.3730    5.8340 C.2   110  LYS110      0.2617
     85  O          5.9540   -9.8950    4.7180 O.2   110  LYS110     -0.2715
     86  CB         8.0700   -9.8730    6.6540 C.3   110  LYS110      0.0311
     87  CG         8.8600   -9.0690    7.7340 C.3   110  LYS110      0.0038
     88  CD        10.2810   -8.7890    7.2790 C.3   110  LYS110      0.0206
     89  CE        11.0150   -7.9170    8.2840 C.3   110  LYS110      0.1093
     90  NZ        12.4850   -7.8970    8.0460 N.3   110  LYS110     -0.1314
     91  N          4.7480  -11.2540    6.0500 N.am  111  GLY111     -0.1940
     92  CA         3.7730  -11.6110    5.0140 C.3   111  GLY111      0.2014
     93  C          4.3000  -12.5250    3.9270 C.2   111  GLY111      0.2638
     94  O          5.4020  -13.0680    4.0360 O.2   111  GLY111     -0.2714
     95  N          3.4930  -12.6930    2.8800 N.am  112  ASN112     -0.1972
     96  CA         3.8580  -13.5400    1.7340 C.3   112  ASN112      0.1688
     97  C          5.0010  -12.9500    0.9040 C.2   112  ASN112      0.2292
     98  O          5.2340  -11.7390    0.9260 O.2   112  ASN112     -0.2864
     99  CB         2.6360  -13.8620    0.8490 C.3   112  ASN112      0.1181
    100  CG         2.0160  -12.6260    0.2060 C.2   112  ASN112      0.2629
    101  OD1        2.5440  -12.0910   -0.7690 O.2   112  ASN112     -0.2716
    102  ND2        0.8780  -12.1790    0.7380 N.am  112  ASN112     -0.0877
    103  N          4.1000  -10.0630   -1.8030 N.3   115  GLU115     -0.1245
    104  CA         3.9030   -8.7660   -1.1410 C.3   115  GLU115      0.1567
    105  C          5.1720   -8.2410   -0.4570 C.2   115  GLU115      0.2260
    106  O          5.3610   -7.0280   -0.3510 O.2   115  GLU115     -0.2867
    107  CB         2.7680   -8.8570   -0.1170 C.3   115  GLU115      0.0388
    108  CG         2.2780   -7.5310    0.4750 C.3   115  GLU115      0.1160
    109  CD         1.7130   -6.5690   -0.5580 C.2   115  GLU115      0.3649
    110  OE1        1.0000   -7.0180   -1.4810 O.co2 115  GLU115     -0.2457
    111  OE2        1.9770   -5.3540   -0.4390 O.co2 115  GLU115     -0.2457
    112  N          6.0130  -17.8000    2.8800 N.3   160  LEU160     -0.1245
    113  CA         5.9090  -16.7150    3.8680 C.3   160  LEU160      0.1561
    114  C          7.2700  -16.3190    4.4410 C.2   160  LEU160      0.2260
    115  O          8.2440  -17.0680    4.3320 O.2   160  LEU160     -0.2867
    116  CB         4.9730  -17.1240    5.0080 C.3   160  LEU160      0.0270
    117  CG         3.5580  -17.5730    4.6260 C.3   160  LEU160      0.0019
    118  CD1        2.7780  -17.9640    5.8700 C.3   160  LEU160      0.0001
    119  CD2        2.8120  -16.4930    3.8570 C.3   160  LEU160      0.0001
    120  N          4.0970  -22.4820    3.2170 N.3   170  ALA170     -0.1231
    121  CA         2.7710  -22.7260    3.8050 C.3   170  ALA170      0.1694
    122  C          1.8370  -23.4310    2.8200 C.2   170  ALA170      0.2592
    123  O          2.0920  -23.4560    1.6120 O.2   170  ALA170     -0.2718
    124  CB         2.1520  -21.4170    4.2680 C.3   170  ALA170      0.0304
    125  N          0.7700  -24.0220    3.3640 N.am  171  ASP171     -0.1974
    126  CA        -0.2570  -24.7730    2.6050 C.3   171  ASP171      0.1709
    127  C          0.2130  -26.0770    1.9060 C.2   171  ASP171      0.2293
    128  O         -0.5350  -26.6580    1.1150 O.2   171  ASP171     -0.2864
    129  CB        -0.9940  -23.8530    1.6060 C.3   171  ASP171      0.1436
    130  CG        -1.6470  -22.6440    2.2760 C.2   171  ASP171      0.3671
    131  OD1       -1.9440  -22.6940    3.4910 O.co2 171  ASP171     -0.2456
    132  OD2       -1.8740  -21.6370    1.5720 O.co2 171  ASP171     -0.2456
@<TRIPOS>BOND
     1   103   104    1
     2   110   109   ar
     3   104   105    1
     4   104   107    1
     5   101   100    2
     6   109   111   ar
     7   109   108    1
     8   105   106    2
     9   107   108    1
    10   100   102   am
    11   100    99    1
    12    99    96    1
    13    97    98    2
    14    97    96    1
    15   128   127    2
    16   132   130   ar
    17   129   130    1
    18   129   126    1
    19   123   122    2
    20    96    95    1
    21   127   126    1
    22   130   131   ar
    23   126   125    1
    24   122   125   am
    25   122   121    1
    26    95    93   am
    27   112   113    1
    28   120   121    1
    29   121   124    1
    30   119   117    1
    31   113   114    1
    32   113   116    1
    33    93    94    2
    34    93    92    1
    35   115   114    2
    36   117   116    1
    37   117   118    1
    38    85    84    2
    39    92    91    1
    40    84    91   am
    41    84    83    1
    42    33    32    1
    43    11    10    1
    44    11    12    2
    45    10     9    1
    46    86    83    1
    47    86    87    1
    48    32    31    1
    49    49    47    1
    50     4     3    2
    51    83    82    1
    52    88    87    1
    53    88    89    1
    54    42    43    1
    55     9     3   am
    56    47    46    1
    57    19    17    1
    58     3     2    1
    59    46    43    1
    60    46    48    1
    61    41    40    1
    62    90    89    1
    63    31    30    1
    64    82    79   am
    65    76    73    1
    66    43    44    1
    67    13    14    1
    68    17    14    1
    69    17    18    1
    70    45    44    2
    71    39    40    1
    72    39    38    1
    73    34    35    1
    74    30    29    1
    75    80    79    2
    76    79    78    1
    77    75    74    2
    78     2     5    1
    79     2     1    1
    80    14    15    1
    81    35    38    1
    82    35    36    1
    83     5     6    1
    84    74    73    1
    85    74    77   am
    86    73    72    1
    87    16    15    2
    88    77    78    1
    89    29    26    1
    90    78    81    1
    91    72    68   am
    92    36    37    2
    93     6     8    1
    94     6     7    1
    95    26    27    1
    96    26    25    1
    97    56    54    1
    98    65    63   ar
    99    60    59    2
   100    55    54    1
   101    68    69    2
   102    68    67    1
   103    27    28    2
   104    54    51    1
   105    24    21    1
   106    62    63    1
   107    62    61    1
   108    63    64   ar
   109    67    66    1
   110    67    70    1
   111    59    66   am
   112    59    58    1
   113    71    70    1
   114    51    52    1
   115    51    50    1
   116    57    52   am
   117    57    58    1
   118    52    53    2
   119    21    22    1
   120    21    20    1
   121    61    58    1
   122    22    23    2
