@<TRIPOS>MOLECULE
tmp/4tyjA00.pdb
 217 205 0 0 0
SMALL
GASTEIGER

@<TRIPOS>ATOM
      1  N         20.8350  -21.1990   13.0570 N.3    30  LEU30      -0.1231
      2  CA        20.0450  -20.5090   12.0300 C.3    30  LEU30       0.1693
      3  C         20.6840  -20.5580   10.6410 C.2    30  LEU30       0.2592
      4  O         19.9720  -20.6690    9.6430 O.2    30  LEU30      -0.2718
      5  CB        19.8190  -19.0480   12.4340 C.3    30  LEU30       0.0284
      6  CG        18.9380  -18.8200   13.6640 C.3    30  LEU30       0.0019
      7  CD1       18.9630  -17.3510   14.0560 C.3    30  LEU30       0.0001
      8  CD2       17.5080  -19.2960   13.4210 C.3    30  LEU30       0.0001
      9  N         22.0110  -20.4530   10.5770 N.am   31  GLY31      -0.1957
     10  CA        22.7370  -20.4880    9.3040 C.3    31  GLY31       0.1869
     11  C         24.1920  -20.8920    9.4530 C.2    31  GLY31       0.2309
     12  O         24.7800  -20.7450   10.5290 O.2    31  GLY31      -0.2863
     13  N         25.5970  -18.8370   12.4070 N.3    36  VAL36      -0.1245
     14  CA        24.6030  -18.0150   13.0910 C.3    36  VAL36       0.1561
     15  C         23.7120  -18.9260   13.9310 C.2    36  VAL36       0.2260
     16  O         23.2120  -19.9340   13.4300 O.2    36  VAL36      -0.2867
     17  CB        23.7480  -17.2280   12.0800 C.3    36  VAL36       0.0252
     18  CG1       22.6970  -16.3860   12.7900 C.3    36  VAL36       0.0019
     19  CG2       24.6400  -16.3460   11.2210 C.3    36  VAL36       0.0019
     20  N         19.9100  -13.0740   17.1830 N.3    56  ALA56      -0.1231
     21  CA        20.7610  -13.9170   16.3420 C.3    56  ALA56       0.1694
     22  C         22.2230  -13.5810   16.6380 C.2    56  ALA56       0.2592
     23  O         22.5810  -12.4070   16.7440 O.2    56  ALA56      -0.2718
     24  CB        20.4420  -13.6960   14.8750 C.3    56  ALA56       0.0304
     25  N         23.0560  -14.6160   16.7650 N.am   57  VAL57      -0.1966
     26  CA        24.4480  -14.4820   17.2200 C.3    57  VAL57       0.1727
     27  C         25.4050  -15.1460   16.2290 C.2    57  VAL57       0.2616
     28  O         25.3580  -16.3610   16.0490 O.2    57  VAL57      -0.2715
     29  CB        24.6350  -15.1290   18.6140 C.3    57  VAL57       0.0290
     30  CG1       26.0620  -14.9470   19.1100 C.3    57  VAL57       0.0023
     31  CG2       23.6550  -14.5350   19.6160 C.3    57  VAL57       0.0023
     32  N         26.2600  -14.3460   15.5880 N.am   58  LYS58      -0.1977
     33  CA        27.2860  -14.8660   14.6780 C.3    58  LYS58       0.1596
     34  C         28.5630  -15.1830   15.4510 C.2    58  LYS58       0.2287
     35  O         28.9650  -14.4180   16.3270 O.2    58  LYS58      -0.2864
     36  CB        27.5920  -13.8740   13.5500 C.3    58  LYS58       0.0298
     37  CG        28.6810  -14.3510   12.5920 C.3    58  LYS58       0.0038
     38  CD        28.6580  -13.6200   11.2600 C.3    58  LYS58       0.0206
     39  CE        29.6720  -14.2210   10.2970 C.3    58  LYS58       0.1093
     40  NZ        29.6990  -13.5150    8.9870 N.3    58  LYS58      -0.1314
     41  N         33.9920   -7.1100   10.1750 N.3    75  GLU75      -0.1245
     42  CA        32.5250   -7.0990   10.0500 C.3    75  GLU75       0.1567
     43  C         31.8590   -6.3860   11.2360 C.2    75  GLU75       0.2260
     44  O         30.9290   -5.6010   11.0510 O.2    75  GLU75      -0.2867
     45  CB        31.9890   -8.5370    9.8990 C.3    75  GLU75       0.0388
     46  CG        30.4920   -8.7270   10.1550 C.3    75  GLU75       0.1160
     47  CD        29.9320  -10.0270    9.5860 C.2    75  GLU75       0.3649
     48  OE1       30.7070  -10.9690    9.3070 O.co2  75  GLU75      -0.2457
     49  OE2       28.6970  -10.1150    9.4280 O.co2  75  GLU75      -0.2457
     50  N         32.3980   -2.4860   10.8700 N.3    78  VAL78      -0.1231
     51  CA        31.5640   -1.9530    9.7860 C.3    78  VAL78       0.1692
     52  C         30.1100   -1.7780   10.2430 C.2    78  VAL78       0.2591
     53  O         29.4850   -0.7590    9.9440 O.2    78  VAL78      -0.2718
     54  CB        31.6290   -2.8470    8.5210 C.3    78  VAL78       0.0266
     55  CG1       30.5460   -2.4730    7.5160 C.3    78  VAL78       0.0020
     56  CG2       33.0020   -2.7430    7.8710 C.3    78  VAL78       0.0020
     57  N         29.5900   -2.7640   10.9740 N.am   79  MET79      -0.1979
     58  CA        28.2100   -2.7230   11.4790 C.3    79  MET79       0.1605
     59  C         27.9730   -1.6180   12.5200 C.2    79  MET79       0.2287
     60  O         26.8740   -1.0680   12.5900 O.2    79  MET79      -0.2864
     61  CB        27.7980   -4.0880   12.0440 C.3    79  MET79       0.0413
     62  CG        27.6150   -5.1500   10.9710 C.3    79  MET79       0.0598
     63  SD        27.3730   -6.8090   11.6320 S.3    79  MET79      -0.1393
     64  CE        25.6490   -6.7200   12.1140 C.3    79  MET79       0.0692
     65  N         27.7000    1.8150   10.3450 N.3    82  ILE82      -0.1245
     66  CA        26.5270    1.9360    9.4620 C.3    82  ILE82       0.1561
     67  C         25.3670    2.6440   10.1670 C.2    82  ILE82       0.2260
     68  O         24.7730    3.5700    9.6100 O.2    82  ILE82      -0.2867
     69  CB        26.0750    0.5600    8.9120 C.3    82  ILE82       0.0252
     70  CG1       27.0090    0.1160    7.7850 C.3    82  ILE82       0.0019
     71  CG2       24.6490    0.6090    8.3780 C.3    82  ILE82       0.0019
     72  CD1       26.8330   -1.3330    7.3860 C.3    82  ILE82       0.0001
     73  N         17.8800   -2.2100    7.6660 N.3    88  ILE88      -0.1231
     74  CA        19.1750   -2.8730    7.8270 C.3    88  ILE88       0.1692
     75  C         19.0640   -3.7180    9.0870 C.2    88  ILE88       0.2591
     76  O         18.4640   -3.2760   10.0680 O.2    88  ILE88      -0.2718
     77  CB        20.3340   -1.8590    7.9810 C.3    88  ILE88       0.0266
     78  CG1       20.3730   -0.8740    6.8040 C.3    88  ILE88       0.0019
     79  CG2       21.6730   -2.5760    8.1010 C.3    88  ILE88       0.0020
     80  CD1       20.4330   -1.5240    5.4430 C.3    88  ILE88       0.0001
     81  N         19.6190   -4.9290    9.0590 N.am   89  ILE89      -0.1980
     82  CA        19.6090   -5.7990   10.2400 C.3    89  ILE89       0.1595
     83  C         20.3710   -5.0940   11.3760 C.2    89  ILE89       0.2287
     84  O         21.5310   -4.7060   11.2130 O.2    89  ILE89      -0.2864
     85  CB        20.1580   -7.2180    9.9300 C.3    89  ILE89       0.0276
     86  CG1       19.8410   -8.1980   11.0690 C.3    89  ILE89       0.0022
     87  CG2       21.6520   -7.1970    9.6390 C.3    89  ILE89       0.0022
     88  CD1       18.3680   -8.5150   11.2310 C.3    89  ILE89       0.0001
     89  N         28.9250  -11.6450   17.6160 N.3   103  VAL103     -0.1245
     90  CA        28.3100  -10.4510   17.0380 C.3   103  VAL103      0.1561
     91  C         26.7940  -10.6520   17.0730 C.2   103  VAL103      0.2260
     92  O         26.2730  -11.5450   16.3980 O.2   103  VAL103     -0.2867
     93  CB        28.7910  -10.2240   15.5950 C.3   103  VAL103      0.0252
     94  CG1       28.1110   -9.0080   14.9830 C.3   103  VAL103      0.0019
     95  CG2       30.3060  -10.0640   15.5680 C.3   103  VAL103      0.0019
     96  N         22.8080   -9.5840   16.6640 N.3   105  VAL105     -0.1231
     97  CA        21.8150   -8.7750   15.9430 C.3   105  VAL105      0.1692
     98  C         20.3950   -9.2380   16.2810 C.2   105  VAL105      0.2592
     99  O         20.2090  -10.2500   16.9630 O.2   105  VAL105     -0.2718
    100  CB        22.0250   -8.8410   14.4150 C.3   105  VAL105      0.0266
    101  CG1       23.4190   -8.3670   14.0440 C.3   105  VAL105      0.0020
    102  CG2       21.7850  -10.2510   13.8940 C.3   105  VAL105      0.0020
    103  N         19.4030   -8.4850   15.8100 N.am  106  GLU106     -0.1966
    104  CA        17.9920   -8.8520   15.9810 C.3   106  GLU106      0.1733
    105  C         17.6500  -10.0930   15.1520 C.2   106  GLU106      0.2616
    106  O         18.1900  -10.2700   14.0640 O.2   106  GLU106     -0.2715
    107  CB        17.0710   -7.6810   15.6020 C.3   106  GLU106      0.0429
    108  CG        17.0560   -7.3130   14.1200 C.3   106  GLU106      0.1163
    109  CD        16.3450   -6.0030   13.8400 C.2   106  GLU106      0.3649
    110  OE1       15.3920   -5.6650   14.5770 O.co2 106  GLU106     -0.2457
    111  OE2       16.7420   -5.3110   12.8760 O.co2 106  GLU106     -0.2457
    112  N         16.7680  -10.9440   15.6730 N.am  107  CYS107     -0.1954
    113  CA        16.3360  -12.1560   14.9650 C.3   107  CYS107      0.1843
    114  C         15.1280  -11.8610   14.0810 C.2   107  CYS107      0.2625
    115  O         14.0720  -11.4740   14.5880 O.2   107  CYS107     -0.2714
    116  CB        15.9790  -13.2750   15.9470 C.3   107  CYS107      0.0997
    117  SG        15.5830  -14.8460   15.1370 S.3   107  CYS107     -0.0797
    118  N         15.2940  -12.0430   12.7690 N.am  108  ALA108     -0.1977
    119  CA        14.1990  -11.9380   11.8020 C.3   108  ALA108      0.1597
    120  C         13.5130  -13.2980   11.6990 C.2   108  ALA108      0.2287
    121  O         14.0840  -14.2440   11.1510 O.2   108  ALA108     -0.2864
    122  CB        14.7250  -11.5020   10.4470 C.3   108  ALA108      0.0319
    123  N         13.0150  -15.5950    8.3990 N.3   111  GLY111     -0.1210
    124  CA        14.2210  -16.0200    7.6890 C.3   111  GLY111      0.1956
    125  C         14.5670  -15.1350    6.5070 C.2   111  GLY111      0.2611
    126  O         14.1380  -13.9800    6.4380 O.2   111  GLY111     -0.2717
    127  N         15.3480  -15.6840    5.5760 N.am  112  ASN112     -0.1974
    128  CA        15.8000  -14.9320    4.4010 C.3   112  ASN112      0.1688
    129  C         14.6930  -14.7810    3.3500 C.2   112  ASN112      0.2292
    130  O         13.8060  -15.6330    3.2450 O.2   112  ASN112     -0.2864
    131  CB        17.0800  -15.5490    3.8010 C.3   112  ASN112      0.1181
    132  CG        16.8290  -16.8570    3.0670 C.2   112  ASN112      0.2629
    133  OD1       16.4410  -16.8590    1.8980 O.2   112  ASN112     -0.2716
    134  ND2       17.0670  -17.9790    3.7460 N.am  112  ASN112     -0.0877
    135  N         22.3220    2.7570    3.0660 N.3   143  LEU143     -0.1245
    136  CA        23.7000    2.2560    2.8890 C.3   143  LEU143      0.1561
    137  C         24.5710    3.2150    2.0780 C.2   143  LEU143      0.2260
    138  O         25.6850    3.5370    2.4900 O.2   143  LEU143     -0.2867
    139  CB        23.7170    0.8550    2.2420 C.3   143  LEU143      0.0270
    140  CG        24.0100   -0.3340    3.1640 C.3   143  LEU143      0.0019
    141  CD1       23.1950   -0.2820    4.4460 C.3   143  LEU143      0.0001
    142  CD2       23.7680   -1.6460    2.4280 C.3   143  LEU143      0.0001
    143  N         28.6100    3.2960    1.9620 N.3   148  CYS148     -0.1221
    144  CA        28.7650    1.8580    2.1380 C.3   148  CYS148      0.1808
    145  C         28.3070    1.1100    0.8820 C.2   148  CYS148      0.2601
    146  O         27.1820    1.3040    0.4120 O.2   148  CYS148     -0.2717
    147  CB        27.9550    1.4020    3.3500 C.3   148  CYS148      0.0970
    148  SG        28.1730   -0.3310    3.7840 S.3   148  CYS148     -0.0800
    149  N         29.1950    0.2680    0.3510 N.am  149  ILE149     -0.1965
    150  CA        28.9300   -0.5660   -0.8220 C.3   149  ILE149      0.1727
    151  C         28.7390   -2.0070   -0.3390 C.2   149  ILE149      0.2616
    152  O         29.6090   -2.5470    0.3480 O.2   149  ILE149     -0.2715
    153  CB        30.1080   -0.5170   -1.8250 C.3   149  ILE149      0.0290
    154  CG1       30.4540    0.9290   -2.2010 C.3   149  ILE149      0.0022
    155  CG2       29.7770   -1.3110   -3.0840 C.3   149  ILE149      0.0023
    156  CD1       31.6890    1.0510   -3.0660 C.3   149  ILE149      0.0001
    157  N         27.6150   -2.6260   -0.7010 N.am  150  HIS150     -0.1959
    158  CA        27.2770   -3.9740   -0.2190 C.3   150  HIS150      0.1787
    159  C         28.1380   -5.0460   -0.8430 C.2   150  HIS150      0.2620
    160  O         28.7640   -5.8240   -0.1210 O.2   150  HIS150     -0.2715
    161  CB        25.7970   -4.2860   -0.4520 C.3   150  HIS150      0.0785
    162  CG        25.2970   -5.4820    0.3290 C.ar  150  HIS150      0.0821
    163  ND1       25.6110   -6.7490   -0.0020 N.ar  150  HIS150     -0.2267
    164  CD2       24.4920   -5.5620    1.4600 C.ar  150  HIS150      0.1154
    165  CE1       25.0360   -7.5960    0.8670 C.ar  150  HIS150      0.1986
    166  NE2       24.3510   -6.8700    1.7620 N.ar  150  HIS150     -0.2212
    167  N         28.1460   -5.0850   -2.1820 N.am  151  ARG151     -0.1977
    168  CA        28.8970   -6.0550   -3.0310 C.3   151  ARG151      0.1597
    169  C         28.2260   -7.4080   -3.3080 C.2   151  ARG151      0.2287
    170  O         28.6230   -8.0950   -4.2510 O.2   151  ARG151     -0.2864
    171  CB        30.3410   -6.2960   -2.5540 C.3   151  ARG151      0.0334
    172  CG        31.1980   -5.0430   -2.4690 C.3   151  ARG151      0.0492
    173  CD        32.6770   -5.3940   -2.5140 C.3   151  ARG151      0.2205
    174  NE        33.5310   -4.2080   -2.4510 N.pl3 151  ARG151     -0.0865
    175  CZ        34.8450   -4.1880   -2.6920 C.cat 151  ARG151      0.5346
    176  NH1       35.5100   -5.2980   -3.0270 N.pl3 151  ARG151      0.1354
    177  NH2       35.5080   -3.0380   -2.6020 N.pl3 151  ARG151      0.1354
    178  N         16.7990  -10.3650    5.0730 N.3   159  LEU159     -0.1245
    179  CA        16.0310  -11.0590    6.1070 C.3   159  LEU159      0.1561
    180  C         14.6310  -10.4640    6.2290 C.2   159  LEU159      0.2260
    181  O         14.4060   -9.3150    5.8480 O.2   159  LEU159     -0.2867
    182  CB        16.7470  -10.9590    7.4540 C.3   159  LEU159      0.0270
    183  CG        18.0230  -11.7830    7.6100 C.3   159  LEU159      0.0019
    184  CD1       18.8000  -11.3080    8.8260 C.3   159  LEU159      0.0001
    185  CD2       17.6890  -13.2670    7.7200 C.3   159  LEU159      0.0001
    186  N         18.1530   -5.7530    5.3620 N.3   168  ILE168     -0.1231
    187  CA        19.3340   -6.0840    4.5530 C.3   168  ILE168      0.1692
    188  C         20.4420   -6.6250    5.4620 C.2   168  ILE168      0.2592
    189  O         20.6950   -6.0760    6.5390 O.2   168  ILE168     -0.2718
    190  CB        19.8640   -4.8830    3.7380 C.3   168  ILE168      0.0266
    191  CG1       18.8150   -4.4020    2.7300 C.3   168  ILE168      0.0019
    192  CG2       21.1350   -5.2650    2.9850 C.3   168  ILE168      0.0020
    193  CD1       19.2140   -3.1400    1.9940 C.3   168  ILE168      0.0001
    194  N         21.0700   -7.7130    5.0230 N.am  169  ALA169     -0.1966
    195  CA        22.1640   -8.3590    5.7440 C.3   169  ALA169      0.1728
    196  C         23.2810   -8.7480    4.7800 C.2   169  ALA169      0.2616
    197  O         23.2190   -8.4440    3.5920 O.2   169  ALA169     -0.2715
    198  CB        21.6440   -9.5890    6.4710 C.3   169  ALA169      0.0334
    199  N         24.3120   -9.3970    5.3120 N.am  170  ASP170     -0.1957
    200  CA        25.3290  -10.0580    4.4980 C.3   170  ASP170      0.1840
    201  C         25.8780  -11.2680    5.2570 C.2   170  ASP170      0.2622
    202  O         26.5060  -11.1110    6.3060 O.2   170  ASP170     -0.2715
    203  CB        26.4630   -9.0900    4.1360 C.3   170  ASP170      0.1450
    204  CG        27.4400   -9.6720    3.1110 C.2   170  ASP170      0.3671
    205  OD1       27.0890  -10.6300    2.3870 O.co2 170  ASP170     -0.2456
    206  OD2       28.5710   -9.1590    3.0230 O.co2 170  ASP170     -0.2456
    207  N         25.6290  -12.4620    4.7160 N.am  171  PHE171     -0.1974
    208  CA        26.0700  -13.7270    5.3200 C.3   171  PHE171      0.1639
    209  C         27.3640  -14.2730    4.7000 C.2   171  PHE171      0.2290
    210  O         27.7650  -15.3960    5.0040 O.2   171  PHE171     -0.2864
    211  CB        24.9500  -14.7720    5.1940 C.3   171  PHE171      0.0560
    212  CG        23.6800  -14.3910    5.9070 C.ar  171  PHE171     -0.0200
    213  CD1       23.5900  -14.4960    7.2940 C.ar  171  PHE171     -0.0042
    214  CD2       22.5690  -13.9330    5.1990 C.ar  171  PHE171     -0.0042
    215  CE1       22.4200  -14.1510    7.9600 C.ar  171  PHE171     -0.0003
    216  CE2       21.3960  -13.5860    5.8620 C.ar  171  PHE171     -0.0003
    217  CZ        21.3230  -13.6950    7.2440 C.ar  171  PHE171     -0.0000
@<TRIPOS>BOND
     1   170   169    2
     2   169   168    1
     3   155   153    1
     4   156   154    1
     5   168   171    1
     6   168   167    1
     7   176   175    1
     8   175   177    1
     9   175   174    2
    10   171   172    1
    11   173   172    1
    12   173   174    1
    13   154   153    1
    14   167   159   am
    15   153   150    1
    16   159   158    1
    17   159   160    2
    18   150   151    1
    19   150   149    1
    20   157   151   am
    21   157   158    1
    22   161   158    1
    23   161   162    1
    24   151   152    2
    25   163   162   ar
    26   163   165   ar
    27   162   164   ar
    28   149   145   am
    29   146   145    2
    30   165   166   ar
    31   145   144    1
    32   164   166   ar
    33   133   132    2
    34   143   144    1
    35   193   191    1
    36   137   138    2
    37   137   136    1
    38   144   147    1
    39   139   136    1
    40   139   140    1
    41   205   204   ar
    42   142   140    1
    43   191   190    1
    44   136   135    1
    45   192   190    1
    46   206   204   ar
    47   132   134   am
    48   132   131    1
    49   204   203    1
    50   140   141    1
    51   130   129    2
    52   147   148    1
    53   129   128    1
    54   197   196    2
    55   190   187    1
    56   131   128    1
    57   203   200    1
    58   128   127    1
    59   200   201    1
    60   200   199    1
    61   187   186    1
    62   187   188    1
    63   209   210    2
    64   209   208    1
    65   207   201   am
    66   207   208    1
    67   196   199   am
    68   196   195    1
    69   194   188   am
    70   194   195    1
    71   178   179    1
    72   211   208    1
    73   211   212    1
    74   214   216   ar
    75   214   212   ar
    76   201   202    2
    77    80    78    1
    78   188   189    2
    79   127   125   am
    80   195   198    1
    81   181   180    2
    82   216   217   ar
    83   212   213   ar
    84   179   180    1
    85   179   182    1
    86   126   125    2
    87   125   124    1
    88    78    77    1
    89   217   215   ar
    90   213   215   ar
    91    72    70    1
    92   182   183    1
    93    55    54    1
    94   183   185    1
    95   183   184    1
    96    73    74    1
    97   124   123    1
    98    70    69    1
    99    74    77    1
   100    74    75    1
   101    56    54    1
   102    77    79    1
   103    71    69    1
   104    54    51    1
   105    69    66    1
   106    40    39    1
   107    81    75   am
   108    81    82    1
   109    75    76    2
   110    10    11    1
   111    10     9    1
   112    48    47   ar
   113    49    47   ar
   114    11    12    2
   115    66    67    1
   116    66    65    1
   117    47    46    1
   118    68    67    2
   119    87    85    1
   120     4     3    2
   121    51    52    1
   122    51    50    1
   123    45    42    1
   124    45    46    1
   125    85    82    1
   126    85    86    1
   127    53    52    2
   128    42    41    1
   129    42    43    1
   130    82    83    1
   131    52    57   am
   132    39    38    1
   133   122   119    1
   134     9     3   am
   135     3     2    1
   136    62    63    1
   137    62    61    1
   138    57    58    1
   139    44    43    2
   140    86    88    1
   141   121   120    2
   142    84    83    2
   143    19    17    1
   144    38    37    1
   145    58    61    1
   146    58    59    1
   147    63    64    1
   148   120   119    1
   149   119   118    1
   150     2     5    1
   151     2     1    1
   152    17    18    1
   153    17    14    1
   154    13    14    1
   155     5     6    1
   156    59    60    2
   157    37    36    1
   158   118   114   am
   159   111   109   ar
   160    14    15    1
   161     8     6    1
   162    16    15    2
   163    36    33    1
   164     6     7    1
   165   109   108    1
   166   109   110   ar
   167   102   100    1
   168   101   100    1
   169   106   105    2
   170   114   115    2
   171   114   113    1
   172   108   107    1
   173   100    97    1
   174    33    34    1
   175    33    32    1
   176    24    21    1
   177   113   112    1
   178   113   116    1
   179    94    93    1
   180   117   116    1
   181   105   112   am
   182   105   104    1
   183    34    35    2
   184    95    93    1
   185    32    27   am
   186    93    90    1
   187   107   104    1
   188   103   104    1
   189   103    98   am
   190    97    98    1
   191    97    96    1
   192    28    27    2
   193    27    26    1
   194    98    99    2
   195    21    22    1
   196    21    20    1
   197    92    91    2
   198    22    23    2
   199    22    25   am
   200    25    26    1
   201    90    91    1
   202    90    89    1
   203    26    29    1
   204    29    30    1
   205    29    31    1
