@<TRIPOS>MOLECULE
tmp/4tylA00.pdb
 110 107 0 0 0
SMALL
GASTEIGER

@<TRIPOS>ATOM
      1  N         14.1830  -23.9870    2.8280 N.3    30  VAL30      -0.1231
      2  CA        14.2470  -23.6700    4.2450 C.3    30  VAL30       0.1692
      3  C         15.7100  -23.5900    4.7530 C.2    30  VAL30       0.2592
      4  O         15.9870  -22.9850    5.7990 O.2    30  VAL30      -0.2718
      5  CB        13.4560  -24.7220    5.0630 C.3    30  VAL30       0.0266
      6  CG1       14.1080  -26.1000    5.0000 C.3    30  VAL30       0.0020
      7  CG2       13.2530  -24.2790    6.4730 C.3    30  VAL30       0.0020
      8  N         16.6220  -24.1600    3.9890 N.am   31  PHE31      -0.1976
      9  CA        18.0360  -24.1740    4.4020 C.3    31  PHE31       0.1639
     10  C         18.8550  -23.1070    3.6600 C.2    31  PHE31       0.2290
     11  O         20.0820  -23.0940    3.7730 O.2    31  PHE31      -0.2864
     12  CB        18.6700  -25.5530    4.1750 C.3    31  PHE31       0.0560
     13  CG        17.9020  -26.6830    4.8510 C.ar   31  PHE31      -0.0200
     14  CD1       17.7090  -26.6720    6.2350 C.ar   31  PHE31      -0.0042
     15  CD2       17.3880  -27.7340    4.0860 C.ar   31  PHE31      -0.0042
     16  CE1       16.9590  -27.6860    6.8750 C.ar   31  PHE31      -0.0003
     17  CE2       16.6200  -28.7610    4.6860 C.ar   31  PHE31      -0.0003
     18  CZ        16.4240  -28.7500    6.0960 C.ar   31  PHE31      -0.0000
     19  N         18.8170  -19.6830    3.7830 N.3    33  LYS33      -0.1231
     20  CA        19.0820  -18.4140    4.4870 C.3    33  LYS33       0.1678
     21  C         19.2520  -18.7440    5.9830 C.2    33  LYS33       0.2434
     22  O         18.7350  -19.7540    6.4320 O.2    33  LYS33      -0.2733
     23  CB        17.9210  -17.4320    4.2800 C.3    33  LYS33       0.0284
     24  CG        17.7040  -17.0370    2.8480 C.3    33  LYS33       0.0035
     25  CD        16.5710  -16.0410    2.6900 C.3    33  LYS33       0.0206
     26  CE        15.3080  -16.6730    2.1480 C.3    33  LYS33       0.1093
     27  NZ        15.4800  -17.2140    0.7940 N.3    33  LYS33      -0.1314
     28  N         19.9700  -17.9030    6.7490 N.am   34  PRO34      -0.2718
     29  CA        19.9900  -18.1420    8.1900 C.3    34  PRO34       0.1535
     30  C         18.5610  -18.0990    8.7450 C.2    34  PRO34       0.2598
     31  O         17.6820  -17.4100    8.1900 O.2    34  PRO34      -0.2715
     32  CB        20.8040  -16.9680    8.7430 C.3    34  PRO34       0.0310
     33  CG        21.5720  -16.4690    7.6250 C.3    34  PRO34       0.0237
     34  CD        20.7740  -16.7290    6.3810 C.3    34  PRO34       0.0939
     35  N         18.3280  -18.8450    9.8140 N.am   35  VAL35      -0.1964
     36  CA        17.0700  -18.7490   10.5430 C.3    35  VAL35       0.1727
     37  C         16.9280  -17.3390   11.1370 C.2    35  VAL35       0.2616
     38  O         17.7830  -16.8860   11.8950 O.2    35  VAL35      -0.2715
     39  CB        16.9910  -19.8350   11.6580 C.3    35  VAL35       0.0290
     40  CG1       15.7150  -19.6820   12.4920 C.3    35  VAL35       0.0023
     41  CG2       17.0790  -21.2300   11.0520 C.3    35  VAL35       0.0023
     42  N         15.8330  -16.6650   10.7890 N.am   36  ASP36      -0.1971
     43  CA        15.5540  -15.2760   11.1880 C.3    36  ASP36       0.1709
     44  C         15.1460  -15.1690   12.6600 C.2    36  ASP36       0.2293
     45  O         14.1590  -15.7780   13.0650 O.2    36  ASP36      -0.2864
     46  CB        14.4540  -14.7270   10.2700 C.3    36  ASP36       0.1436
     47  CG        14.0170  -13.3190   10.6130 C.2    36  ASP36       0.3671
     48  OD1       14.7500  -12.5620   11.2860 O.co2  36  ASP36      -0.2456
     49  OD2       12.9080  -12.9680   10.1780 O.co2  36  ASP36      -0.2456
     50  N         11.4520  -14.4310   13.3670 N.3    39  GLU39      -0.1231
     51  CA        10.5020  -15.5270   13.2200 C.3    39  GLU39       0.1699
     52  C         10.7370  -16.5790   14.3290 C.2    39  GLU39       0.2592
     53  O          9.7810  -17.0840   14.9250 O.2    39  GLU39      -0.2718
     54  CB        10.5930  -16.1520   11.8210 C.3    39  GLU39       0.0402
     55  CG        10.2650  -15.1380   10.7250 C.3    39  GLU39       0.1161
     56  CD         8.7760  -15.1950   10.4520 C.2    39  GLU39       0.3649
     57  OE1        8.0170  -15.9810   11.0710 O.co2  39  GLU39      -0.2457
     58  OE2        8.3150  -14.4010    9.6250 O.co2  39  GLU39      -0.2457
     59  N         12.0040  -16.8750   14.6350 N.am   40  VAL40      -0.1980
     60  CA        12.3510  -17.9090   15.6120 C.3    40  VAL40       0.1595
     61  C         13.3310  -17.3800   16.6590 C.2    40  VAL40       0.2287
     62  O         14.5390  -17.5800   16.5490 O.2    40  VAL40      -0.2864
     63  CB        12.9750  -19.1340   14.9160 C.3    40  VAL40       0.0276
     64  CG1       12.9810  -20.3440   15.8440 C.3    40  VAL40       0.0022
     65  CG2       12.2340  -19.4490   13.6060 C.3    40  VAL40       0.0022
     66  N         16.0470  -19.6410   18.5620 N.3    43  TYR43      -0.1241
     67  CA        16.8910  -20.5380   17.7760 C.3    43  TYR43       0.1605
     68  C         18.3620  -20.3480   18.1300 C.2    43  TYR43       0.2264
     69  O         19.0870  -21.3310   18.3760 O.2    43  TYR43      -0.2867
     70  CB        16.6740  -20.3200   16.2950 C.3    43  TYR43       0.0534
     71  CG        17.3940  -21.3390   15.4270 C.ar   43  TYR43      -0.0201
     72  CD1       16.8080  -22.5600   15.1450 C.ar   43  TYR43      -0.0009
     73  CD2       18.6670  -21.0880   14.9090 C.ar   43  TYR43      -0.0009
     74  CE1       17.4470  -23.5020   14.3580 C.ar   43  TYR43       0.0417
     75  CE2       19.3290  -22.0570   14.0950 C.ar   43  TYR43       0.0417
     76  CZ        18.6810  -23.2410   13.8300 C.ar   43  TYR43       0.1957
     77  OH        19.2840  -24.2200   13.0650 O.3    43  TYR43      -0.2866
     78  N         18.9680  -29.1890   12.1500 N.3    82  ALA82      -0.1245
     79  CA        17.5220  -29.3330   11.8900 C.3    82  ALA82       0.1562
     80  C         16.9590  -30.5120   12.6740 C.2    82  ALA82       0.2260
     81  O         15.8270  -30.4530   13.1830 O.2    82  ALA82      -0.2867
     82  CB        17.2730  -29.4790   10.3580 C.3    82  ALA82       0.0290
     83  N         16.8300  -29.3240   16.4270 N.3    85  TYR85      -0.1227
     84  CA        15.8890  -28.2590   16.7800 C.3    85  TYR85       0.1736
     85  C         14.4230  -28.7140   16.5780 C.2    85  TYR85       0.2595
     86  O         13.4920  -28.1640   17.1980 O.2    85  TYR85      -0.2718
     87  CB        16.1490  -27.0060   15.9360 C.3    85  TYR85       0.0548
     88  CG        15.3540  -25.8390   16.4440 C.ar   85  TYR85      -0.0200
     89  CD1       15.7530  -25.1470   17.5860 C.ar   85  TYR85      -0.0009
     90  CD2       14.1480  -25.4770   15.8310 C.ar   85  TYR85      -0.0009
     91  CE1       14.9840  -24.0910   18.0930 C.ar   85  TYR85       0.0417
     92  CE2       13.3830  -24.4260   16.3290 C.ar   85  TYR85       0.0417
     93  CZ        13.8080  -23.7510   17.4530 C.ar   85  TYR85       0.1957
     94  OH        13.0690  -22.7200   17.9430 O.3    85  TYR85      -0.2866
     95  N         14.2330  -29.6880   15.6980 N.am   86  ASN86      -0.1974
     96  CA        12.8530  -30.1190   15.3230 C.3    86  ASN86       0.1688
     97  C         12.6470  -31.6000   15.5240 C.2    86  ASN86       0.2292
     98  O         12.5080  -32.3230   14.5490 O.2    86  ASN86      -0.2864
     99  CB        12.5600  -29.7970   13.8460 C.3    86  ASN86       0.1181
    100  CG        12.8980  -28.3550   13.4790 C.2    86  ASN86       0.2629
    101  OD1       12.1010  -27.4290   13.7160 O.2    86  ASN86      -0.2716
    102  ND2       14.0970  -28.1480   12.8980 N.am   86  ASN86      -0.0877
    103  N         10.5980  -31.1270    7.9740 N.3    96  ILE96      -0.1245
    104  CA        11.9290  -30.5160    7.9020 C.3    96  ILE96       0.1561
    105  C         13.0310  -31.5550    8.1530 C.2    96  ILE96       0.2260
    106  O         14.1100  -31.4870    7.5310 O.2    96  ILE96      -0.2867
    107  CB        12.0400  -29.2980    8.8440 C.3    96  ILE96       0.0252
    108  CG1       13.3530  -28.5450    8.5630 C.3    96  ILE96       0.0019
    109  CG2       12.0230  -29.7150   10.3170 C.3    96  ILE96       0.0019
    110  CD1       13.4000  -27.1610    9.2110 C.3    96  ILE96       0.0001
@<TRIPOS>BOND
     1    27    26    1
     2    26    25    1
     3    25    24    1
     4     1     2    1
     5    24    23    1
     6    10    11    2
     7    10     9    1
     8    19    20    1
     9     8     9    1
    10     8     3   am
    11    15    17   ar
    12    15    13   ar
    13    12     9    1
    14    12    13    1
    15     2     3    1
    16     2     5    1
    17    23    20    1
    18    20    21    1
    19    17    18   ar
    20     3     4    2
    21    13    14   ar
    22     6     5    1
    23     5     7    1
    24    21    22    2
    25    21    28   am
    26    18    16   ar
    27    14    16   ar
    28    34    28    1
    29    34    33    1
    30    28    29    1
    31   106   105    2
    32    33    32    1
    33   104   103    1
    34   104   105    1
    35   104   107    1
    36    31    30    2
    37    29    32    1
    38    29    30    1
    39   108   107    1
    40   108   110    1
    41    30    35   am
    42   107   109    1
    43    58    56   ar
    44    35    36    1
    45    49    47   ar
    46    46    47    1
    47    46    43    1
    48    82    79    1
    49    56    55    1
    50    56    57   ar
    51    36    37    1
    52    36    39    1
    53    47    48   ar
    54    55    54    1
    55    42    37   am
    56    42    43    1
    57    41    39    1
    58    37    38    2
    59    43    44    1
    60    39    40    1
    61    54    51    1
    62    79    78    1
    63    79    80    1
    64    44    45    2
    65    80    81    2
    66   102   100   am
    67    77    76    1
    68    51    50    1
    69    51    52    1
    70   100   101    2
    71   100    99    1
    72    65    63    1
    73    76    75   ar
    74    76    74   ar
    75    99    96    1
    76    75    73   ar
    77    52    59   am
    78    52    53    2
    79    74    72   ar
    80    98    97    2
    81    59    60    1
    82    73    71   ar
    83    63    60    1
    84    63    64    1
    85    72    71   ar
    86    96    97    1
    87    96    95    1
    88    71    70    1
    89    60    61    1
    90    95    85   am
    91    90    92   ar
    92    90    88   ar
    93    87    88    1
    94    87    84    1
    95    70    67    1
    96    92    93   ar
    97    83    84    1
    98    88    89   ar
    99    62    61    2
   100    85    84    1
   101    85    86    2
   102    93    94    1
   103    93    91   ar
   104    89    91   ar
   105    67    68    1
   106    67    66    1
   107    68    69    2
