@<TRIPOS>MOLECULE
tmp/4tyoA00.pdb
 151 141 0 0 0
SMALL
GASTEIGER

@<TRIPOS>ATOM
      1  N         13.1070   10.7400   -5.3300 N.3     9  HIS9       -0.1241
      2  CA        14.5260   10.6580   -5.0050 C.3     9  HIS9        0.1621
      3  C         15.2370    9.6310   -5.8650 C.2     9  HIS9        0.2264
      4  O         14.6040    8.7910   -6.5060 O.2     9  HIS9       -0.2867
      5  CB        14.7840   10.4470   -3.4910 C.3     9  HIS9        0.0745
      6  CG        14.6870    9.0120   -3.0060 C.ar    9  HIS9        0.0817
      7  ND1       15.6230    8.4840   -2.1190 N.ar    9  HIS9       -0.2268
      8  CD2       13.7630    8.0510   -3.2970 C.ar    9  HIS9        0.1154
      9  CE1       15.2530    7.2260   -1.9100 C.ar    9  HIS9        0.1986
     10  NE2       14.1440    6.9150   -2.6110 N.ar    9  HIS9       -0.2212
     11  N         18.4350    7.1560   -5.0790 N.3    11  LEU11      -0.1245
     12  CA        19.3310    6.6630   -4.0460 C.3    11  LEU11       0.1561
     13  C         20.4790    5.8770   -4.6690 C.2    11  LEU11       0.2260
     14  O         20.2380    4.9830   -5.4710 O.2    11  LEU11      -0.2867
     15  CB        18.5440    5.7680   -3.0490 C.3    11  LEU11       0.0270
     16  CG        19.3930    4.9580   -2.0480 C.3    11  LEU11       0.0019
     17  CD1       20.1510    5.9080   -1.0490 C.3    11  LEU11       0.0001
     18  CD2       18.5110    3.9570   -1.2900 C.3    11  LEU11       0.0001
     19  N         23.2540    3.3790   -3.2140 N.3    13  LYS13      -0.1245
     20  CA        23.7270    2.6650   -2.0200 C.3    13  LYS13       0.1561
     21  C         25.2220    2.4120   -2.1760 C.2    13  LYS13       0.2260
     22  O         25.7930    2.5580   -3.2750 O.2    13  LYS13      -0.2867
     23  CB        22.9630    1.3170   -1.8300 C.3    13  LYS13       0.0271
     24  CG        21.5050    1.4750   -1.3720 C.3    13  LYS13       0.0035
     25  CD        20.8650    0.1280   -1.0480 C.3    13  LYS13       0.0206
     26  CE        19.4710    0.3410   -0.4860 C.3    13  LYS13       0.1093
     27  NZ        18.8840   -0.9480   -0.0490 N.3    13  LYS13      -0.1314
     28  N         21.1830   -1.5060    4.3240 N.3    19  ARG19      -0.1245
     29  CA        20.6450   -2.6590    3.5760 C.3    19  ARG19       0.1563
     30  C         21.4440   -2.6910    2.2410 C.2    19  ARG19       0.2260
     31  O         20.9830   -2.1350    1.2430 O.2    19  ARG19      -0.2867
     32  CB        19.1460   -2.4740    3.2530 C.3    19  ARG19       0.0307
     33  CG        18.1620   -2.4370    4.4000 C.3    19  ARG19       0.0489
     34  CD        16.7450   -2.1950    3.8310 C.3    19  ARG19       0.2205
     35  NE        16.6300   -0.8780    3.1970 N.pl3  19  ARG19      -0.0865
     36  CZ        15.8250   -0.5670    2.1830 C.cat  19  ARG19       0.5346
     37  NH1       15.0240   -1.4800    1.6410 N.pl3  19  ARG19       0.1354
     38  NH2       15.8350    0.6730    1.7040 N.pl3  19  ARG19       0.1354
     39  N         19.8140   -4.2190   -3.4600 N.3    22  SER22      -0.1217
     40  CA        18.6920   -3.4860   -4.0190 C.3    22  SER22       0.1889
     41  C         18.0080   -4.3420   -5.0490 C.2    22  SER22       0.2288
     42  O         18.5320   -5.3890   -5.4630 O.2    22  SER22      -0.2866
     43  CB        19.1490   -2.1580   -4.6210 C.3    22  SER22       0.2089
     44  OG        19.7670   -2.3500   -5.8800 O.3    22  SER22      -0.2183
     45  N         18.7410    2.8100   -6.2800 N.3    62  ASP62      -0.1225
     46  CA        18.7860    1.6180   -5.4270 C.3    62  ASP62       0.1805
     47  C         17.5960    1.4980   -4.4620 C.2    62  ASP62       0.2598
     48  O         17.5430    0.5850   -3.6590 O.2    62  ASP62      -0.2718
     49  CB        20.1110    1.5260   -4.6760 C.3    62  ASP62       0.1424
     50  CG        21.2580    1.0820   -5.5690 C.2    62  ASP62       0.3668
     51  OD1       21.0740    0.0880   -6.3360 O.co2  62  ASP62      -0.2456
     52  OD2       22.3550    1.6800   -5.4610 O.co2  62  ASP62      -0.2456
     53  N         16.6590    2.4220   -4.5300 N.am   63  CYS63      -0.1956
     54  CA        15.4650    2.3600   -3.7030 C.3    63  CYS63       0.1843
     55  C         14.3800    1.6790   -4.5510 C.2    63  CYS63       0.2626
     56  O         14.3200    1.9150   -5.7600 O.2    63  CYS63      -0.2714
     57  CB        15.0340    3.7600   -3.2770 C.3    63  CYS63       0.0997
     58  SG        13.4780    3.7950   -2.3510 S.3    63  CYS63      -0.0797
     59  N         13.5140    0.8830   -3.9300 N.am   64  SER64      -0.1936
     60  CA        12.4200    0.2010   -4.6540 C.3    64  SER64       0.2055
     61  C         11.4550    1.2280   -5.2570 C.2    64  SER64       0.2643
     62  O         10.6770    0.8810   -6.1360 O.2    64  SER64      -0.2714
     63  CB        11.6670   -0.7620   -3.7370 C.3    64  SER64       0.2130
     64  OG        11.0830   -0.0570   -2.6550 O.3    64  SER64      -0.2179
     65  N         11.5480    2.5190   -4.8350 N.am   65  SER65      -0.1949
     66  CA        10.7130    3.5850   -5.4130 C.3    65  SER65       0.1924
     67  C         11.0870    3.8900   -6.8900 C.2    65  SER65       0.2314
     68  O         10.3510    4.5910   -7.5890 O.2    65  SER65      -0.2863
     69  CB        10.7450    4.8540   -4.5620 C.3    65  SER65       0.2116
     70  OG        12.0540    5.4100   -4.5250 O.3    65  SER65      -0.2180
     71  N         10.6340    1.9920   -9.2650 N.3    67  LYS67      -0.1231
     72  CA         9.4950    1.5120  -10.0710 C.3    67  LYS67       0.1693
     73  C          8.4460    2.6240  -10.2820 C.2    67  LYS67       0.2591
     74  O          7.7200    2.5970  -11.2750 O.2    67  LYS67      -0.2718
     75  CB         8.8760    0.2400   -9.4660 C.3    67  LYS67       0.0285
     76  CG         8.1870    0.4590   -8.1670 C.3    67  LYS67       0.0035
     77  CD         7.8840   -0.6290   -7.2040 C.3    67  LYS67       0.0206
     78  CE         7.2800   -0.1500   -5.9300 C.3    67  LYS67       0.1093
     79  NZ         8.0770    0.5720   -4.8790 N.3    67  LYS67      -0.1314
     80  N          8.4060    3.6110   -9.3590 N.am   68  ALA68      -0.1980
     81  CA         7.5060    4.7830   -9.3940 C.3    68  ALA68       0.1597
     82  C          8.2410    6.0400   -9.8600 C.2    68  ALA68       0.2287
     83  O          7.8310    7.1760   -9.5640 O.2    68  ALA68      -0.2864
     84  CB         6.8880    5.0050   -8.0180 C.3    68  ALA68       0.0319
     85  N          9.2640    8.3870   -7.1010 N.3    71  ASP71      -0.1225
     86  CA         8.2680    8.9800   -6.2090 C.3    71  ASP71       0.1805
     87  C          8.1080    8.2570   -4.8820 C.2    71  ASP71       0.2597
     88  O          7.8890    7.0390   -4.8570 O.2    71  ASP71      -0.2718
     89  CB         6.9220    9.1170   -6.9370 C.3    71  ASP71       0.1424
     90  CG         5.8090    9.7650   -6.1370 C.2    71  ASP71       0.3668
     91  OD1        6.0880   10.7630   -5.4130 O.co2  71  ASP71      -0.2456
     92  OD2        4.6470    9.3500   -6.3120 O.co2  71  ASP71      -0.2456
     93  N          8.2240    9.0130   -3.7830 N.am   72  LEU72      -0.1979
     94  CA         8.0160    8.4750   -2.4360 C.3    72  LEU72       0.1596
     95  C          6.5890    8.7810   -1.9380 C.2    72  LEU72       0.2287
     96  O          6.1820    8.2850   -0.8870 O.2    72  LEU72      -0.2864
     97  CB         9.0540    9.0750   -1.4690 C.3    72  LEU72       0.0297
     98  CG        10.4910    8.6750   -1.7610 C.3    72  LEU72       0.0022
     99  CD1       11.4470    9.5190   -0.9760 C.3    72  LEU72       0.0001
    100  CD2       10.7150    7.1690   -1.5450 C.3    72  LEU72       0.0001
    101  N         10.6830    9.8740    7.6930 N.3    80  MET80      -0.1230
    102  CA        11.8770    9.4930    6.9380 C.3    80  MET80       0.1702
    103  C         13.0890    9.7230    7.8250 C.2    80  MET80       0.2592
    104  O         12.9560   10.3740    8.8700 O.2    80  MET80      -0.2718
    105  CB        11.9880   10.3660    5.6730 C.3    80  MET80       0.0401
    106  CG        10.8240   10.2440    4.7400 C.3    80  MET80       0.0596
    107  SD        10.7370    8.6080    3.9750 S.3    80  MET80      -0.1393
    108  CE         9.5320    8.9080    2.7060 C.3    80  MET80       0.0692
    109  N         14.2830    9.2500    7.3920 N.am   81  GLN81      -0.1979
    110  CA        15.5170    9.5210    8.1420 C.3    81  GLN81       0.1601
    111  C         15.6790   11.0310    8.2150 C.2    81  GLN81       0.2287
    112  O         15.3860   11.7360    7.2290 O.2    81  GLN81      -0.2864
    113  CB        16.7340    8.8860    7.4750 C.3    81  GLN81       0.0394
    114  CG        16.6170    7.3710    7.4470 C.3    81  GLN81       0.0908
    115  CD        17.5740    6.7630    8.4120 C.2    81  GLN81       0.2608
    116  OE1       17.2670    6.5640    9.5920 O.2    81  GLN81      -0.2717
    117  NE2       18.7630    6.4660    7.9160 N.am   81  GLN81      -0.0878
    118  N         17.2400   13.1960    5.4280 N.3    84  PHE84      -0.1241
    119  CA        16.3880   13.1640    4.2580 C.3    84  PHE84       0.1605
    120  C         15.2010   14.1280    4.4760 C.2    84  PHE84       0.2264
    121  O         14.8560   14.8910    3.5850 O.2    84  PHE84      -0.2867
    122  CB        15.9250   11.7350    3.9600 C.3    84  PHE84       0.0534
    123  CG        15.2200   11.6220    2.6260 C.ar   84  PHE84      -0.0203
    124  CD1       13.8570   11.9020    2.5140 C.ar   84  PHE84      -0.0042
    125  CD2       15.9020   11.1710    1.4920 C.ar   84  PHE84      -0.0042
    126  CE1       13.2090   11.8310    1.2690 C.ar   84  PHE84      -0.0003
    127  CE2       15.2500   11.0630    0.2590 C.ar   84  PHE84      -0.0003
    128  CZ        13.9200   11.4240    0.1430 C.ar   84  PHE84      -0.0000
    129  N         22.1500    9.5140    4.2550 N.3   102  THR102     -0.1218
    130  CA        21.3640    8.8380    5.2850 C.3   102  THR102      0.1862
    131  C         22.0710    7.5040    5.5010 C.2   102  THR102      0.2287
    132  O         22.9930    7.1530    4.7290 O.2   102  THR102     -0.2866
    133  CB        19.9200    8.5600    4.8380 C.3   102  THR102      0.1770
    134  OG1       19.9300    7.5130    3.8520 O.3   102  THR102     -0.2211
    135  CG2       19.1770    9.8100    4.3670 C.3   102  THR102      0.0375
    136  N         20.8940    4.7870    4.5850 N.3   104  SER104     -0.1217
    137  CA        20.6440    3.9260    3.4100 C.3   104  SER104      0.1889
    138  C         21.6730    4.1520    2.3070 C.2   104  SER104      0.2288
    139  O         21.8650    3.2900    1.4570 O.2   104  SER104     -0.2866
    140  CB        19.2670    4.1960    2.8210 C.3   104  SER104      0.2089
    141  OG        18.2670    3.9830    3.8060 O.3   104  SER104     -0.2183
    142  N         21.5600   10.2420   -1.5190 N.3   107  HIS107     -0.1241
    143  CA        20.4080   10.5710   -2.2990 C.3   107  HIS107      0.1621
    144  C         20.5030   11.9480   -2.9610 C.2   107  HIS107      0.2264
    145  O         21.2330   12.8300   -2.5050 O.2   107  HIS107     -0.2867
    146  CB        19.1520   10.7020   -1.3770 C.3   107  HIS107      0.0745
    147  CG        18.9120    9.6520   -0.3350 C.ar  107  HIS107      0.0817
    148  ND1       17.8150    8.8400   -0.3970 N.ar  107  HIS107     -0.2268
    149  CD2       19.6240    9.3370    0.7770 C.ar  107  HIS107      0.1154
    150  CE1       17.8580    8.0690    0.6850 C.ar  107  HIS107      0.1986
    151  NE2       18.9480    8.3060    1.4010 N.ar  107  HIS107     -0.2212
@<TRIPOS>BOND
     1    74    73    2
     2    73    72    1
     3    73    80   am
     4    72    75    1
     5    72    71    1
     6    82    83    2
     7    82    81    1
     8    75    76    1
     9    81    80    1
    10    81    84    1
    11    76    77    1
    12    68    67    2
    13    77    78    1
    14    85    86    1
    15    89    86    1
    16    89    90    1
    17    67    66    1
    18     4     3    2
    19    51    50   ar
    20    92    90   ar
    21    45    46    1
    22    86    87    1
    23    90    91   ar
    24    62    61    2
    25    78    79    1
    26    44    43    1
    27     3     2    1
    28    56    55    2
    29    50    52   ar
    30    50    49    1
    31    14    13    2
    32    42    41    2
    33    46    49    1
    34    46    47    1
    35    66    65    1
    36    66    69    1
    37     1     2    1
    38    61    65   am
    39    61    60    1
    40    11    12    1
    41    41    40    1
    42     2     5    1
    43    87    88    2
    44    87    93   am
    45    13    12    1
    46    60    59    1
    47    60    63    1
    48    43    40    1
    49    69    70    1
    50    55    59   am
    51    55    54    1
    52    53    47   am
    53    53    54    1
    54    47    48    2
    55    12    15    1
    56    40    39    1
    57    93    94    1
    58    63    64    1
    59    54    57    1
    60     5     6    1
    61     8     6   ar
    62     8    10   ar
    63    57    58    1
    64    22    21    2
    65    19    20    1
    66    15    16    1
    67     6     7   ar
    68   144   145    2
    69   144   143    1
    70    10     9   ar
    71    94    95    1
    72    94    97    1
    73   143   142    1
    74   143   146    1
    75    21    20    1
    76     7     9   ar
    77    16    18    1
    78    16    17    1
    79    20    23    1
    80    95    96    2
    81    23    24    1
    82    98   100    1
    83    98    97    1
    84    98    99    1
    85   146   147    1
    86    24    25    1
    87    25    26    1
    88    26    27    1
    89   148   147   ar
    90   148   150   ar
    91   147   149   ar
    92   128   127   ar
    93   128   126   ar
    94   127   125   ar
    95   150   151   ar
    96   149   151   ar
    97    31    30    2
    98   126   124   ar
    99   139   138    2
   100   125   123   ar
   101    37    36    1
   102    38    36    1
   103    36    35    2
   104    30    29    1
   105   138   137    1
   106   124   123   ar
   107   123   122    1
   108   108   107    1
   109   140   137    1
   110   140   141    1
   111    35    34    1
   112    32    29    1
   113    32    33    1
   114   137   136    1
   115    29    28    1
   116   121   120    2
   117    34    33    1
   118   134   133    1
   119   122   119    1
   120   107   106    1
   121   129   130    1
   122   119   120    1
   123   119   118    1
   124   135   133    1
   125   132   131    2
   126   106   105    1
   127   133   130    1
   128   130   131    1
   129   105   102    1
   130   102   101    1
   131   102   103    1
   132   112   111    2
   133   109   103   am
   134   109   110    1
   135   114   113    1
   136   114   115    1
   137   113   110    1
   138   103   104    2
   139   117   115   am
   140   110   111    1
   141   115   116    2
