@<TRIPOS>MOLECULE
tmp/4tytA00.pdb
 114 110 0 0 0
SMALL
GASTEIGER

@<TRIPOS>ATOM
      1  N         67.5120   15.0880   20.1950 N.3    30  VAL30      -0.1245
      2  CA        67.6230   13.7180   20.6900 C.3    30  VAL30       0.1561
      3  C         67.5150   12.7250   19.5350 C.2    30  VAL30       0.2260
      4  O         66.4840   12.6770   18.8560 O.2    30  VAL30      -0.2867
      5  CB        66.5190   13.3940   21.7200 C.3    30  VAL30       0.0252
      6  CG1       66.7400   12.0110   22.3380 C.3    30  VAL30       0.0019
      7  CG2       66.4640   14.4620   22.8000 C.3    30  VAL30       0.0019
      8  N         59.5650   10.2520   15.6660 N.3    50  TRP50      -0.1241
      9  CA        59.0760   11.2470   16.6150 C.3    50  TRP50       0.1605
     10  C         57.7320   11.8630   16.2490 C.2    50  TRP50       0.2264
     11  O         56.9450   12.2050   17.1290 O.2    50  TRP50      -0.2867
     12  CB        60.1040   12.3710   16.7580 C.3    50  TRP50       0.0550
     13  CG        61.4020   11.9320   17.3430 C.ar   50  TRP50       0.0003
     14  CD1       62.5000   11.4840   16.6670 C.ar   50  TRP50       0.0946
     15  CD2       61.7450   11.9030   18.7340 C.ar   50  TRP50       0.0152
     16  NE1       63.5100   11.1810   17.5510 N.ar   50  TRP50      -0.2442
     17  CE2       63.0720   11.4260   18.8270 C.ar   50  TRP50       0.0810
     18  CE3       61.0590   12.2350   19.9090 C.ar   50  TRP50       0.0012
     19  CZ2       63.7260   11.2670   20.0510 C.ar   50  TRP50       0.0191
     20  CZ3       61.7150   12.0820   21.1260 C.ar   50  TRP50       0.0001
     21  CH2       63.0340   11.6000   21.1850 C.ar   50  TRP50       0.0015
     22  N         56.8750    0.6440   22.2430 N.3    77  HIS77      -0.1241
     23  CA        56.1080    1.1700   23.3810 C.3    77  HIS77       0.1621
     24  C         55.4250    2.4660   22.9510 C.2    77  HIS77       0.2264
     25  O         55.5610    2.8780   21.8100 O.2    77  HIS77      -0.2867
     26  CB        56.9500    1.3500   24.6690 C.3    77  HIS77       0.0745
     27  CG        57.9880    2.4330   24.6370 C.ar   77  HIS77       0.0817
     28  ND1       59.2590    2.2330   24.1380 N.ar   77  HIS77      -0.2268
     29  CD2       57.9830    3.6880   25.1510 C.ar   77  HIS77       0.1154
     30  CE1       59.9680    3.3360   24.2870 C.ar   77  HIS77       0.1986
     31  NE2       59.2230    4.2330   24.9080 N.ar   77  HIS77      -0.2212
     32  N         55.5430    5.7470   23.7110 N.3    79  HIS79      -0.1226
     33  CA        56.0950    7.1010   23.7220 C.3    79  HIS79       0.1752
     34  C         56.2360    7.6310   22.2920 C.2    79  HIS79       0.2596
     35  O         56.3220    6.8610   21.3450 O.2    79  HIS79      -0.2718
     36  CB        57.4550    7.1240   24.4320 C.3    79  HIS79       0.0759
     37  CG        57.3620    7.0970   25.9270 C.ar   79  HIS79       0.0818
     38  ND1       58.3890    6.6400   26.7280 N.ar   79  HIS79      -0.2268
     39  CD2       56.3770    7.4920   26.7680 C.ar   79  HIS79       0.1154
     40  CE1       58.0410    6.7600   27.9960 C.ar   79  HIS79       0.1986
     41  NE2       56.8230    7.2660   28.0470 N.ar   79  HIS79      -0.2212
     42  N         56.2970    8.9530   22.1530 N.am   80  ALA80      -0.1966
     43  CA        56.3080    9.6050   20.8520 C.3    80  ALA80       0.1728
     44  C         57.4650    9.1930   19.9480 C.2    80  ALA80       0.2616
     45  O         57.2900    9.1200   18.7450 O.2    80  ALA80      -0.2715
     46  CB        56.3200   11.1130   21.0350 C.3    80  ALA80       0.0334
     47  N         58.6490    8.9420   20.4990 N.am   81  ASP81      -0.1971
     48  CA        59.7670    8.5730   19.6350 C.3    81  ASP81       0.1709
     49  C         59.4490    7.2760   18.9120 C.2    81  ASP81       0.2293
     50  O         59.8960    7.0680   17.7850 O.2    81  ASP81      -0.2864
     51  CB        61.0900    8.4710   20.4220 C.3    81  ASP81       0.1436
     52  CG        61.0620    7.4280   21.5370 C.2    81  ASP81       0.3671
     53  OD1       62.1380    6.8420   21.8040 O.co2  81  ASP81      -0.2456
     54  OD2       60.0020    7.2050   22.1590 O.co2  81  ASP81      -0.2456
     55  N         61.7460    0.5540   31.2410 N.3   140  HIS140     -0.1241
     56  CA        61.6550    1.9320   30.7810 C.3   140  HIS140      0.1621
     57  C         60.2020    2.4110   30.7820 C.2   140  HIS140      0.2264
     58  O         59.9120    3.5480   31.1460 O.2   140  HIS140     -0.2867
     59  CB        62.2520    2.0710   29.3830 C.3   140  HIS140      0.0745
     60  CG        61.8980    3.3570   28.7070 C.ar  140  HIS140      0.0817
     61  ND1       62.3840    4.5770   29.1290 N.ar  140  HIS140     -0.2268
     62  CD2       61.0870    3.6140   27.6530 C.ar  140  HIS140      0.1154
     63  CE1       61.9000    5.5280   28.3490 C.ar  140  HIS140      0.1986
     64  NE2       61.1030    4.9700   27.4530 N.ar  140  HIS140     -0.2212
     65  N         63.9450    1.1600   24.1120 N.3   159  CYS159     -0.1235
     66  CA        64.3340    2.1180   25.1300 C.3   159  CYS159      0.1677
     67  C         64.5020    1.4510   26.4980 C.2   159  CYS159      0.2270
     68  O         64.9820    2.0630   27.4390 O.2   159  CYS159     -0.2867
     69  CB        63.3190    3.2500   25.1310 C.3   159  CYS159      0.0956
     70  SG        63.2270    4.0080   23.4480 S.3   159  CYS159     -0.0801
     71  N         69.7980    0.8660   27.3740 N.3   162  LYS162     -0.1245
     72  CA        70.5800    2.0990   27.2940 C.3   162  LYS162      0.1561
     73  C         71.8970    1.8910   26.5410 C.2   162  LYS162      0.2260
     74  O         72.5450    0.8470   26.6720 O.2   162  LYS162     -0.2867
     75  CB        70.8600    2.6280   28.7110 C.3   162  LYS162      0.0271
     76  CG        69.6080    3.0410   29.4770 C.3   162  LYS162      0.0035
     77  CD        68.8740    4.1370   28.7060 C.3   162  LYS162      0.0206
     78  CE        67.8440    4.8280   29.5430 C.3   162  LYS162      0.1093
     79  NZ        67.3010    6.0290   28.8520 N.3   162  LYS162     -0.1314
     80  N         67.7620    8.2640   32.2210 N.3   170  GLY170     -0.1210
     81  CA        66.9590    9.2130   31.4700 C.3   170  GLY170      0.1956
     82  C         65.6490    9.4860   32.1870 C.2   170  GLY170      0.2611
     83  O         65.5810    9.4130   33.4110 O.2   170  GLY170     -0.2717
     84  N         64.5940    9.7870   31.4380 N.am  171  ASN171     -0.1974
     85  CA        63.3240   10.1100   32.0700 C.3   171  ASN171      0.1688
     86  C         62.6590    8.8430   32.5820 C.2   171  ASN171      0.2292
     87  O         62.3270    7.9540   31.8010 O.2   171  ASN171     -0.2864
     88  CB        62.4070   10.8490   31.0950 C.3   171  ASN171      0.1181
     89  CG        61.1470   11.3630   31.7620 C.2   171  ASN171      0.2629
     90  OD1       60.2960   10.5820   32.1780 O.2   171  ASN171     -0.2716
     91  ND2       61.0230   12.6870   31.8680 N.am  171  ASN171     -0.0877
     92  N         59.8140    8.8370   34.5020 N.3   173  ALA173     -0.1231
     93  CA        58.4540    9.1750   34.9160 C.3   173  ALA173      0.1694
     94  C         57.4940    8.0050   34.6950 C.2   173  ALA173      0.2592
     95  O         56.6220    7.7420   35.5230 O.2   173  ALA173     -0.2718
     96  CB        57.9640   10.4060   34.1630 C.3   173  ALA173      0.0304
     97  N         57.6730    7.2990   33.5820 N.am  174  ASP174     -0.1974
     98  CA        56.8190    6.1640   33.2380 C.3   174  ASP174      0.1709
     99  C         57.4920    4.8270   33.4850 C.2   174  ASP174      0.2293
    100  O         57.0070    3.7990   33.0150 O.2   174  ASP174     -0.2864
    101  CB        56.4010    6.2480   31.7680 C.3   174  ASP174      0.1436
    102  CG        55.5670    7.4790   31.4670 C.2   174  ASP174      0.3671
    103  OD1       54.8730    7.9810   32.3840 O.co2 174  ASP174     -0.2456
    104  OD2       55.6030    7.9470   30.3130 O.co2 174  ASP174     -0.2456
    105  N         68.0900    4.6250   21.7620 N.3   201  HIS201     -0.1241
    106  CA        68.8630    5.8220   21.4770 C.3   201  HIS201      0.1621
    107  C         70.3350    5.4760   21.6000 C.2   201  HIS201      0.2264
    108  O         70.7180    4.7550   22.5090 O.2   201  HIS201     -0.2867
    109  CB        68.5060    6.9490   22.4510 C.3   201  HIS201      0.0745
    110  CG        67.0360    7.1780   22.5770 C.ar  201  HIS201      0.0817
    111  ND1       66.3580    8.0860   21.7910 N.ar  201  HIS201     -0.2268
    112  CD2       66.1060    6.5920   23.3670 C.ar  201  HIS201      0.1154
    113  CE1       65.0750    8.0580   22.1000 C.ar  201  HIS201      0.1986
    114  NE2       64.8930    7.1560   23.0490 N.ar  201  HIS201     -0.2212
@<TRIPOS>BOND
     1     8     9    1
     2    10     9    1
     3    10    11    2
     4     9    12    1
     5    14    13   ar
     6    14    16   ar
     7    12    13    1
     8    13    15   ar
     9    16    17   ar
    10    50    49    2
    11    15    17   ar
    12    15    18   ar
    13    45    44    2
    14    17    19   ar
    15     4     3    2
    16    49    48    1
    17     3     2    1
    18    48    51    1
    19    48    47    1
    20    18    20   ar
    21    44    47   am
    22    44    43    1
    23    19    21   ar
    24     1     2    1
    25    51    52    1
    26     2     5    1
    27    43    46    1
    28    43    42    1
    29    20    21   ar
    30    35    34    2
    31   106   107    1
    32   106   105    1
    33   106   109    1
    34    52    53   ar
    35    52    54   ar
    36   107   108    2
    37     5     6    1
    38     5     7    1
    39   111   113   ar
    40   111   110   ar
    41    25    24    2
    42   113   114   ar
    43    42    34   am
    44    22    23    1
    45    34    33    1
    46   109   110    1
    47   110   112   ar
    48    24    23    1
    49   114   112   ar
    50    23    26    1
    51    70    69    1
    52    32    33    1
    53    33    36    1
    54    65    66    1
    55    28    30   ar
    56    28    27   ar
    57    30    31   ar
    58    36    37    1
    59    27    26    1
    60    27    29   ar
    61    31    29   ar
    62    66    69    1
    63    66    67    1
    64    37    38   ar
    65    37    39   ar
    66    67    68    2
    67    73    74    2
    68    73    72    1
    69    38    40   ar
    70    39    41   ar
    71    72    71    1
    72    72    75    1
    73    64    62   ar
    74    64    63   ar
    75    62    60   ar
    76    40    41   ar
    77    63    61   ar
    78    77    76    1
    79    77    78    1
    80    60    61   ar
    81    60    59    1
    82    75    76    1
    83    79    78    1
    84    59    56    1
    85   104   102   ar
    86    56    57    1
    87    56    55    1
    88    57    58    2
    89    88    89    1
    90    88    85    1
    91    84    85    1
    92    84    82   am
    93   102   101    1
    94   102   103   ar
    95    81    82    1
    96    81    80    1
    97    89    91   am
    98    89    90    2
    99   101    98    1
   100    87    86    2
   101    85    86    1
   102    82    83    2
   103   100    99    2
   104    98    99    1
   105    98    97    1
   106    97    94   am
   107    96    93    1
   108    92    93    1
   109    94    93    1
   110    94    95    2
