@<TRIPOS>MOLECULE
tmp/4tywA00.pdb
 186 178 0 0 0
SMALL
GASTEIGER

@<TRIPOS>ATOM
      1  N        -16.4980   42.6240  -18.0660 N.3    39  PHE39      -0.1228
      2  CA       -16.8600   41.6340  -19.0720 C.3    39  PHE39       0.1721
      3  C        -16.4660   42.1610  -20.4510 C.2    39  PHE39       0.2437
      4  O        -16.4900   43.3710  -20.6750 O.2    39  PHE39      -0.2733
      5  CB       -18.3610   41.3250  -19.0320 C.3    39  PHE39       0.0547
      6  CG       -18.8080   40.5960  -17.7900 C.ar   39  PHE39      -0.0202
      7  CD1      -18.0100   39.6280  -17.2030 C.ar   39  PHE39      -0.0042
      8  CD2      -20.0380   40.8780  -17.2160 C.ar   39  PHE39      -0.0042
      9  CE1      -18.4260   38.9600  -16.0670 C.ar   39  PHE39      -0.0003
     10  CE2      -20.4590   40.2120  -16.0790 C.ar   39  PHE39      -0.0003
     11  CZ       -19.6530   39.2530  -15.5050 C.ar   39  PHE39      -0.0000
     12  N        -16.1000   41.2610  -21.3800 N.am   40  PRO40      -0.2718
     13  CA       -15.7560   41.7190  -22.7320 C.3    40  PRO40       0.1535
     14  C        -16.9150   42.4500  -23.4000 C.2    40  PRO40       0.2599
     15  O        -16.7050   43.3970  -24.1580 O.2    40  PRO40      -0.2715
     16  CB       -15.4330   40.4180  -23.4780 C.3    40  PRO40       0.0310
     17  CG       -15.1230   39.4240  -22.4160 C.3    40  PRO40       0.0237
     18  CD       -15.9720   39.8000  -21.2460 C.3    40  PRO40       0.0939
     19  N        -18.1300   42.0030  -23.1060 N.am   41  GLY41      -0.1941
     20  CA       -19.3300   42.5860  -23.6740 C.3    41  GLY41       0.2014
     21  C        -20.5190   41.6950  -23.3810 C.2    41  GLY41       0.2639
     22  O        -20.3560   40.4900  -23.1960 O.2    41  GLY41      -0.2714
     23  N        -21.7100   42.2880  -23.3410 N.am   42  LEU42      -0.1963
     24  CA       -22.9330   41.5640  -23.0010 C.3    42  LEU42       0.1728
     25  C        -23.1020   40.3010  -23.8360 C.2    42  LEU42       0.2616
     26  O        -22.8330   40.2960  -25.0370 O.2    42  LEU42      -0.2715
     27  CB       -24.1550   42.4680  -23.1850 C.3    42  LEU42       0.0311
     28  CG       -24.1890   43.7390  -22.3340 C.3    42  LEU42       0.0022
     29  CD1      -25.3920   44.5910  -22.7060 C.3    42  LEU42       0.0001
     30  CD2      -24.2110   43.3990  -20.8520 C.3    42  LEU42       0.0001
     31  N        -23.5450   39.2310  -23.1840 N.am   43  THR43      -0.1951
     32  CA       -23.7760   37.9600  -23.8570 C.3    43  THR43       0.1897
     33  C        -24.9810   38.0820  -24.7890 C.2    43  THR43       0.2313
     34  O        -25.7920   38.9960  -24.6300 O.2    43  THR43      -0.2863
     35  CB       -24.0100   36.8230  -22.8430 C.3    43  THR43       0.1794
     36  OG1      -25.1980   37.0870  -22.0870 O.3    43  THR43      -0.2208
     37  CG2      -22.8270   36.7000  -21.8920 C.3    43  THR43       0.0378
     38  N        -28.2980   38.3740  -23.0600 N.3    46  GLN46      -0.1245
     39  CA       -28.4230   39.6440  -22.3540 C.3    46  GLN46       0.1566
     40  C        -28.7520   40.7790  -23.3170 C.2    46  GLN46       0.2260
     41  O        -29.6020   41.6200  -23.0310 O.2    46  GLN46      -0.2867
     42  CB       -27.1350   39.9570  -21.5930 C.3    46  GLN46       0.0367
     43  CG       -26.8800   39.0350  -20.4130 C.3    46  GLN46       0.0905
     44  CD       -25.4710   39.1580  -19.8710 C.2    46  GLN46       0.2608
     45  OE1      -24.7160   40.0430  -20.2730 O.2    46  GLN46      -0.2717
     46  NE2      -25.1070   38.2660  -18.9550 N.am   46  GLN46      -0.0878
     47  N        -26.3210   26.9570  -21.6890 N.3    67  THR67      -0.1203
     48  CA       -25.7250   27.0170  -20.3590 C.3    67  THR67       0.1994
     49  C        -24.4420   27.8410  -20.3360 C.2    67  THR67       0.2618
     50  O        -23.6490   27.8010  -21.2770 O.2    67  THR67      -0.2717
     51  CB       -25.4110   25.6030  -19.8260 C.3    67  THR67       0.1784
     52  OG1      -24.6290   24.8870  -20.7910 O.3    67  THR67      -0.2211
     53  CG2      -26.6930   24.8330  -19.5520 C.3    67  THR67       0.0376
     54  N        -24.2480   28.5860  -19.2520 N.am   68  GLY68      -0.1942
     55  CA       -23.0300   29.3480  -19.0410 C.3    68  GLY68       0.2014
     56  C        -22.9420   30.6400  -19.8330 C.2    68  GLY68       0.2640
     57  O        -21.8680   31.2370  -19.9250 O.2    68  GLY68      -0.2714
     58  N        -24.0650   31.0800  -20.3930 N.am   69  THR69      -0.1936
     59  CA       -24.0910   32.2750  -21.2350 C.3    69  THR69       0.2028
     60  C        -24.7280   33.4710  -20.5230 C.2    69  THR69       0.2643
     61  O        -25.2450   34.3840  -21.1650 O.2    69  THR69      -0.2714
     62  CB       -24.8460   32.0070  -22.5510 C.3    69  THR69       0.1808
     63  OG1      -26.2120   31.6760  -22.2700 O.3    69  THR69      -0.2208
     64  CG2      -24.1920   30.8610  -23.3140 C.3    69  THR69       0.0379
     65  N        -24.6860   33.4570  -19.1930 N.am   70  GLY70      -0.1939
     66  CA       -25.0820   34.6050  -18.3940 C.3    70  GLY70       0.2014
     67  C        -26.5630   34.9420  -18.4080 C.2    70  GLY70       0.2639
     68  O        -26.9350   36.1030  -18.5880 O.2    70  GLY70      -0.2714
     69  N        -27.4110   33.9390  -18.2050 N.am   71  LYS71      -0.1963
     70  CA       -28.8520   34.1690  -18.1350 C.3    71  LYS71       0.1728
     71  C        -29.2440   34.8710  -16.8370 C.2    71  LYS71       0.2617
     72  O        -30.2670   35.5500  -16.7760 O.2    71  LYS71      -0.2715
     73  CB       -29.6190   32.8500  -18.2580 C.3    71  LYS71       0.0311
     74  CG       -29.7060   32.3060  -19.6780 C.3    71  LYS71       0.0038
     75  CD       -30.6240   31.0900  -19.7650 C.3    71  LYS71       0.0206
     76  CE       -30.0420   29.8750  -19.0610 C.3    71  LYS71       0.1093
     77  NZ       -28.8000   29.3800  -19.7170 N.3    71  LYS71      -0.1314
     78  N        -28.4290   34.7060  -15.8010 N.am   72  THR72      -0.1937
     79  CA       -28.7320   35.2880  -14.4990 C.3    72  THR72       0.2028
     80  C        -28.7730   36.8150  -14.5670 C.2    72  THR72       0.2642
     81  O        -29.7380   37.4350  -14.1210 O.2    72  THR72      -0.2714
     82  CB       -27.7040   34.8530  -13.4420 C.3    72  THR72       0.1808
     83  OG1      -27.5210   33.4340  -13.5070 O.3    72  THR72      -0.2208
     84  CG2      -28.1710   35.2400  -12.0470 C.3    72  THR72       0.0379
     85  N        -27.7270   37.4190  -15.1220 N.am   73  PHE73      -0.1973
     86  CA       -27.6780   38.8710  -15.2620 C.3    73  PHE73       0.1639
     87  C        -28.6570   39.3570  -16.3250 C.2    73  PHE73       0.2290
     88  O        -29.0180   40.5330  -16.3520 O.2    73  PHE73      -0.2864
     89  CB       -26.2600   39.3390  -15.6100 C.3    73  PHE73       0.0560
     90  CG       -25.2990   39.3140  -14.4490 C.ar   73  PHE73      -0.0200
     91  CD1      -25.7190   39.6200  -13.1640 C.ar   73  PHE73      -0.0042
     92  CD2      -23.9680   38.9910  -14.6500 C.ar   73  PHE73      -0.0042
     93  CE1      -24.8330   39.5980  -12.1040 C.ar   73  PHE73      -0.0003
     94  CE2      -23.0760   38.9670  -13.5940 C.ar   73  PHE73      -0.0003
     95  CZ       -23.5080   39.2720  -12.3210 C.ar   73  PHE73      -0.0000
     96  N        -27.1080   31.0800   -4.8410 N.3   108  GLN108     -0.1245
     97  CA       -26.1650   31.5550   -5.8450 C.3   108  GLN108      0.1566
     98  C        -26.6670   32.8500   -6.4740 C.2   108  GLN108      0.2260
     99  O        -25.9190   33.8200   -6.5940 O.2   108  GLN108     -0.2867
    100  CB       -25.9440   30.4990   -6.9270 C.3   108  GLN108      0.0367
    101  CG       -25.0580   30.9690   -8.0710 C.3   108  GLN108      0.0905
    102  CD       -24.7720   29.8740   -9.0750 C.2   108  GLN108      0.2608
    103  OE1      -23.9560   28.9860   -8.8290 O.2   108  GLN108     -0.2717
    104  NE2      -25.4440   29.9330  -10.2190 N.am  108  GLN108     -0.0878
    105  N        -25.0930   36.6580   -6.6090 N.3   112  GLU112     -0.1245
    106  CA       -24.8730   37.4460   -7.8150 C.3   112  GLU112      0.1567
    107  C        -25.4620   38.8460   -7.6590 C.2   112  GLU112      0.2260
    108  O        -24.9060   39.8200   -8.1700 O.2   112  GLU112     -0.2867
    109  CB       -25.4750   36.7490   -9.0340 C.3   112  GLU112      0.0388
    110  CG       -24.7910   35.4430   -9.3940 C.3   112  GLU112      0.1160
    111  CD       -23.3320   35.6300   -9.7670 C.2   112  GLU112      0.3649
    112  OE1      -23.0580   36.3350  -10.7610 O.co2 112  GLU112     -0.2457
    113  OE2      -22.4620   35.0730   -9.0630 O.co2 112  GLU112     -0.2457
    114  N        -23.0260   40.6980   -5.6570 N.3   115  LYS115     -0.1245
    115  CA       -21.8900   41.1210   -6.4670 C.3   115  LYS115      0.1561
    116  C        -22.1840   42.4620   -7.1290 C.2   115  LYS115      0.2260
    117  O        -21.3030   43.3140   -7.2390 O.2   115  LYS115     -0.2867
    118  CB       -21.5540   40.0730   -7.5280 C.3   115  LYS115      0.0271
    119  CG       -20.8390   38.8480   -6.9860 C.3   115  LYS115      0.0035
    120  CD       -20.6700   37.7880   -8.0630 C.3   115  LYS115      0.0206
    121  CE       -19.9420   36.5630   -7.5370 C.3   115  LYS115      0.1093
    122  NZ       -19.7620   35.5290   -8.5930 N.3   115  LYS115     -0.1314
    123  N        -36.4590   30.8660  -12.9920 N.3   180  ASP180     -0.1225
    124  CA       -35.1810   30.3800  -13.4970 C.3   180  ASP180      0.1805
    125  C        -35.2480   28.8570  -13.5650 C.2   180  ASP180      0.2597
    126  O        -35.8270   28.2220  -12.6830 O.2   180  ASP180     -0.2718
    127  CB       -34.0230   30.8440  -12.6120 C.3   180  ASP180      0.1424
    128  CG       -32.6630   30.5680  -13.2330 C.2   180  ASP180      0.3668
    129  OD1      -32.6050   30.2650  -14.4440 O.co2 180  ASP180     -0.2456
    130  OD2      -31.6470   30.6650  -12.5120 O.co2 180  ASP180     -0.2456
    131  N        -34.6610   28.2800  -14.6100 N.am  181  GLU181     -0.1979
    132  CA       -34.8350   26.8610  -14.9040 C.3   181  GLU181      0.1602
    133  C        -36.3290   26.5750  -15.0250 C.2   181  GLU181      0.2287
    134  O        -36.8500   25.6400  -14.4140 O.2   181  GLU181     -0.2864
    135  CB       -34.1940   25.9880  -13.8210 C.3   181  GLU181      0.0415
    136  CG       -32.7350   26.3230  -13.5350 C.3   181  GLU181      0.1163
    137  CD       -31.8320   26.0780  -14.7290 C.2   181  GLU181      0.3649
    138  OE1      -32.2410   25.3320  -15.6440 O.co2 181  GLU181     -0.2457
    139  OE2      -30.7110   26.6320  -14.7530 O.co2 181  GLU181     -0.2457
    140  N        -28.0020   25.1470  -13.1960 N.3   352  GLY352     -0.1225
    141  CA       -27.7680   26.4960  -12.7130 C.3   352  GLY352      0.1811
    142  C        -26.4410   26.7680  -12.0330 C.2   352  GLY352      0.2280
    143  O        -25.8570   27.8330  -12.2300 O.2   352  GLY352     -0.2866
    144  N        -22.9080   27.4820  -10.8950 N.3   354  ASP354     -0.1239
    145  CA       -21.8080   28.0420  -11.6660 C.3   354  ASP354      0.1674
    146  C        -20.4930   27.8680  -10.9220 C.2   354  ASP354      0.2266
    147  O        -20.1820   28.6300  -10.0070 O.2   354  ASP354     -0.2867
    148  CB       -22.0620   29.5250  -11.9500 C.3   354  ASP354      0.1410
    149  CG       -20.9710   30.1530  -12.7920 C.2   354  ASP354      0.3668
    150  OD1      -20.6210   29.5770  -13.8430 O.co2 354  ASP354     -0.2456
    151  OD2      -20.4590   31.2220  -12.3980 O.co2 354  ASP354     -0.2456
    152  N        -16.6170   28.0500  -11.5810 N.3   356  PRO356     -0.2116
    153  CA       -15.6520   28.4860  -12.5980 C.3   356  PRO356      0.1372
    154  C        -14.6070   27.4340  -12.9570 C.2   356  PRO356      0.2244
    155  O        -14.0710   26.7600  -12.0770 O.2   356  PRO356     -0.2868
    156  CB       -14.9790   29.6980  -11.9450 C.3   356  PRO356      0.0268
    157  CG       -15.9680   30.1970  -10.9610 C.3   356  PRO356      0.0207
    158  CD       -16.6570   28.9780  -10.4370 C.3   356  PRO356      0.0892
    159  N        -22.3250   22.2110  -16.7890 N.3   379  ARG379     -0.1245
    160  CA       -21.5860   22.7210  -15.6380 C.3   379  ARG379      0.1563
    161  C        -20.1540   23.0950  -16.0290 C.2   379  ARG379      0.2260
    162  O        -19.4950   23.8600  -15.3240 O.2   379  ARG379     -0.2867
    163  CB       -21.5660   21.6970  -14.4960 C.3   379  ARG379      0.0307
    164  CG       -22.9310   21.3510  -13.8940 C.3   379  ARG379      0.0489
    165  CD       -23.8220   22.5740  -13.6910 C.3   379  ARG379      0.2205
    166  NE       -24.7000   22.7810  -14.8400 N.pl3 379  ARG379     -0.0865
    167  CZ       -25.3230   23.9190  -15.1260 C.cat 379  ARG379      0.5346
    168  NH1      -25.1630   24.9890  -14.3570 N.pl3 379  ARG379      0.1354
    169  NH2      -26.1000   23.9880  -16.1980 N.pl3 379  ARG379      0.1354
    170  N        -18.1900   27.0110  -19.3650 N.3   382  ARG382     -0.1231
    171  CA       -19.0000   28.1680  -18.9940 C.3   382  ARG382      0.1694
    172  C        -18.2240   29.4710  -19.1590 C.2   382  ARG382      0.2592
    173  O        -17.0230   29.5280  -18.8920 O.2   382  ARG382     -0.2718
    174  CB       -19.4870   28.0320  -17.5500 C.3   382  ARG382      0.0321
    175  CG       -20.3240   26.7870  -17.3000 C.3   382  ARG382      0.0489
    176  CD       -20.7540   26.6770  -15.8440 C.3   382  ARG382      0.2205
    177  NE       -21.7320   27.6970  -15.4750 N.pl3 382  ARG382     -0.0865
    178  CZ       -23.0160   27.6600  -15.8180 C.cat 382  ARG382      0.5346
    179  NH1      -23.4830   26.6600  -16.5540 N.pl3 382  ARG382      0.1354
    180  NH2      -23.8340   28.6310  -15.4330 N.pl3 382  ARG382      0.1354
    181  N        -18.9250   30.5110  -19.6000 N.am  383  SER383     -0.1952
    182  CA       -18.3460   31.8430  -19.7390 C.3   383  SER383      0.1924
    183  C        -17.1320   31.8390  -20.6670 C.2   383  SER383      0.2314
    184  O        -16.0770   32.3740  -20.3270 O.2   383  SER383     -0.2863
    185  CB       -17.9580   32.3960  -18.3660 C.3   383  SER383      0.2116
    186  OG       -17.6080   33.7640  -18.4510 O.3   383  SER383     -0.2180
@<TRIPOS>BOND
     1    26    25    2
     2    33    34    2
     3    33    32    1
     4    15    14    2
     5    32    31    1
     6    32    35    1
     7    25    31   am
     8    25    24    1
     9    20    21    1
    10    20    19    1
    11    16    13    1
    12    16    17    1
    13    14    19   am
    14    14    13    1
    15    21    23   am
    16    21    22    2
    17    23    24    1
    18    40    41    2
    19    40    39    1
    20    64    62    1
    21    27    24    1
    22    27    28    1
    23    38    39    1
    24    35    36    1
    25    35    37    1
    26    13    12    1
    27    29    28    1
    28    62    63    1
    29    62    59    1
    30    17    18    1
    31    39    42    1
    32    28    30    1
    33    47    48    1
    34    42    43    1
    35    12    18    1
    36    12     3   am
    37    50    49    2
    38    59    60    1
    39    59    58    1
    40    61    60    2
    41    52    51    1
    42     4     3    2
    43   183   184    2
    44   183   182    1
    45    60    65   am
    46     3     2    1
    47    43    44    1
    48    58    56   am
    49    48    49    1
    50    48    51    1
    51    49    54   am
    52    45    44    2
    53    57    56    2
    54    44    46   am
    55    56    55    1
    56    51    53    1
    57    75    74    1
    58    75    76    1
    59   182   181    1
    60   182   185    1
    61    77    76    1
    62    74    73    1
    63   181   172   am
    64   170   171    1
    65    54    55    1
    66    65    66    1
    67   172   171    1
    68   172   173    2
    69     2     5    1
    70     2     1    1
    71     5     6    1
    72   171   174    1
    73    68    67    2
    74   186   185    1
    75    67    66    1
    76    67    69   am
    77    73    70    1
    78    69    70    1
    79    70    71    1
    80     6     8   ar
    81     6     7   ar
    82   174   175    1
    83   175   176    1
    84     8    10   ar
    85     7     9   ar
    86    71    72    2
    87    71    78   am
    88   159   160    1
    89   179   178    1
    90    88    87    2
    91    87    86    1
    92   169   167    1
    93    10    11   ar
    94     9    11   ar
    95   161   160    1
    96   161   162    2
    97   176   177    1
    98   178   177    2
    99   178   180    1
   100    78    79    1
   101   138   137   ar
   102   160   163    1
   103    89    86    1
   104    89    90    1
   105    86    85    1
   106   167   166    2
   107   167   168    1
   108    85    80   am
   109   133   132    1
   110   133   134    2
   111   132   131    1
   112   132   135    1
   113   166   165    1
   114   139   137   ar
   115   137   136    1
   116    92    90   ar
   117    92    94   ar
   118   131   125   am
   119    80    79    1
   120    80    81    2
   121    79    82    1
   122   163   164    1
   123    90    91   ar
   124   129   128   ar
   125   164   165    1
   126   150   149   ar
   127   135   136    1
   128    94    95   ar
   129   125   124    1
   130   125   126    2
   131    83    82    1
   132   124   123    1
   133   124   127    1
   134    82    84    1
   135   128   127    1
   136   128   130   ar
   137   140   141    1
   138    91    93   ar
   139   154   153    1
   140   154   155    2
   141   149   151   ar
   142   149   148    1
   143   141   142    1
   144   153   156    1
   145   153   152    1
   146    95    93   ar
   147   143   142    2
   148   148   145    1
   149   156   157    1
   150   145   146    1
   151   145   144    1
   152   152   158    1
   153   157   158    1
   154   146   147    2
   155   112   111   ar
   156   104   102   am
   157   111   110    1
   158   111   113   ar
   159   110   109    1
   160   102   103    2
   161   102   101    1
   162   109   106    1
   163   122   121    1
   164   108   107    2
   165   101   100    1
   166   120   121    1
   167   120   119    1
   168   106   107    1
   169   106   105    1
   170   118   119    1
   171   118   115    1
   172   117   116    2
   173   116   115    1
   174   100    97    1
   175    99    98    2
   176    98    97    1
   177   115   114    1
   178    97    96    1
