@<TRIPOS>MOLECULE
tmp/4tyyB00.pdb
 187 178 0 0 0
SMALL
GASTEIGER

@<TRIPOS>ATOM
      1  N        111.6520   46.7420   14.0210 N.3    31  ILE31      -0.1245
      2  CA       111.2620   45.7310   14.9960 C.3    31  ILE31       0.1561
      3  C        109.9640   46.1500   15.6790 C.2    31  ILE31       0.2260
      4  O        109.1420   45.3060   16.0380 O.2    31  ILE31      -0.2867
      5  CB       112.3670   45.4940   16.0570 C.3    31  ILE31       0.0252
      6  CG1      113.5660   44.7750   15.4380 C.3    31  ILE31       0.0019
      7  CG2      111.8570   44.6180   17.2020 C.3    31  ILE31       0.0019
      8  CD1      114.4450   45.6300   14.5590 C.3    31  ILE31       0.0001
      9  N        106.0350   42.7250   18.3170 N.3    36  PHE36      -0.1228
     10  CA       106.3400   41.6200   19.2210 C.3    36  PHE36       0.1721
     11  C        106.0030   42.0180   20.6550 C.2    36  PHE36       0.2437
     12  O        106.0400   43.2030   20.9910 O.2    36  PHE36      -0.2733
     13  CB       107.8160   41.2170   19.1240 C.3    36  PHE36       0.0547
     14  CG       108.2030   40.6040   17.8040 C.ar   36  PHE36      -0.0202
     15  CD1      107.3340   39.7650   17.1260 C.ar   36  PHE36      -0.0042
     16  CD2      109.4430   40.8670   17.2430 C.ar   36  PHE36      -0.0042
     17  CE1      107.6920   39.2000   15.9150 C.ar   36  PHE36      -0.0003
     18  CE2      109.8070   40.3070   16.0320 C.ar   36  PHE36      -0.0003
     19  CZ       108.9300   39.4730   15.3670 C.ar   36  PHE36      -0.0000
     20  N        105.6680   41.0320   21.5060 N.am   37  PRO37      -0.2718
     21  CA       105.3940   41.3210   22.9200 C.3    37  PRO37       0.1535
     22  C        106.5490   42.0460   23.5990 C.2    37  PRO37       0.2599
     23  O        106.3370   42.8310   24.5200 O.2    37  PRO37      -0.2715
     24  CB       105.1940   39.9320   23.5310 C.3    37  PRO37       0.0310
     25  CG       104.7590   39.0800   22.4000 C.3    37  PRO37       0.0237
     26  CD       105.4650   39.6070   21.1890 C.3    37  PRO37       0.0939
     27  N        107.7620   41.7760   23.1350 N.am   38  GLY38      -0.1941
     28  CA       108.9480   42.3890   23.6940 C.3    38  GLY38       0.2014
     29  C        110.1800   41.6220   23.2670 C.2    38  GLY38       0.2639
     30  O        110.0770   40.5880   22.6070 O.2    38  GLY38      -0.2714
     31  N        111.3500   42.1270   23.6420 N.am   39  LEU39      -0.1963
     32  CA       112.6020   41.4770   23.2830 C.3    39  LEU39       0.1728
     33  C        112.7950   40.1850   24.0700 C.2    39  LEU39       0.2616
     34  O        112.4480   40.0990   25.2470 O.2    39  LEU39      -0.2715
     35  CB       113.7840   42.4180   23.5240 C.3    39  LEU39       0.0311
     36  CG       113.8110   43.7080   22.6990 C.3    39  LEU39       0.0022
     37  CD1      115.0320   44.5380   23.0640 C.3    39  LEU39       0.0001
     38  CD2      113.7960   43.4110   21.2070 C.3    39  LEU39       0.0001
     39  N        113.3480   39.1800   23.4010 N.am   40  THR40      -0.1951
     40  CA       113.6500   37.9030   24.0340 C.3    40  THR40       0.1897
     41  C        114.7730   38.0770   25.0570 C.2    40  THR40       0.2313
     42  O        115.6590   38.9080   24.8530 O.2    40  THR40      -0.2863
     43  CB       114.0690   36.8540   22.9910 C.3    40  THR40       0.1794
     44  OG1      113.1100   36.8240   21.9260 O.3    40  THR40      -0.2208
     45  CG2      114.1710   35.4820   23.6170 C.3    40  THR40       0.0378
     46  N        118.0150   38.3080   23.4840 N.3    43  GLN43      -0.1245
     47  CA       118.1650   39.5210   22.6860 C.3    43  GLN43       0.1566
     48  C        118.4860   40.7330   23.5570 C.2    43  GLN43       0.2260
     49  O        119.2660   41.6020   23.1650 O.2    43  GLN43      -0.2867
     50  CB       116.8960   39.7810   21.8800 C.3    43  GLN43       0.0367
     51  CG       116.5870   38.6870   20.8800 C.3    43  GLN43       0.0905
     52  CD       115.2180   38.8400   20.2620 C.2    43  GLN43       0.2608
     53  OE1      114.4510   37.8820   20.1890 O.2    43  GLN43      -0.2717
     54  NE2      114.9040   40.0470   19.8100 N.am   43  GLN43      -0.0878
     55  N        115.9380   26.8650   21.9760 N.3    64  THR64      -0.1203
     56  CA       115.3420   26.9030   20.6450 C.3    64  THR64       0.1994
     57  C        114.0790   27.7600   20.5890 C.2    64  THR64       0.2618
     58  O        113.3100   27.8180   21.5490 O.2    64  THR64      -0.2717
     59  CB       114.9920   25.4830   20.1590 C.3    64  THR64       0.1784
     60  OG1      114.1130   24.8550   21.1000 O.3    64  THR64      -0.2211
     61  CG2      116.2510   24.6430   20.0110 C.3    64  THR64       0.0376
     62  N        113.8760   28.4240   19.4550 N.am   65  GLY65      -0.1942
     63  CA       112.6730   29.2050   19.2180 C.3    65  GLY65       0.2014
     64  C        112.5890   30.4710   20.0510 C.2    65  GLY65       0.2640
     65  O        111.4940   30.9150   20.3970 O.2    65  GLY65      -0.2714
     66  N        113.7430   31.0520   20.3660 N.am   66  THR66      -0.1936
     67  CA       113.8040   32.2440   21.2080 C.3    66  THR66       0.2028
     68  C        114.5550   33.3940   20.5180 C.2    66  THR66       0.2643
     69  O        115.4580   33.9980   21.0940 O.2    66  THR66      -0.2714
     70  CB       114.4690   31.9200   22.5660 C.3    66  THR66       0.1808
     71  OG1      115.7660   31.3460   22.3530 O.3    66  THR66      -0.2208
     72  CG2      113.6070   30.9400   23.3530 C.3    66  THR66       0.0379
     73  N        114.1680   33.6790   19.2760 N.am   67  GLY67      -0.1939
     74  CA       114.6650   34.8280   18.5350 C.3    67  GLY67       0.2014
     75  C        116.1670   35.0510   18.5410 C.2    67  GLY67       0.2639
     76  O        116.6210   36.1920   18.6440 O.2    67  GLY67      -0.2714
     77  N        116.9430   33.9760   18.4260 N.am   68  LYS68      -0.1963
     78  CA       118.3970   34.1010   18.3530 C.3    68  LYS68       0.1728
     79  C        118.8240   34.7850   17.0590 C.2    68  LYS68       0.2617
     80  O        119.9060   35.3630   16.9850 O.2    68  LYS68      -0.2715
     81  CB       119.0750   32.7320   18.4500 C.3    68  LYS68       0.0311
     82  CG       119.2810   32.2210   19.8690 C.3    68  LYS68       0.0038
     83  CD       120.2500   31.0420   19.9000 C.3    68  LYS68       0.0206
     84  CE       119.6790   29.8020   19.2150 C.3    68  LYS68       0.1093
     85  NZ       118.5340   29.2060   19.9600 N.3    68  LYS68      -0.1314
     86  N        117.9780   34.7110   16.0370 N.am   69  THR69      -0.1937
     87  CA       118.2990   35.3100   14.7490 C.3    69  THR69       0.2028
     88  C        118.4510   36.8220   14.9040 C.2    69  THR69       0.2642
     89  O        119.5490   37.3590   14.7430 O.2    69  THR69      -0.2714
     90  CB       117.2240   34.9960   13.6920 C.3    69  THR69       0.1808
     91  OG1      116.9660   33.5870   13.6720 O.3    69  THR69      -0.2208
     92  CG2      117.6780   35.4420   12.3080 C.3    69  THR69       0.0379
     93  N        117.3530   37.4970   15.2400 N.am   70  PHE70      -0.1973
     94  CA       117.3650   38.9450   15.4440 C.3    70  PHE70       0.1639
     95  C        118.3380   39.3520   16.5480 C.2    70  PHE70       0.2290
     96  O        118.7940   40.4970   16.5920 O.2    70  PHE70      -0.2864
     97  CB       115.9610   39.4550   15.7920 C.3    70  PHE70       0.0560
     98  CG       114.9740   39.3610   14.6600 C.ar   70  PHE70      -0.0200
     99  CD1      115.3500   39.6630   13.3600 C.ar   70  PHE70      -0.0042
    100  CD2      113.6650   38.9740   14.8990 C.ar   70  PHE70      -0.0042
    101  CE1      114.4410   39.5790   12.3220 C.ar   70  PHE70      -0.0003
    102  CE2      112.7510   38.8860   13.8650 C.ar   70  PHE70      -0.0003
    103  CZ       113.1400   39.1890   12.5750 C.ar   70  PHE70      -0.0000
    104  N        116.7890   31.2700    5.0160 N.3   105  GLN105     -0.1245
    105  CA       115.8300   31.7140    6.0160 C.3   105  GLN105      0.1566
    106  C        116.3160   33.0020    6.6780 C.2   105  GLN105      0.2260
    107  O        115.5640   33.9730    6.7960 O.2   105  GLN105     -0.2867
    108  CB       115.6050   30.6180    7.0590 C.3   105  GLN105      0.0367
    109  CG       114.8360   31.0650    8.2870 C.3   105  GLN105      0.0905
    110  CD       114.3460   29.8950    9.1180 C.2   105  GLN105      0.2608
    111  OE1      113.6020   29.0420    8.6300 O.2   105  GLN105     -0.2717
    112  NE2      114.7640   29.8450   10.3790 N.am  105  GLN105     -0.0878
    113  N        114.7190   36.7560    6.7790 N.3   109  GLU109     -0.1245
    114  CA       114.4970   37.5330    7.9910 C.3   109  GLU109      0.1567
    115  C        115.0810   38.9370    7.8430 C.2   109  GLU109      0.2260
    116  O        114.5520   39.8960    8.4020 O.2   109  GLU109     -0.2867
    117  CB       115.1040   36.8240    9.2030 C.3   109  GLU109      0.0388
    118  CG       114.4000   35.5260    9.5730 C.3   109  GLU109      0.1160
    119  CD       112.9740   35.7440   10.0550 C.2   109  GLU109      0.3649
    120  OE1      112.0400   35.1770    9.4430 O.co2 109  GLU109     -0.2457
    121  OE2      112.7880   36.4760   11.0510 O.co2 109  GLU109     -0.2457
    122  N        112.6370   40.8280    5.9470 N.3   112  LYS112     -0.1245
    123  CA       111.5080   41.2560    6.7670 C.3   112  LYS112      0.1561
    124  C        111.7950   42.6140    7.4010 C.2   112  LYS112      0.2260
    125  O        110.9020   43.4510    7.5250 O.2   112  LYS112     -0.2867
    126  CB       111.2020   40.2240    7.8540 C.3   112  LYS112      0.0271
    127  CG       110.4460   39.0030    7.3620 C.3   112  LYS112      0.0035
    128  CD       110.2910   37.9720    8.4710 C.3   112  LYS112      0.0206
    129  CE       109.4550   36.7810    8.0250 C.3   112  LYS112      0.1093
    130  NZ       109.3240   35.7620    9.1060 N.3   112  LYS112     -0.1314
    131  N        126.0760   30.9270   13.1890 N.3   177  ASP177     -0.1225
    132  CA       124.8030   30.4140   13.6810 C.3   177  ASP177      0.1805
    133  C        124.8940   28.8870   13.7210 C.2   177  ASP177      0.2597
    134  O        125.4010   28.2710   12.7840 O.2   177  ASP177     -0.2718
    135  CB       123.6440   30.8870   12.7960 C.3   177  ASP177      0.1424
    136  CG       122.2810   30.6480   13.4300 C.2   177  ASP177      0.3668
    137  OD1      122.2210   30.3350   14.6380 O.co2 177  ASP177     -0.2456
    138  OD2      121.2640   30.7880   12.7160 O.co2 177  ASP177     -0.2456
    139  N        124.4140   28.2910   14.8110 N.am  178  GLU178     -0.1979
    140  CA       124.6180   26.8650   15.0810 C.3   178  GLU178      0.1602
    141  C        126.1180   26.5990   15.1410 C.2   178  GLU178      0.2287
    142  O        126.6290   25.6750   14.5030 O.2   178  GLU178     -0.2864
    143  CB       123.9480   25.9810   14.0180 C.3   178  GLU178      0.0415
    144  CG       122.4840   26.3100   13.7480 C.3   178  GLU178      0.1163
    145  CD       121.5970   26.1210   14.9640 C.2   178  GLU178      0.3649
    146  OE1      122.0330   25.4670   15.9350 O.co2 178  GLU178     -0.2457
    147  OE2      120.4580   26.6310   14.9480 O.co2 178  GLU178     -0.2457
    148  N        117.7700   25.2370   13.3370 N.3   349  GLY349     -0.1225
    149  CA       117.5090   26.5690   12.8200 C.3   349  GLY349      0.1811
    150  C        116.1680   26.8020   12.1530 C.2   349  GLY349      0.2280
    151  O        115.4810   27.7700   12.4790 O.2   349  GLY349     -0.2866
    152  N        112.6590   27.4470   10.9160 N.3   351  ASP351     -0.1239
    153  CA       111.4950   27.8800   11.6740 C.3   351  ASP351      0.1674
    154  C        110.2070   27.6670   10.8880 C.2   351  ASP351      0.2266
    155  O        109.9770   28.3160    9.8650 O.2   351  ASP351     -0.2867
    156  CB       111.6370   29.3540   12.0600 C.3   351  ASP351      0.1410
    157  CG       110.4290   29.8770   12.8030 C.2   351  ASP351      0.3668
    158  OD1      110.3950   29.7450   14.0440 O.co2 351  ASP351     -0.2456
    159  OD2      109.5110   30.4140   12.1470 O.co2 351  ASP351     -0.2456
    160  N        111.9430   22.2590   16.9140 N.3   376  ARG376     -0.1245
    161  CA       111.1670   22.7520   15.7790 C.3   376  ARG376      0.1563
    162  C        109.7570   23.1650   16.2020 C.2   376  ARG376      0.2260
    163  O        109.1050   23.9470   15.5110 O.2   376  ARG376     -0.2867
    164  CB       111.0820   21.6960   14.6690 C.3   376  ARG376      0.0307
    165  CG       112.4140   21.2990   14.0290 C.3   376  ARG376      0.0489
    166  CD       113.3270   22.4880   13.7700 C.3   376  ARG376      0.2205
    167  NE       114.1470   22.7920   14.9400 N.pl3 376  ARG376     -0.0865
    168  CZ       114.8370   23.9150   15.1080 C.cat 376  ARG376      0.5346
    169  NH1      114.8090   24.8660   14.1840 N.pl3 376  ARG376      0.1354
    170  NH2      115.5530   24.0880   16.2100 N.pl3 376  ARG376      0.1354
    171  N        107.9390   27.1080   19.5110 N.3   379  ARG379     -0.1231
    172  CA       108.7450   28.2760   19.1800 C.3   379  ARG379      0.1694
    173  C        107.9170   29.5520   19.3230 C.2   379  ARG379      0.2592
    174  O        106.7070   29.5460   19.0850 O.2   379  ARG379     -0.2718
    175  CB       109.2940   28.1580   17.7580 C.3   379  ARG379      0.0321
    176  CG       109.9340   26.8120   17.4510 C.3   379  ARG379      0.0489
    177  CD       110.4630   26.7510   16.0250 C.3   379  ARG379      0.2205
    178  NE       111.6130   27.6280   15.8160 N.pl3 379  ARG379     -0.0865
    179  CZ       112.8650   27.3170   16.1410 C.cat 379  ARG379      0.5346
    180  NH1      113.1430   26.1490   16.7040 N.pl3 379  ARG379      0.1354
    181  NH2      113.8430   28.1780   15.9070 N.pl3 379  ARG379      0.1354
    182  N        108.5790   30.6400   19.7130 N.am  380  SER380     -0.1952
    183  CA       107.9280   31.9370   19.8820 C.3   380  SER380      0.1924
    184  C        106.7880   31.8750   20.8930 C.2   380  SER380      0.2314
    185  O        105.6880   32.3650   20.6350 O.2   380  SER380     -0.2863
    186  CB       107.4020   32.4520   18.5410 C.3   380  SER380      0.2116
    187  OG       108.4390   32.4990   17.5770 O.3   380  SER380     -0.2180
@<TRIPOS>BOND
     1   104   105    1
     2   122   123    1
     3   105   106    1
     4   105   108    1
     5   106   107    2
     6   123   124    1
     7   123   126    1
     8   113   114    1
     9   108   109    1
    10   127   126    1
    11   127   128    1
    12   124   125    2
    13   115   114    1
    14   115   116    2
    15   114   117    1
    16   129   128    1
    17   129   130    1
    18   109   110    1
    19   111   110    2
    20   110   112   am
    21   117   118    1
    22   120   119   ar
    23   118   119    1
    24   155   154    2
    25   119   121   ar
    26   154   153    1
    27   152   153    1
    28   153   156    1
    29   156   157    1
    30   159   157   ar
    31   150   151    2
    32   150   149    1
    33    92    90    1
    34   101   103   ar
    35   101    99   ar
    36   103   102   ar
    37   138   136   ar
    38   134   133    2
    39   135   136    1
    40   135   132    1
    41   157   158   ar
    42   149   148    1
    43   131   132    1
    44    99    98   ar
    45   136   137   ar
    46    91    90    1
    47   132   133    1
    48    90    87    1
    49   133   139   am
    50   144   143    1
    51   144   145    1
    52   166   165    1
    53   166   167    1
    54   102   100   ar
    55   143   140    1
    56     1     2    1
    57   165   164    1
    58   169   168    1
    59   142   141    2
    60     8     6    1
    61    98   100   ar
    62    98    97    1
    63   164   161    1
    64    89    88    2
    65    87    88    1
    66    87    86    1
    67   139   140    1
    68    88    93   am
    69   167   168    2
    70   147   145   ar
    71   145   146   ar
    72     2     3    1
    73     2     5    1
    74   140   141    1
    75   168   170    1
    76    93    94    1
    77    19    17   ar
    78    19    18   ar
    79     6     5    1
    80    94    97    1
    81    94    95    1
    82   163   162    2
    83     3     4    2
    84   161   162    1
    85   161   160    1
    86   178   177    1
    87   178   179    2
    88   181   179    1
    89    17    15   ar
    90   177   176    1
    91    18    16   ar
    92    86    79   am
    93     5     7    1
    94   179   180    1
    95    95    96    2
    96    80    79    2
    97    79    78    1
    98    15    14   ar
    99    16    14   ar
   100   176   175    1
   101   187   186    1
   102   175   172    1
   103    14    13    1
   104     9    10    1
   105    78    77    1
   106    78    81    1
   107    77    75   am
   108    81    82    1
   109    74    75    1
   110    74    73    1
   111   186   183    1
   112    75    76    2
   113   174   173    2
   114    13    10    1
   115   172   173    1
   116   172   171    1
   117    84    83    1
   118    84    85    1
   119    63    62    1
   120    63    64    1
   121    10    11    1
   122    73    68   am
   123   173   182   am
   124    62    57   am
   125   182   183    1
   126    54    52   am
   127    82    83    1
   128   183   184    1
   129    61    59    1
   130    64    66   am
   131    64    65    2
   132    59    56    1
   133    59    60    1
   134    53    52    2
   135    52    51    1
   136    66    67    1
   137    68    69    2
   138    68    67    1
   139    57    56    1
   140    57    58    2
   141   185   184    2
   142    56    55    1
   143    11    12    2
   144    11    20   am
   145    51    50    1
   146    26    20    1
   147    26    25    1
   148    38    36    1
   149    67    70    1
   150    20    21    1
   151    50    47    1
   152    44    43    1
   153    71    70    1
   154    25    24    1
   155    70    72    1
   156    30    29    2
   157    47    46    1
   158    47    48    1
   159    36    37    1
   160    36    35    1
   161    21    24    1
   162    21    22    1
   163    43    45    1
   164    43    40    1
   165    27    22   am
   166    27    28    1
   167    49    48    2
   168    29    31   am
   169    29    28    1
   170    32    35    1
   171    32    31    1
   172    32    33    1
   173    39    40    1
   174    39    33   am
   175    22    23    2
   176    40    41    1
   177    33    34    2
   178    42    41    2
