@<TRIPOS>MOLECULE
tmp/4tz0A00.pdb
 186 178 0 0 0
SMALL
GASTEIGER

@<TRIPOS>ATOM
      1  N        106.1500   42.5750   18.0480 N.3    39  PHE39      -0.1228
      2  CA       106.5800   41.6830   19.1190 C.3    39  PHE39       0.1721
      3  C        106.3640   42.3810   20.4610 C.2    39  PHE39       0.2437
      4  O        106.6160   43.5800   20.5780 O.2    39  PHE39      -0.2733
      5  CB       108.0510   41.2850   18.9520 C.3    39  PHE39       0.0547
      6  CG       108.3060   40.3400   17.8070 C.ar   39  PHE39      -0.0202
      7  CD1      107.4740   39.2540   17.5810 C.ar   39  PHE39      -0.0042
      8  CD2      109.3820   40.5390   16.9560 C.ar   39  PHE39      -0.0042
      9  CE1      107.7100   38.3880   16.5310 C.ar   39  PHE39      -0.0003
     10  CE2      109.6220   39.6750   15.9030 C.ar   39  PHE39      -0.0003
     11  CZ       108.7850   38.5990   15.6900 C.ar   39  PHE39      -0.0000
     12  N        105.8980   41.6360   21.4810 N.am   40  PRO40      -0.2718
     13  CA       105.6350   42.2540   22.7880 C.3    40  PRO40       0.1535
     14  C        106.8840   42.8760   23.4080 C.2    40  PRO40       0.2599
     15  O        106.7760   43.7430   24.2750 O.2    40  PRO40      -0.2715
     16  CB       105.1280   41.0820   23.6380 C.3    40  PRO40       0.0310
     17  CG       105.6430   39.8600   22.9610 C.3    40  PRO40       0.0237
     18  CD       105.6530   40.1840   21.5020 C.3    40  PRO40       0.0939
     19  N        108.0530   42.4340   22.9570 N.am   41  GLY41      -0.1941
     20  CA       109.3150   42.9550   23.4490 C.3    41  GLY41       0.2014
     21  C        110.4630   42.0300   23.0970 C.2    41  GLY41       0.2639
     22  O        110.2440   40.9080   22.6400 O.2    41  GLY41      -0.2714
     23  N        111.6880   42.4990   23.3120 N.am   42  LEU42      -0.1963
     24  CA       112.8770   41.7100   23.0070 C.3    42  LEU42       0.1728
     25  C        112.9400   40.4480   23.8570 C.2    42  LEU42       0.2616
     26  O        112.6640   40.4820   25.0560 O.2    42  LEU42      -0.2715
     27  CB       114.1430   42.5400   23.2280 C.3    42  LEU42       0.0311
     28  CG       114.3250   43.7430   22.3040 C.3    42  LEU42       0.0022
     29  CD1      115.4820   44.6050   22.7840 C.3    42  LEU42       0.0001
     30  CD2      114.5490   43.2960   20.8670 C.3    42  LEU42       0.0001
     31  N        113.3060   39.3360   23.2280 N.am   43  THR43      -0.1951
     32  CA       113.5040   38.0860   23.9490 C.3    43  THR43       0.1897
     33  C        114.7230   38.2080   24.8590 C.2    43  THR43       0.2313
     34  O        115.5460   39.1060   24.6690 O.2    43  THR43      -0.2863
     35  CB       113.6910   36.9000   22.9850 C.3    43  THR43       0.1794
     36  OG1      114.5120   37.3010   21.8810 O.3    43  THR43      -0.2208
     37  CG2      112.3490   36.4190   22.4600 C.3    43  THR43       0.0378
     38  N        118.0790   38.5010   23.1070 N.3    46  GLN46      -0.1245
     39  CA       118.2140   39.7340   22.3370 C.3    46  GLN46       0.1566
     40  C        118.5800   40.9190   23.2270 C.2    46  GLN46       0.2260
     41  O        119.4030   41.7550   22.8570 O.2    46  GLN46      -0.2867
     42  CB       116.9190   40.0320   21.5820 C.3    46  GLN46       0.0367
     43  CG       116.6220   39.0550   20.4560 C.3    46  GLN46       0.0905
     44  CD       115.2700   39.2980   19.8130 C.2    46  GLN46       0.2608
     45  OE1      114.5380   40.2070   20.2040 O.2    46  GLN46      -0.2717
     46  NE2      114.9310   38.4810   18.8220 N.am   46  GLN46      -0.0878
     47  N        116.2490   26.9380   21.8990 N.3    67  THR67      -0.1203
     48  CA       115.6700   26.9870   20.5620 C.3    67  THR67       0.1994
     49  C        114.3930   27.8240   20.5210 C.2    67  THR67       0.2618
     50  O        113.4700   27.6020   21.3050 O.2    67  THR67      -0.2717
     51  CB       115.3510   25.5710   20.0450 C.3    67  THR67       0.1784
     52  OG1      114.4590   24.9160   20.9560 O.3    67  THR67      -0.2211
     53  CG2      116.6250   24.7510   19.9130 C.3    67  THR67       0.0376
     54  N        114.3560   28.7900   19.6050 N.am   68  GLY68      -0.1942
     55  CA       113.1700   29.5990   19.3740 C.3    68  GLY68       0.2014
     56  C        113.1500   30.9130   20.1320 C.2    68  GLY68       0.2640
     57  O        112.1110   31.5690   20.2140 O.2    68  GLY68      -0.2714
     58  N        114.2970   31.3050   20.6780 N.am   69  THR69      -0.1936
     59  CA       114.3930   32.5220   21.4810 C.3    69  THR69       0.2028
     60  C        114.7410   33.7540   20.6430 C.2    69  THR69       0.2643
     61  O        114.9710   34.8350   21.1850 O.2    69  THR69      -0.2714
     62  CB       115.4500   32.3710   22.5880 C.3    69  THR69       0.1808
     63  OG1      116.7170   32.0440   22.0030 O.3    69  THR69      -0.2208
     64  CG2      115.0490   31.2770   23.5620 C.3    69  THR69       0.0379
     65  N        114.7830   33.5890   19.3240 N.am   70  GLY70      -0.1939
     66  CA       115.0610   34.6950   18.4260 C.3    70  GLY70       0.2014
     67  C        116.5310   35.0730   18.3650 C.2    70  GLY70       0.2639
     68  O        116.8750   36.2560   18.3810 O.2    70  GLY70      -0.2714
     69  N        117.4010   34.0710   18.2890 N.am   71  LYS71      -0.1963
     70  CA       118.8390   34.3130   18.1930 C.3    71  LYS71       0.1728
     71  C        119.2140   34.9870   16.8760 C.2    71  LYS71       0.2617
     72  O        120.2480   35.6470   16.7840 O.2    71  LYS71      -0.2715
     73  CB       119.6210   33.0040   18.3360 C.3    71  LYS71       0.0311
     74  CG       119.7020   32.4670   19.7590 C.3    71  LYS71       0.0038
     75  CD       120.6220   31.2540   19.8500 C.3    71  LYS71       0.0206
     76  CE       120.0470   30.0300   19.1530 C.3    71  LYS71       0.1093
     77  NZ       118.8620   29.4720   19.8660 N.3    71  LYS71      -0.1314
     78  N        118.3790   34.8140   15.8560 N.am   72  THR72      -0.1937
     79  CA       118.6530   35.3980   14.5490 C.3    72  THR72       0.2028
     80  C        118.7440   36.9180   14.6520 C.2    72  THR72       0.2642
     81  O        119.7710   37.5080   14.3130 O.2    72  THR72      -0.2714
     82  CB       117.5730   35.0180   13.5210 C.3    72  THR72       0.1808
     83  OG1      117.4200   33.5950   13.4930 O.3    72  THR72      -0.2208
     84  CG2      117.9530   35.5130   12.1310 C.3    72  THR72       0.0379
     85  N        117.6690   37.5460   15.1210 N.am   73  PHE73      -0.1973
     86  CA       117.6560   38.9900   15.3270 C.3    73  PHE73       0.1639
     87  C        118.6990   39.3900   16.3620 C.2    73  PHE73       0.2290
     88  O        119.2730   40.4740   16.2910 O.2    73  PHE73      -0.2864
     89  CB       116.2680   39.4650   15.7710 C.3    73  PHE73       0.0560
     90  CG       115.2160   39.3750   14.6970 C.ar   73  PHE73      -0.0200
     91  CD1      115.5250   39.6430   13.3730 C.ar   73  PHE73      -0.0042
     92  CD2      113.9150   39.0250   15.0160 C.ar   73  PHE73      -0.0042
     93  CE1      114.5580   39.5630   12.3880 C.ar   73  PHE73      -0.0003
     94  CE2      112.9430   38.9430   14.0340 C.ar   73  PHE73      -0.0003
     95  CZ       113.2660   39.2130   12.7190 C.ar   73  PHE73      -0.0000
     96  N        117.1340   31.1750    4.9210 N.3   108  GLN108     -0.1245
     97  CA       116.1960   31.6440    5.9300 C.3   108  GLN108      0.1566
     98  C        116.6960   32.9360    6.5710 C.2   108  GLN108      0.2260
     99  O        115.9390   33.9000    6.7140 O.2   108  GLN108     -0.2867
    100  CB       115.9760   30.5770    7.0010 C.3   108  GLN108      0.0367
    101  CG       114.9990   30.9940    8.0870 C.3   108  GLN108      0.0905
    102  CD       114.6700   29.8660    9.0430 C.2   108  GLN108      0.2608
    103  OE1      113.9000   28.9640    8.7150 O.2   108  GLN108     -0.2717
    104  NE2      115.2530   29.9120   10.2350 N.am  108  GLN108     -0.0878
    105  N        115.0620   36.7170    6.6960 N.3   112  GLU112     -0.1245
    106  CA       114.8650   37.4970    7.9120 C.3   112  GLU112      0.1567
    107  C        115.4340   38.9040    7.7460 C.2   112  GLU112      0.2260
    108  O        114.8520   39.8730    8.2330 O.2   112  GLU112     -0.2867
    109  CB       115.5120   36.8000    9.1100 C.3   112  GLU112      0.0388
    110  CG       114.8360   35.4890    9.4990 C.3   112  GLU112      0.1160
    111  CD       113.4210   35.6870   10.0140 C.2   112  GLU112      0.3649
    112  OE1      113.2620   36.2350   11.1260 O.co2 112  GLU112     -0.2457
    113  OE2      112.4680   35.2960    9.3050 O.co2 112  GLU112     -0.2457
    114  N        113.0590   40.7370    5.6090 N.3   115  LYS115     -0.1245
    115  CA       111.8810   41.1370    6.3730 C.3   115  LYS115      0.1561
    116  C        112.1240   42.4880    7.0340 C.2   115  LYS115      0.2260
    117  O        111.2440   43.3500    7.0430 O.2   115  LYS115     -0.2867
    118  CB       111.5300   40.0910    7.4330 C.3   115  LYS115      0.0271
    119  CG       110.8160   38.8620    6.8940 C.3   115  LYS115      0.0035
    120  CD       110.6310   37.8180    7.9860 C.3   115  LYS115      0.0206
    121  CE       109.8930   36.5900    7.4770 C.3   115  LYS115      0.1093
    122  NZ       109.6750   35.5830    8.5540 N.3   115  LYS115     -0.1314
    123  N        126.4920   30.9720   12.9350 N.3   180  ASP180     -0.1225
    124  CA       125.2130   30.4960   13.4430 C.3   180  ASP180      0.1805
    125  C        125.2640   28.9750   13.5260 C.2   180  ASP180      0.2597
    126  O        125.8130   28.3230   12.6380 O.2   180  ASP180     -0.2718
    127  CB       124.0620   30.9610   12.5510 C.3   180  ASP180      0.1424
    128  CG       122.7030   30.7180   13.1790 C.2   180  ASP180      0.3668
    129  OD1      122.6400   30.4860   14.4050 O.co2 180  ASP180     -0.2456
    130  OD2      121.6940   30.7680   12.4450 O.co2 180  ASP180     -0.2456
    131  N        124.6940   28.4190   14.5920 N.am  181  GLU181     -0.1979
    132  CA       124.8520   27.0010   14.8970 C.3   181  GLU181      0.1602
    133  C        126.3450   26.7020   15.0140 C.2   181  GLU181      0.2287
    134  O        126.8590   25.7720   14.3900 O.2   181  GLU181     -0.2864
    135  CB       124.2010   26.1220   13.8230 C.3   181  GLU181      0.0415
    136  CG       122.7540   26.4810   13.5060 C.3   181  GLU181      0.1163
    137  CD       121.8160   26.2390   14.6740 C.2   181  GLU181      0.3649
    138  OE1      122.2500   25.6330   15.6760 O.co2 181  GLU181     -0.2457
    139  OE2      120.6410   26.6580   14.5910 O.co2 181  GLU181     -0.2457
    140  N        118.0260   25.2530   13.2230 N.3   352  GLY352     -0.1225
    141  CA       117.7710   26.6000   12.7450 C.3   352  GLY352      0.1811
    142  C        116.4490   26.8340   12.0400 C.2   352  GLY352      0.2280
    143  O        115.8370   27.8840   12.2280 O.2   352  GLY352     -0.2866
    144  N        112.9630   27.5290   10.8830 N.3   354  ASP354     -0.1239
    145  CA       111.8650   28.0910   11.6560 C.3   354  ASP354      0.1674
    146  C        110.5420   27.9090   10.9310 C.2   354  ASP354      0.2266
    147  O        110.2010   28.6870   10.0410 O.2   354  ASP354     -0.2867
    148  CB       112.1110   29.5770   11.9250 C.3   354  ASP354      0.1410
    149  CG       111.0750   30.1790   12.8500 C.2   354  ASP354      0.3668
    150  OD1      110.8060   29.5780   13.9100 O.co2 354  ASP354     -0.2456
    151  OD2      110.5230   31.2470   12.5130 O.co2 354  ASP354     -0.2456
    152  N        106.6410   28.0350   11.5370 N.3   356  PRO356     -0.2116
    153  CA       105.6570   28.4830   12.5300 C.3   356  PRO356      0.1372
    154  C        104.6380   27.4150   12.9230 C.2   356  PRO356      0.2244
    155  O        104.1030   26.7170   12.0600 O.2   356  PRO356     -0.2868
    156  CB       104.9540   29.6500   11.8250 C.3   356  PRO356      0.0268
    157  CG       105.9300   30.1350   10.8260 C.3   356  PRO356      0.0207
    158  CD       106.6660   28.9200   10.3580 C.3   356  PRO356      0.0892
    159  N        112.3150   22.2760   16.7780 N.3   379  ARG379     -0.1245
    160  CA       111.5810   22.7380   15.6030 C.3   379  ARG379      0.1563
    161  C        110.1550   23.1310   15.9830 C.2   379  ARG379      0.2260
    162  O        109.5080   23.9100   15.2820 O.2   379  ARG379     -0.2867
    163  CB       111.5660   21.6580   14.5170 C.3   379  ARG379      0.0307
    164  CG       112.6890   21.7700   13.4840 C.3   379  ARG379      0.0489
    165  CD       114.0420   22.0710   14.1180 C.3   379  ARG379      0.2205
    166  NE       114.3240   23.5020   14.1440 N.pl3 379  ARG379     -0.0865
    167  CZ       115.1740   24.0950   14.9770 C.cat 379  ARG379      0.5346
    168  NH1      115.8370   23.3890   15.8810 N.pl3 379  ARG379      0.1354
    169  NH2      115.3560   25.4060   14.9100 N.pl3 379  ARG379      0.1354
    170  N        108.2310   27.0830   19.4260 N.3   382  ARG382     -0.1231
    171  CA       109.0530   28.2410   19.0810 C.3   382  ARG382      0.1694
    172  C        108.2690   29.5440   19.2010 C.2   382  ARG382      0.2592
    173  O        107.0770   29.5960   18.8940 O.2   382  ARG382     -0.2718
    174  CB       109.6030   28.0960   17.6590 C.3   382  ARG382      0.0321
    175  CG       110.4380   26.8420   17.4460 C.3   382  ARG382      0.0489
    176  CD       110.8700   26.6870   15.9940 C.3   382  ARG382      0.2205
    177  NE       111.8260   27.7110   15.5810 N.pl3 382  ARG382     -0.0865
    178  CZ       113.1070   27.7270   15.9390 C.cat 382  ARG382      0.5346
    179  NH1      113.5920   26.7820   16.7330 N.pl3 382  ARG382      0.1354
    180  NH2      113.9050   28.6950   15.5090 N.pl3 382  ARG382      0.1354
    181  N        108.9540   30.5920   19.6510 N.am  383  SER383     -0.1952
    182  CA       108.3730   31.9280   19.7440 C.3   383  SER383      0.1924
    183  C        107.1260   31.9530   20.6250 C.2   383  SER383      0.2314
    184  O        106.0930   32.5010   20.2380 O.2   383  SER383     -0.2863
    185  CB       108.0370   32.4550   18.3470 C.3   383  SER383      0.2116
    186  OG       107.5940   33.7990   18.4040 O.3   383  SER383     -0.2180
@<TRIPOS>BOND
     1    96    97    1
     2   114   115    1
     3    97    98    1
     4    97   100    1
     5   115   116    1
     6   115   118    1
     7    98    99    2
     8   105   106    1
     9   119   118    1
    10   119   120    1
    11   100   101    1
    12   116   117    2
    13   121   120    1
    14   121   122    1
    15   107   106    1
    16   107   108    2
    17   106   109    1
    18   101   102    1
    19   103   102    2
    20   102   104   am
    21   109   110    1
    22   113   111   ar
    23   110   111    1
    24   111   112   ar
    25   147   146    2
    26   158   157    1
    27   158   152    1
    28   157   156    1
    29   144   145    1
    30   146   145    1
    31   152   153    1
    32   145   148    1
    33   156   153    1
    34   148   149    1
    35   142   143    2
    36   142   141    1
    37   155   154    2
    38    84    82    1
    39    93    95   ar
    40    93    91   ar
    41   130   128   ar
    42   151   149   ar
    43   153   154    1
    44   127   128    1
    45   127   124    1
    46   126   125    2
    47    95    94   ar
    48   141   140    1
    49   149   150   ar
    50   123   124    1
    51   128   129   ar
    52    91    90   ar
    53   124   125    1
    54   164   165    1
    55   164   163    1
    56    83    82    1
    57   136   135    1
    58   136   137    1
    59    82    79    1
    60   125   131   am
    61   135   132    1
    62    94    92   ar
    63   165   166    1
    64   166   167    2
    65    81    80    2
    66   134   133    2
    67   163   160    1
    68    79    80    1
    69    79    78    1
    70   139   137   ar
    71   131   132    1
    72    80    85   am
    73   137   138   ar
    74    90    92   ar
    75    90    89    1
    76   132   133    1
    77   169   167    1
    78   167   168    1
    79    85    86    1
    80   162   161    2
    81    86    89    1
    82    86    87    1
    83   180   178    1
    84   177   178    2
    85   177   176    1
    86   160   161    1
    87   160   159    1
    88    11    10   ar
    89    11     9   ar
    90    78    71   am
    91    10     8   ar
    92   178   179    1
    93   176   175    1
    94    88    87    2
    95     9     7   ar
    96    72    71    2
    97    71    70    1
    98     8     6   ar
    99   175   174    1
   100     7     6   ar
   101   174   171    1
   102     6     5    1
   103     1     2    1
   104    70    69    1
   105    70    73    1
   106    69    67   am
   107    73    74    1
   108   185   186    1
   109   185   182    1
   110    67    68    2
   111    67    66    1
   112    66    65    1
   113    46    44   am
   114   173   172    2
   115     5     2    1
   116   171   172    1
   117   171   170    1
   118     2     3    1
   119    76    75    1
   120    76    77    1
   121   172   181   am
   122    65    60   am
   123    55    54    1
   124    55    56    1
   125    54    49   am
   126   181   182    1
   127   182   183    1
   128    74    75    1
   129    44    45    2
   130    44    43    1
   131    53    51    1
   132    51    48    1
   133    51    52    1
   134    56    57    2
   135    56    58   am
   136   184   183    2
   137    43    42    1
   138     3     4    2
   139     3    12   am
   140    49    48    1
   141    49    50    2
   142    48    47    1
   143    60    61    2
   144    60    59    1
   145    58    59    1
   146    30    28    1
   147    59    62    1
   148    12    18    1
   149    12    13    1
   150    18    17    1
   151    42    39    1
   152    36    35    1
   153    63    62    1
   154    28    29    1
   155    28    27    1
   156    39    38    1
   157    39    40    1
   158    37    35    1
   159    62    64    1
   160    22    21    2
   161    13    14    1
   162    13    16    1
   163    41    40    2
   164    19    14   am
   165    19    20    1
   166    17    16    1
   167    35    32    1
   168    24    27    1
   169    24    23    1
   170    24    25    1
   171    21    23   am
   172    21    20    1
   173    31    25   am
   174    31    32    1
   175    14    15    2
   176    25    26    2
   177    32    33    1
   178    34    33    2
