@<TRIPOS>MOLECULE
tmp/4tz2A01.pdb
 133 127 0 0 0
SMALL
GASTEIGER

@<TRIPOS>ATOM
      1  N         25.6470  -45.0690    2.8900 N.3    30  VAL30      -0.1231
      2  CA        25.5610  -45.4630    4.2980 C.3    30  VAL30       0.1692
      3  C         24.1020  -45.5090    4.8070 C.2    30  VAL30       0.2592
      4  O         23.8050  -46.2280    5.7760 O.2    30  VAL30      -0.2718
      5  CB        26.4000  -44.5260    5.1790 C.3    30  VAL30       0.0266
      6  CG1       25.9620  -43.0720    5.0180 C.3    30  VAL30       0.0020
      7  CG2       26.3490  -44.9580    6.6610 C.3    30  VAL30       0.0020
      8  N         23.2010  -44.7930    4.1310 N.am   31  PHE31      -0.1976
      9  CA        21.7960  -44.7600    4.4990 C.3    31  PHE31       0.1639
     10  C         20.9280  -45.7550    3.7350 C.2    31  PHE31       0.2290
     11  O         19.7120  -45.7400    3.9230 O.2    31  PHE31      -0.2864
     12  CB        21.2220  -43.3420    4.2970 C.3    31  PHE31       0.0560
     13  CG        22.0200  -42.2780    5.0020 C.ar   31  PHE31      -0.0200
     14  CD1       22.2430  -42.3600    6.3590 C.ar   31  PHE31      -0.0042
     15  CD2       22.6040  -41.2330    4.3030 C.ar   31  PHE31      -0.0042
     16  CE1       23.0210  -41.3910    7.0300 C.ar   31  PHE31      -0.0003
     17  CE2       23.3780  -40.2490    4.9500 C.ar   31  PHE31      -0.0003
     18  CZ        23.6000  -40.3510    6.3480 C.ar   31  PHE31      -0.0000
     19  N         21.0400  -49.1180    3.9040 N.3    33  LYS33      -0.1231
     20  CA        20.7690  -50.3350    4.6270 C.3    33  LYS33       0.1678
     21  C         20.5910  -49.9870    6.0810 C.2    33  LYS33       0.2434
     22  O         21.0510  -48.9490    6.5450 O.2    33  LYS33      -0.2733
     23  CB        21.9160  -51.3670    4.4390 C.3    33  LYS33       0.0284
     24  CG        22.1210  -51.8490    3.0030 C.3    33  LYS33       0.0035
     25  CD        23.0850  -53.0390    2.9350 C.3    33  LYS33       0.0206
     26  CE        24.5470  -52.6160    3.0730 C.3    33  LYS33       0.1093
     27  NZ        25.2980  -52.7220    1.7730 N.3    33  LYS33      -0.1314
     28  N         19.8820  -50.8400    6.8150 N.am   34  PRO34      -0.2718
     29  CA        19.8650  -50.5630    8.2290 C.3    34  PRO34       0.1535
     30  C         21.2770  -50.8910    8.7130 C.2    34  PRO34       0.2598
     31  O         21.9830  -51.7610    8.1600 O.2    34  PRO34      -0.2715
     32  CB        18.8030  -51.5330    8.7770 C.3    34  PRO34       0.0310
     33  CG        18.7270  -52.6110    7.7510 C.3    34  PRO34       0.0237
     34  CD        18.9980  -51.9560    6.4480 C.3    34  PRO34       0.0939
     35  N         21.7040  -50.1230    9.6840 N.am   35  VAL35      -0.1978
     36  CA        22.8460  -50.5040   10.5060 C.3    35  VAL35       0.1596
     37  C         23.0270  -52.0040   10.8810 C.2    35  VAL35       0.2287
     38  O         22.1450  -52.6340   11.4750 O.2    35  VAL35      -0.2864
     39  CB        22.7710  -49.6860   11.7820 C.3    35  VAL35       0.0276
     40  CG1       24.0160  -49.8730   12.5130 C.3    35  VAL35       0.0022
     41  CG2       22.6220  -48.2540   11.3430 C.3    35  VAL35       0.0022
     42  N         27.9970  -51.8830   14.6480 N.3    40  VAL40      -0.1245
     43  CA        27.6980  -51.1150   15.8560 C.3    40  VAL40       0.1561
     44  C         26.5120  -51.7420   16.5840 C.2    40  VAL40       0.2260
     45  O         25.3640  -51.3400   16.3970 O.2    40  VAL40      -0.2867
     46  CB        27.4660  -49.6240   15.5660 C.3    40  VAL40       0.0252
     47  CG1       28.7960  -48.9400   15.2990 C.3    40  VAL40       0.0019
     48  CG2       26.5820  -49.4420   14.3810 C.3    40  VAL40       0.0019
     49  N         23.7190  -49.8230   18.2830 N.3    43  TYR43      -0.1241
     50  CA        22.8560  -48.9470   17.4910 C.3    43  TYR43       0.1605
     51  C         21.3760  -49.1080   17.8810 C.2    43  TYR43       0.2264
     52  O         20.7050  -48.1250   18.1950 O.2    43  TYR43      -0.2867
     53  CB        23.0220  -49.1870   15.9810 C.3    43  TYR43       0.0534
     54  CG        22.4110  -48.0420   15.1700 C.ar   43  TYR43      -0.0201
     55  CD1       23.0640  -46.8170   15.0750 C.ar   43  TYR43      -0.0009
     56  CD2       21.1580  -48.1640   14.5440 C.ar   43  TYR43      -0.0009
     57  CE1       22.5120  -45.7530   14.3510 C.ar   43  TYR43       0.0417
     58  CE2       20.6060  -47.0940   13.8120 C.ar   43  TYR43       0.0417
     59  CZ        21.2920  -45.9040   13.7260 C.ar   43  TYR43       0.1957
     60  OH        20.7790  -44.8210   13.0580 O.3    43  TYR43      -0.2866
     61  N         15.8410  -45.7190   10.8700 N.3    51  MET51      -0.1230
     62  CA        15.1960  -45.5580    9.5670 C.3    51  MET51       0.1702
     63  C         16.3170  -45.5190    8.5490 C.2    51  MET51       0.2592
     64  O         17.4200  -45.0720    8.8590 O.2    51  MET51      -0.2718
     65  CB        14.3350  -44.3030    9.5170 C.3    51  MET51       0.0401
     66  CG        13.4760  -44.2180    8.2140 C.3    51  MET51       0.0596
     67  SD        12.4470  -45.6620    7.8660 S.3    51  MET51      -0.1393
     68  CE        11.4470  -45.6750    9.3810 C.3    51  MET51       0.0692
     69  N         16.0660  -46.0420    7.3640 N.am   52  ASP52      -0.1974
     70  CA        17.0370  -46.0340    6.2770 C.3    52  ASP52       0.1709
     71  C         16.2780  -46.1750    4.9520 C.2    52  ASP52       0.2293
     72  O         15.0540  -46.3990    4.9720 O.2    52  ASP52      -0.2864
     73  CB        18.0160  -47.1770    6.4190 C.3    52  ASP52       0.1436
     74  CG        17.3670  -48.5070    6.1510 C.2    52  ASP52       0.3671
     75  OD1       16.5710  -48.9680    7.0100 O.co2  52  ASP52      -0.2456
     76  OD2       17.6390  -49.0860    5.1130 O.co2  52  ASP52      -0.2456
     77  N         15.7410  -40.2590    9.0570 N.3    78  ILE78      -0.1245
     78  CA        17.0570  -40.7290    8.6440 C.3    78  ILE78       0.1561
     79  C         18.1090  -39.6760    9.0020 C.2    78  ILE78       0.2260
     80  O         19.1690  -39.9800    9.6220 O.2    78  ILE78      -0.2867
     81  CB        17.1110  -41.0260    7.1220 C.3    78  ILE78       0.0252
     82  CG1       16.2080  -42.2130    6.7960 C.3    78  ILE78       0.0019
     83  CG2       18.5220  -41.3900    6.7780 C.3    78  ILE78       0.0019
     84  CD1       16.0790  -42.4720    5.2830 C.3    78  ILE78       0.0001
     85  N         18.3610  -38.9760   13.0440 N.3    81  ASN81      -0.1225
     86  CA        19.0430  -40.1060   13.6860 C.3    81  ASN81       0.1785
     87  C         20.5360  -40.0190   13.4570 C.2    81  ASN81       0.2597
     88  O         21.3260  -40.2600   14.3620 O.2    81  ASN81      -0.2718
     89  CB        18.5720  -41.4620   13.1740 C.3    81  ASN81       0.1169
     90  CG        17.1660  -41.8310   13.6830 C.2    81  ASN81       0.2627
     91  OD1       16.6700  -41.2270   14.6150 O.2    81  ASN81      -0.2716
     92  ND2       16.5280  -42.8160   13.0360 N.am   81  ASN81      -0.0877
     93  N         20.9320  -39.6870   12.2290 N.am   82  ALA82      -0.1979
     94  CA        22.3560  -39.6070   11.9220 C.3    82  ALA82       0.1597
     95  C         23.0020  -38.4500   12.7360 C.2    82  ALA82       0.2287
     96  O         24.1240  -38.5910   13.2170 O.2    82  ALA82      -0.2864
     97  CB        22.5970  -39.4130   10.3520 C.3    82  ALA82       0.0319
     98  N         23.3420  -39.7680   16.3580 N.3    85  TYR85      -0.1227
     99  CA        24.2570  -40.8680   16.5900 C.3    85  TYR85       0.1736
    100  C         25.7110  -40.4320   16.3410 C.2    85  TYR85       0.2595
    101  O         26.6290  -41.0930   16.8410 O.2    85  TYR85      -0.2718
    102  CB        23.9390  -42.1150   15.7140 C.3    85  TYR85       0.0548
    103  CG        24.6720  -43.3560   16.2850 C.ar   85  TYR85      -0.0200
    104  CD1       24.2700  -43.8880   17.5180 C.ar   85  TYR85      -0.0009
    105  CD2       25.7870  -43.9440   15.6480 C.ar   85  TYR85      -0.0009
    106  CE1       24.8960  -44.9560   18.0860 C.ar   85  TYR85       0.0417
    107  CE2       26.4160  -45.0440   16.1920 C.ar   85  TYR85       0.0417
    108  CZ        25.9610  -45.5300   17.4430 C.ar   85  TYR85       0.1957
    109  OH        26.5300  -46.5460   18.0990 O.3    85  TYR85      -0.2866
    110  N         25.9050  -39.3780   15.5420 N.am   86  ASN86      -0.1974
    111  CA        27.2610  -38.9280   15.1900 C.3    86  ASN86       0.1688
    112  C         27.4240  -37.4460   15.4130 C.2    86  ASN86       0.2292
    113  O         27.5140  -36.6840   14.4610 O.2    86  ASN86      -0.2864
    114  CB        27.5610  -39.2660   13.7200 C.3    86  ASN86       0.1181
    115  CG        27.3240  -40.7350   13.4140 C.2    86  ASN86       0.2629
    116  OD1       28.1910  -41.5760   13.6240 O.2    86  ASN86      -0.2716
    117  ND2       26.1200  -41.0480   12.9570 N.am   86  ASN86      -0.0877
    118  N         32.3750  -38.0860   11.8910 N.3    93  ASP93      -0.1239
    119  CA        31.0330  -37.6750   12.2610 C.3    93  ASP93       0.1674
    120  C         30.5490  -36.5420   11.3840 C.2    93  ASP93       0.2266
    121  O         29.3800  -36.5530   10.9380 O.2    93  ASP93      -0.2867
    122  CB        30.9630  -37.2420   13.7290 C.3    93  ASP93       0.1410
    123  CG        30.8970  -38.4390   14.7000 C.2    93  ASP93       0.3668
    124  OD1       31.2980  -39.5750   14.3340 O.co2  93  ASP93      -0.2456
    125  OD2       30.4540  -38.2400   15.8640 O.co2  93  ASP93      -0.2456
    126  N         29.3900  -37.8550    7.9810 N.3    96  ILE96      -0.1245
    127  CA        28.0600  -38.4700    8.0590 C.3    96  ILE96       0.1561
    128  C         26.9580  -37.4140    8.1750 C.2    96  ILE96       0.2260
    129  O         25.9420  -37.4950    7.4800 O.2    96  ILE96      -0.2867
    130  CB        27.9620  -39.4560    9.2520 C.3    96  ILE96       0.0252
    131  CG1       28.7230  -40.7490    8.9350 C.3    96  ILE96       0.0019
    132  CG2       26.4970  -39.7330    9.5910 C.3    96  ILE96       0.0019
    133  CD1       29.2030  -41.4960   10.2200 C.3    96  ILE96       0.0001
@<TRIPOS>BOND
     1    27    26    1
     2     1     2    1
     3    25    24    1
     4    25    26    1
     5    24    23    1
     6    10    11    2
     7    10     9    1
     8    19    20    1
     9     8     9    1
    10     8     3   am
    11    12     9    1
    12    12    13    1
    13     2     3    1
    14     2     5    1
    15    15    17   ar
    16    15    13   ar
    17    23    20    1
    18    20    21    1
    19     3     4    2
    20    17    18   ar
    21    71    72    2
    22    71    70    1
    23    13    14   ar
    24     6     5    1
    25    76    74   ar
    26     5     7    1
    27    84    82    1
    28    21    22    2
    29    21    28   am
    30    74    73    1
    31    74    75   ar
    32    70    73    1
    33    70    69    1
    34    18    16   ar
    35    14    16   ar
    36    34    28    1
    37    34    33    1
    38    83    81    1
    39    82    81    1
    40    28    29    1
    41    81    78    1
    42    69    63   am
    43   129   128    2
    44    33    32    1
    45    67    66    1
    46    67    68    1
    47   126   127    1
    48   127   128    1
    49   127   130    1
    50    31    30    2
    51    66    65    1
    52    29    30    1
    53    29    32    1
    54    63    64    2
    55    63    62    1
    56    78    79    1
    57    78    77    1
    58    30    35   am
    59   131   130    1
    60   131   133    1
    61    79    80    2
    62   130   132    1
    63    65    62    1
    64    62    61    1
    65    35    36    1
    66    97    94    1
    67    36    37    1
    68    36    39    1
    69    37    38    2
    70   121   120    2
    71    41    39    1
    72   120   119    1
    73    39    40    1
    74   118   119    1
    75    94    93    1
    76    94    95    1
    77    93    87   am
    78   119   122    1
    79    95    96    2
    80   117   115   am
    81    92    90   am
    82    85    86    1
    83    60    59    1
    84    89    90    1
    85    89    86    1
    86   115   116    2
    87   115   114    1
    88    87    86    1
    89    87    88    2
    90    90    91    2
    91   114   111    1
    92    59    58   ar
    93    59    57   ar
    94   122   123    1
    95    58    56   ar
    96   124   123   ar
    97    57    55   ar
    98    48    46    1
    99   113   112    2
   100    56    54   ar
   101    42    43    1
   102   123   125   ar
   103    55    54   ar
   104    54    53    1
   105   111   112    1
   106   111   110    1
   107    47    46    1
   108   110   100   am
   109    46    43    1
   110   105   107   ar
   111   105   103   ar
   112   102   103    1
   113   102    99    1
   114    43    44    1
   115    53    50    1
   116   107   108   ar
   117   103   104   ar
   118   100    99    1
   119   100   101    2
   120    98    99    1
   121    45    44    2
   122   108   106   ar
   123   108   109    1
   124    50    51    1
   125    50    49    1
   126   104   106   ar
   127    51    52    2
