@<TRIPOS>MOLECULE
tmp/4tz8A00.pdb
 134 129 0 0 0
SMALL
GASTEIGER

@<TRIPOS>ATOM
      1  N         25.5670  -45.3240  141.2430 N.3    30  VAL30      -0.1231
      2  CA        25.4820  -45.6700  142.6530 C.3    30  VAL30       0.1692
      3  C         24.0270  -45.7160  143.1350 C.2    30  VAL30       0.2592
      4  O         23.7100  -46.3900  144.1140 O.2    30  VAL30      -0.2718
      5  CB        26.2950  -44.6720  143.5120 C.3    30  VAL30       0.0266
      6  CG1       25.6080  -43.3170  143.5630 C.3    30  VAL30       0.0020
      7  CG2       26.5100  -45.2120  144.9080 C.3    30  VAL30       0.0020
      8  N         23.1400  -45.0200  142.4300 N.am   31  PHE31      -0.1976
      9  CA        21.7380  -44.9570  142.8310 C.3    31  PHE31       0.1639
     10  C         20.8630  -45.9480  142.0660 C.2    31  PHE31       0.2290
     11  O         19.6400  -45.9200  142.1880 O.2    31  PHE31      -0.2864
     12  CB        21.1900  -43.5410  142.6380 C.3    31  PHE31       0.0560
     13  CG        22.0420  -42.4680  143.2560 C.ar   31  PHE31      -0.0200
     14  CD1       22.2170  -42.4050  144.6280 C.ar   31  PHE31      -0.0042
     15  CD2       22.6540  -41.5110  142.4630 C.ar   31  PHE31      -0.0042
     16  CE1       22.9970  -41.4150  145.1980 C.ar   31  PHE31      -0.0003
     17  CE2       23.4330  -40.5170  143.0260 C.ar   31  PHE31      -0.0003
     18  CZ        23.6050  -40.4690  144.3960 C.ar   31  PHE31      -0.0000
     19  N         21.0910  -49.3540  142.2050 N.3    33  LYS33      -0.1231
     20  CA        20.8580  -50.5860  142.9470 C.3    33  LYS33       0.1678
     21  C         20.6700  -50.2880  144.4290 C.2    33  LYS33       0.2434
     22  O         21.1910  -49.2940  144.9330 O.2    33  LYS33      -0.2733
     23  CB        22.0230  -51.5610  142.7450 C.3    33  LYS33       0.0284
     24  CG        22.2870  -52.0260  141.3210 C.3    33  LYS33       0.0035
     25  CD        23.5190  -52.9450  141.2730 C.3    33  LYS33       0.0206
     26  CE        24.8350  -52.3400  141.8100 C.3    33  LYS33       0.1093
     27  NZ        25.2470  -51.1300  141.1070 N.3    33  LYS33      -0.1314
     28  N         19.9130  -51.1450  145.1330 N.am   34  PRO34      -0.2718
     29  CA        19.7650  -50.9920  146.5830 C.3    34  PRO34       0.1535
     30  C         21.1050  -51.1320  147.2980 C.2    34  PRO34       0.2598
     31  O         22.0400  -51.7070  146.7420 O.2    34  PRO34      -0.2715
     32  CB        18.8180  -52.1340  146.9660 C.3    34  PRO34       0.0310
     33  CG        18.0950  -52.4730  145.7080 C.3    34  PRO34       0.0237
     34  CD        19.0850  -52.2450  144.6080 C.3    34  PRO34       0.0939
     35  N         21.1950  -50.6070  148.5140 N.am   35  VAL35      -0.1978
     36  CA        22.4250  -50.6930  149.2900 C.3    35  VAL35       0.1596
     37  C         22.6370  -52.1020  149.8340 C.2    35  VAL35       0.2287
     38  O         21.7920  -52.6330  150.5530 O.2    35  VAL35      -0.2864
     39  CB        22.4240  -49.6940  150.4600 C.3    35  VAL35       0.0276
     40  CG1       23.6210  -49.9330  151.3610 C.3    35  VAL35       0.0022
     41  CG2       22.4260  -48.2720  149.9370 C.3    35  VAL35       0.0022
     42  N         28.2530  -54.9750  152.4380 N.3    39  GLU39      -0.1231
     43  CA        29.2340  -53.9080  152.2820 C.3    39  GLU39       0.1699
     44  C         28.9120  -52.7390  153.2090 C.2    39  GLU39       0.2592
     45  O         29.8110  -52.0850  153.7370 O.2    39  GLU39      -0.2718
     46  CB        29.2840  -53.4320  150.8280 C.3    39  GLU39       0.0402
     47  CG        29.6950  -54.5570  149.8770 C.3    39  GLU39       0.1161
     48  CD        31.2040  -54.5390  149.7410 C.2    39  GLU39       0.3649
     49  OE1       31.9150  -53.7000  150.3450 O.co2  39  GLU39      -0.2457
     50  OE2       31.7250  -55.4190  149.0470 O.co2  39  GLU39      -0.2457
     51  N         27.6210  -52.4840  153.3990 N.am   40  VAL40      -0.1980
     52  CA        27.1700  -51.3940  154.2570 C.3    40  VAL40       0.1595
     53  C         26.1400  -51.8880  155.2710 C.2    40  VAL40       0.2287
     54  O         24.9410  -51.8910  154.9910 O.2    40  VAL40      -0.2864
     55  CB        26.5520  -50.2470  153.4380 C.3    40  VAL40       0.0276
     56  CG1       26.4480  -49.0020  154.2860 C.3    40  VAL40       0.0022
     57  CG2       27.3740  -49.9660  152.1880 C.3    40  VAL40       0.0022
     58  N         23.5990  -49.0430  157.0740 N.3    43  TYR43      -0.1241
     59  CA        22.7210  -48.2360  156.2330 C.3    43  TYR43       0.1605
     60  C         21.2570  -48.4280  156.6100 C.2    43  TYR43       0.2264
     61  O         20.5630  -47.4640  156.9370 O.2    43  TYR43      -0.2867
     62  CB        22.9210  -48.5640  154.7530 C.3    43  TYR43       0.0534
     63  CG        22.1980  -47.6020  153.8350 C.ar   43  TYR43      -0.0201
     64  CD1       22.7530  -46.3690  153.5190 C.ar   43  TYR43      -0.0009
     65  CD2       20.9570  -47.9190  153.2980 C.ar   43  TYR43      -0.0009
     66  CE1       22.0980  -45.4810  152.6890 C.ar   43  TYR43       0.0417
     67  CE2       20.2910  -47.0360  152.4670 C.ar   43  TYR43       0.0417
     68  CZ        20.8680  -45.8190  152.1660 C.ar   43  TYR43       0.1957
     69  OH        20.2130  -44.9360  151.3410 O.3    43  TYR43      -0.2866
     70  N         15.7560  -46.1300  149.0710 N.3    51  MET51      -0.1230
     71  CA        15.1660  -45.9480  147.7520 C.3    51  MET51       0.1702
     72  C         16.2510  -45.8820  146.6870 C.2    51  MET51       0.2592
     73  O         17.3160  -45.3070  146.9050 O.2    51  MET51      -0.2718
     74  CB        14.3010  -44.6850  147.7150 C.3    51  MET51       0.0401
     75  CG        13.4840  -44.5160  146.4370 C.3    51  MET51       0.0596
     76  SD        12.4340  -45.9350  146.0580 S.3    51  MET51      -0.1393
     77  CE        11.4260  -46.0100  147.5370 C.3    51  MET51       0.0692
     78  N         15.9750  -46.4880  145.5390 N.am   52  ASP52      -0.1974
     79  CA        16.9000  -46.4730  144.4160 C.3    52  ASP52       0.1709
     80  C         16.1260  -46.6270  143.1150 C.2    52  ASP52       0.2293
     81  O         14.9230  -46.8830  143.1290 O.2    52  ASP52      -0.2864
     82  CB        17.9440  -47.5820  144.5580 C.3    52  ASP52       0.1436
     83  CG        17.3380  -48.9620  144.4470 C.2    52  ASP52       0.3671
     84  OD1       16.8290  -49.4750  145.4660 O.co2  52  ASP52      -0.2456
     85  OD2       17.3690  -49.5310  143.3390 O.co2  52  ASP52      -0.2456
     86  N         15.6370  -40.4820  147.2560 N.3    78  ILE78      -0.1245
     87  CA        16.9620  -40.9640  146.8770 C.3    78  ILE78       0.1561
     88  C         18.0140  -39.9040  147.1870 C.2    78  ILE78       0.2260
     89  O         19.0890  -40.2090  147.7060 O.2    78  ILE78      -0.2867
     90  CB        17.0320  -41.3330  145.3810 C.3    78  ILE78       0.0252
     91  CG1       16.1310  -42.5330  145.0810 C.3    78  ILE78       0.0019
     92  CG2       18.4590  -41.6520  144.9740 C.3    78  ILE78       0.0019
     93  CD1       16.0950  -42.9280  143.6160 C.3    78  ILE78       0.0001
     94  N         18.2790  -39.0750  151.1770 N.3    81  ASN81      -0.1225
     95  CA        18.9600  -40.1850  151.8300 C.3    81  ASN81       0.1785
     96  C         20.4710  -40.0950  151.6560 C.2    81  ASN81       0.2597
     97  O         21.2320  -40.3930  152.5750 O.2    81  ASN81      -0.2718
     98  CB        18.4540  -41.5220  151.2830 C.3    81  ASN81       0.1169
     99  CG        17.0950  -41.9060  151.8420 C.2    81  ASN81       0.2627
    100  OD1       16.5290  -41.1950  152.6720 O.2    81  ASN81      -0.2716
    101  ND2       16.5640  -43.0330  151.3840 N.am   81  ASN81      -0.0877
    102  N         20.9000  -39.6810  150.4680 N.am   82  ALA82      -0.1979
    103  CA        22.3230  -39.5860  150.1680 C.3    82  ALA82       0.1597
    104  C         22.9680  -38.4400  150.9420 C.2    82  ALA82       0.2287
    105  O         24.0830  -38.5740  151.4410 O.2    82  ALA82      -0.2864
    106  CB        22.5390  -39.4100  148.6760 C.3    82  ALA82       0.0319
    107  N         23.0990  -39.6100  154.7570 N.3    85  TYR85      -0.1227
    108  CA        24.0280  -40.6880  155.0690 C.3    85  TYR85       0.1736
    109  C         25.4870  -40.3260  154.7820 C.2    85  TYR85       0.2595
    110  O         26.3960  -40.8810  155.3950 O.2    85  TYR85      -0.2718
    111  CB        23.6540  -41.9560  154.3000 C.3    85  TYR85       0.0548
    112  CG        24.4850  -43.1450  154.7120 C.ar   85  TYR85      -0.0200
    113  CD1       24.2290  -43.8120  155.9020 C.ar   85  TYR85      -0.0009
    114  CD2       25.5400  -43.5900  153.9250 C.ar   85  TYR85      -0.0009
    115  CE1       24.9920  -44.8940  156.2920 C.ar   85  TYR85       0.0417
    116  CE2       26.3090  -44.6730  154.3080 C.ar   85  TYR85       0.0417
    117  CZ        26.0280  -45.3200  155.4920 C.ar   85  TYR85       0.1957
    118  OH        26.7850  -46.3940  155.8860 O.3    85  TYR85      -0.2866
    119  N         25.7120  -39.4010  153.8530 N.am   86  ASN86      -0.1974
    120  CA        27.0720  -38.9840  153.5100 C.3    86  ASN86       0.1688
    121  C         27.2800  -37.4860  153.7020 C.2    86  ASN86       0.2292
    122  O         27.4200  -36.7550  152.7260 O.2    86  ASN86      -0.2864
    123  CB        27.4030  -39.3560  152.0610 C.3    86  ASN86       0.1181
    124  CG        26.9260  -40.7470  151.6840 C.2    86  ASN86       0.2629
    125  OD1       27.6470  -41.7310  151.8480 O.2    86  ASN86      -0.2716
    126  ND2       25.7100  -40.8320  151.1550 N.am   86  ASN86      -0.0877
    127  N         29.2700  -37.9000  146.1180 N.3    96  ILE96      -0.1245
    128  CA        27.9800  -38.5700  146.0320 C.3    96  ILE96       0.1561
    129  C         26.8330  -37.5960  146.3140 C.2    96  ILE96       0.2260
    130  O         25.7520  -37.7290  145.7430 O.2    96  ILE96      -0.2867
    131  CB        27.9050  -39.7880  146.9900 C.3    96  ILE96       0.0252
    132  CG1       26.6290  -40.5920  146.7340 C.3    96  ILE96       0.0019
    133  CG2       27.9930  -39.3570  148.4450 C.3    96  ILE96       0.0019
    134  CD1       26.5850  -41.9100  147.4690 C.3    96  ILE96       0.0001
@<TRIPOS>BOND
     1    27    26    1
     2     1     2    1
     3    25    24    1
     4    25    26    1
     5    24    23    1
     6    10    11    2
     7    10     9    1
     8    19    20    1
     9     8     9    1
    10     8     3   am
    11    15    17   ar
    12    15    13   ar
    13    12     9    1
    14    12    13    1
    15     2     3    1
    16     2     5    1
    17    23    20    1
    18    20    21    1
    19    17    18   ar
    20    80    81    2
    21    80    79    1
    22     3     4    2
    23    13    14   ar
    24    85    83   ar
    25     5     6    1
    26     5     7    1
    27    93    91    1
    28    18    16   ar
    29    79    82    1
    30    79    78    1
    31    21    22    2
    32    21    28   am
    33    83    82    1
    34    83    84   ar
    35    34    28    1
    36    34    33    1
    37    14    16   ar
    38    92    90    1
    39    91    90    1
    40    28    29    1
    41    90    87    1
    42    78    72   am
    43    33    32    1
    44   130   129    2
    45   128   127    1
    46   128   129    1
    47   128   131    1
    48    76    75    1
    49    76    77    1
    50    75    74    1
    51    29    32    1
    52    29    30    1
    53    72    73    2
    54    72    71    1
    55   132   131    1
    56   132   134    1
    57    31    30    2
    58    87    88    1
    59    87    86    1
    60   131   133    1
    61    88    89    2
    62    30    35   am
    63    74    71    1
    64    71    70    1
    65    35    36    1
    66   106   103    1
    67    50    48   ar
    68    36    37    1
    69    36    39    1
    70    48    47    1
    71    48    49   ar
    72    37    38    2
    73    47    46    1
    74    41    39    1
    75   103   102    1
    76   103   104    1
    77    39    40    1
    78   102    96   am
    79    46    43    1
    80   104   105    2
    81   126   124   am
    82    94    95    1
    83    98    95    1
    84    98    99    1
    85    69    68    1
    86   101    99   am
    87    96    95    1
    88    96    97    2
    89   124   125    2
    90   124   123    1
    91    99   100    2
    92   123   120    1
    93    68    67   ar
    94    68    66   ar
    95    57    55    1
    96    43    42    1
    97    43    44    1
    98    67    65   ar
    99    66    64   ar
   100   122   121    2
   101    44    51   am
   102    44    45    2
   103    65    63   ar
   104    51    52    1
   105    55    52    1
   106    55    56    1
   107   120   121    1
   108   120   119    1
   109    64    63   ar
   110    63    62    1
   111   119   109   am
   112   114   116   ar
   113   114   112   ar
   114    52    53    1
   115   111   112    1
   116   111   108    1
   117   116   117   ar
   118   112   113   ar
   119    62    59    1
   120   107   108    1
   121   109   108    1
   122   109   110    2
   123    54    53    2
   124   117   118    1
   125   117   115   ar
   126   113   115   ar
   127    59    60    1
   128    59    58    1
   129    60    61    2
