@<TRIPOS>MOLECULE
tmp/4tzdB00.pdb
 83 79 0 0 0
SMALL
GASTEIGER

@<TRIPOS>ATOM
      1  N         33.3900   40.8570   -4.7260 N.3    53  ILE53      -0.1231
      2  CA        34.4890   40.1010   -4.1190 C.3    53  ILE53       0.1692
      3  C         34.4900   38.6500   -4.5450 C.2    53  ILE53       0.2592
      4  O         33.4290   38.0310   -4.6560 O.2    53  ILE53      -0.2718
      5  CB        34.4170   40.0550   -2.5880 C.3    53  ILE53       0.0266
      6  CG1       34.0440   41.3980   -1.9820 C.3    53  ILE53       0.0019
      7  CG2       35.7220   39.5230   -2.0170 C.3    53  ILE53       0.0020
      8  CD1       33.2230   41.2270   -0.7280 C.3    53  ILE53       0.0001
      9  N         35.6880   38.0980   -4.7310 N.am   54  TYR54      -0.1962
     10  CA        35.8480   36.6780   -5.0250 C.3    54  TYR54       0.1771
     11  C         37.1310   36.1070   -4.4820 C.2    54  TYR54       0.2619
     12  O         38.1650   36.7630   -4.4980 O.2    54  TYR54      -0.2715
     13  CB        35.8290   36.4550   -6.5240 C.3    54  TYR54       0.0574
     14  CG        35.9890   35.0090   -6.9370 C.ar   54  TYR54      -0.0198
     15  CD1       34.9080   34.1210   -6.8660 C.ar   54  TYR54      -0.0009
     16  CD2       37.2060   34.5290   -7.4260 C.ar   54  TYR54      -0.0009
     17  CE1       35.0390   32.7940   -7.2590 C.ar   54  TYR54       0.0417
     18  CE2       37.3360   33.2050   -7.8180 C.ar   54  TYR54       0.0417
     19  CZ        36.2430   32.3500   -7.7340 C.ar   54  TYR54       0.1957
     20  OH        36.3290   31.0500   -8.1260 O.3    54  TYR54      -0.2866
     21  N         37.0680   34.8630   -4.0290 N.am   55  ASN55      -0.1972
     22  CA        38.2650   34.1660   -3.5720 C.3    55  ASN55       0.1688
     23  C         38.3000   32.7700   -4.1380 C.2    55  ASN55       0.2292
     24  O         37.3350   32.0300   -3.9810 O.2    55  ASN55      -0.2864
     25  CB        38.3130   34.1180   -2.0410 C.3    55  ASN55       0.1181
     26  CG        37.2050   33.2770   -1.4320 C.2    55  ASN55       0.2629
     27  OD1       37.4410   32.5590   -0.4510 O.2    55  ASN55      -0.2716
     28  ND2       35.9910   33.3610   -2.0060 N.am   55  ASN55      -0.0877
     29  N         39.2690   30.2530   -3.1110 N.3    57  VAL57      -0.1245
     30  CA        39.2170   29.2260   -2.0760 C.3    57  VAL57       0.1561
     31  C         37.7750   28.8160   -1.8090 C.2    57  VAL57       0.2260
     32  O         37.3400   27.7120   -2.1650 O.2    57  VAL57      -0.2867
     33  CB        39.8600   29.7030   -0.7600 C.3    57  VAL57       0.0252
     34  CG1       40.2290   28.4930    0.0780 C.3    57  VAL57       0.0019
     35  CG2       41.0960   30.5590   -1.0230 C.3    57  VAL57       0.0019
     36  N         41.4700   45.2760   -7.2350 N.3   112  THR112     -0.1218
     37  CA        42.6390   44.4780   -6.8440 C.3   112  THR112      0.1862
     38  C         42.3950   43.0170   -7.1880 C.2   112  THR112      0.2287
     39  O         41.3030   42.5170   -6.9320 O.2   112  THR112     -0.2866
     40  CB        42.9460   44.5430   -5.3240 C.3   112  THR112      0.1770
     41  OG1       43.1940   45.8910   -4.8980 O.3   112  THR112     -0.2211
     42  CG2       44.1630   43.7160   -5.0130 C.3   112  THR112      0.0375
     43  N         45.0200   39.3360   -6.7480 N.3   114  LYS114     -0.1245
     44  CA        46.2900   38.8330   -6.2030 C.3   114  LYS114      0.1561
     45  C         46.4030   37.3400   -6.3840 C.2   114  LYS114      0.2260
     46  O         45.5080   36.5920   -6.0090 O.2   114  LYS114     -0.2867
     47  CB        46.4110   39.1160   -4.7130 C.3   114  LYS114      0.0271
     48  CG        45.4970   40.2320   -4.2110 C.3   114  LYS114      0.0035
     49  CD        46.1860   41.6000   -4.0330 C.3   114  LYS114      0.0206
     50  CE        47.0570   41.9340   -5.2380 C.3   114  LYS114      0.1093
     51  NZ        48.2290   40.9570   -5.2540 N.3   114  LYS114     -0.1314
     52  N         46.0720   30.8040   -4.1440 N.3   183  VAL183     -0.1245
     53  CA        45.0010   31.8040   -4.0500 C.3   183  VAL183      0.1561
     54  C         44.8760   32.6620   -5.3230 C.2   183  VAL183      0.2260
     55  O         45.8630   33.2320   -5.7930 O.2   183  VAL183     -0.2867
     56  CB        45.2130   32.7550   -2.8610 C.3   183  VAL183      0.0252
     57  CG1       44.0170   33.6890   -2.7410 C.3   183  VAL183      0.0019
     58  CG2       45.4710   31.9860   -1.5720 C.3   183  VAL183      0.0019
     59  N         42.3900   35.5850   -6.1820 N.3   185  SER185     -0.1202
     60  CA        41.3310   36.3860   -5.6030 C.3   185  SER185      0.2020
     61  C         41.3490   37.7520   -6.1960 C.2   185  SER185      0.2619
     62  O         42.4240   38.2910   -6.4920 O.2   185  SER185     -0.2717
     63  CB        41.6210   36.5900   -4.1370 C.3   185  SER185      0.2103
     64  OG        42.8090   37.3810   -3.9930 O.3   185  SER185     -0.2182
     65  N         40.1590   38.3330   -6.2940 N.am  186  PHE186     -0.1961
     66  CA        40.0150   39.7090   -6.6880 C.3   186  PHE186      0.1771
     67  C         38.8410   40.3690   -6.0300 C.2   186  PHE186      0.2619
     68  O         37.9650   39.7250   -5.4820 O.2   186  PHE186     -0.2715
     69  CB        39.8680   39.8160   -8.1960 C.3   186  PHE186      0.0574
     70  CG        38.5640   39.3300   -8.7170 C.ar  186  PHE186     -0.0200
     71  CD1       37.4850   40.2050   -8.8380 C.ar  186  PHE186     -0.0042
     72  CD2       38.4150   38.0150   -9.1300 C.ar  186  PHE186     -0.0042
     73  CE1       36.2630   39.7650   -9.3330 C.ar  186  PHE186     -0.0003
     74  CE2       37.2090   37.5710   -9.6410 C.ar  186  PHE186     -0.0003
     75  CZ        36.1320   38.4440   -9.7420 C.ar  186  PHE186     -0.0000
     76  N         38.8260   41.6790   -6.1080 N.am  187  ASP187     -0.1971
     77  CA        37.6510   42.4100   -5.7570 C.3   187  ASP187      0.1709
     78  C         37.6780   43.6990   -6.5600 C.2   187  ASP187      0.2293
     79  O         38.7430   44.1570   -7.0080 O.2   187  ASP187     -0.2864
     80  CB        37.6290   42.6920   -4.2570 C.3   187  ASP187      0.1436
     81  CG        38.4930   43.8550   -3.8840 C.2   187  ASP187      0.3671
     82  OD1       39.7250   43.7480   -4.0050 O.co2 187  ASP187     -0.2456
     83  OD2       37.9370   44.8970   -3.4940 O.co2 187  ASP187     -0.2456
@<TRIPOS>BOND
     1    75    74   ar
     2    75    73   ar
     3    74    72   ar
     4    73    71   ar
     5    72    70   ar
     6    71    70   ar
     7    70    69    1
     8    69    66    1
     9    20    19    1
    10    18    19   ar
    11    18    16   ar
    12    19    17   ar
    13    16    14   ar
    14    17    15   ar
    15    36    37    1
    16    38    39    2
    17    38    37    1
    18    79    78    2
    19    14    15   ar
    20    14    13    1
    21    37    40    1
    22    43    44    1
    23    66    65    1
    24    66    67    1
    25    78    77    1
    26    13    10    1
    27    62    61    2
    28    45    44    1
    29    45    46    2
    30    65    61   am
    31    44    47    1
    32    61    60    1
    33    59    60    1
    34    76    67   am
    35    76    77    1
    36    67    68    2
    37    55    54    2
    38    77    80    1
    39    60    63    1
    40    40    42    1
    41    40    41    1
    42    54    53    1
    43    51    50    1
    44    50    49    1
    45    10     9    1
    46    10    11    1
    47     9     3   am
    48     1     2    1
    49    47    48    1
    50     4     3    2
    51     3     2    1
    52    12    11    2
    53    11    21   am
    54    80    81    1
    55    48    49    1
    56    52    53    1
    57    23    24    2
    58    23    22    1
    59    63    64    1
    60     2     5    1
    61    53    56    1
    62    21    22    1
    63    82    81   ar
    64    81    83   ar
    65    22    25    1
    66    29    30    1
    67    56    57    1
    68    56    58    1
    69     5     7    1
    70     5     6    1
    71    32    31    2
    72    30    31    1
    73    30    33    1
    74    25    26    1
    75    28    26   am
    76     6     8    1
    77    26    27    2
    78    35    33    1
    79    33    34    1
