@<TRIPOS>MOLECULE
tmp/4tzrA00.pdb
 143 132 0 0 0
SMALL
GASTEIGER

@<TRIPOS>ATOM
      1  N         -6.8820  -18.9240  -35.4440 N.3    16  LEU16      -0.1245
      2  CA        -6.9340  -19.2970  -34.0310 C.3    16  LEU16       0.1561
      3  C         -6.7770  -18.0820  -33.1340 C.2    16  LEU16       0.2260
      4  O         -7.3760  -18.0210  -32.0460 O.2    16  LEU16      -0.2867
      5  CB        -5.8670  -20.3240  -33.6950 C.3    16  LEU16       0.0270
      6  CG        -6.1810  -21.6680  -34.3510 C.3    16  LEU16       0.0019
      7  CD1       -5.0080  -22.6070  -34.2440 C.3    16  LEU16       0.0001
      8  CD2       -7.4040  -22.3350  -33.7690 C.3    16  LEU16       0.0001
      9  N         -1.8920  -16.7480  -35.6310 N.3    24  VAL24      -0.1245
     10  CA        -1.8160  -18.1750  -35.7030 C.3    24  VAL24       0.1561
     11  C         -3.0600  -18.7010  -36.4040 C.2    24  VAL24       0.2260
     12  O         -4.1790  -18.3850  -36.0050 O.2    24  VAL24      -0.2867
     13  CB        -1.7360  -18.7630  -34.2980 C.3    24  VAL24       0.0252
     14  CG1       -1.7460  -20.2930  -34.3450 C.3    24  VAL24       0.0019
     15  CG2       -0.4750  -18.2580  -33.6260 C.3    24  VAL24       0.0019
     16  N         -1.1560  -25.8970  -36.2150 N.3    37  ALA37      -0.1245
     17  CA        -1.2720  -24.4960  -35.8770 C.3    37  ALA37       0.1562
     18  C         -0.0250  -23.7730  -36.4200 C.2    37  ALA37       0.2260
     19  O          1.1500  -24.0590  -36.0400 O.2    37  ALA37      -0.2867
     20  CB        -1.4140  -24.3310  -34.3480 C.3    37  ALA37       0.0290
     21  N          2.0450  -20.3730  -36.9210 N.3    39  LYS39      -0.1245
     22  CA         2.3050  -18.9770  -36.5550 C.3    39  LYS39       0.1561
     23  C          2.9450  -18.2940  -37.7710 C.2    39  LYS39       0.2260
     24  O          3.9830  -18.7120  -38.2850 O.2    39  LYS39      -0.2867
     25  CB         3.2020  -18.8900  -35.3260 C.3    39  LYS39       0.0271
     26  CG         3.6230  -17.4580  -34.9880 C.3    39  LYS39       0.0035
     27  CD         3.9720  -17.2110  -33.5040 C.3    39  LYS39       0.0206
     28  CE         2.7380  -17.2370  -32.6110 C.3    39  LYS39       0.1093
     29  NZ         3.0050  -16.7800  -31.2370 N.3    39  LYS39      -0.1314
     30  N         15.7850  -23.0360  -35.7060 N.3    59  VAL59      -0.1245
     31  CA        14.6570  -23.8050  -36.2120 C.3    59  VAL59       0.1561
     32  C         14.9850  -25.2760  -36.3350 C.2    59  VAL59       0.2260
     33  O         14.2180  -26.1440  -35.9430 O.2    59  VAL59      -0.2867
     34  CB        14.1540  -23.2510  -37.5470 C.3    59  VAL59       0.0252
     35  CG1       13.2390  -24.2320  -38.2240 C.3    59  VAL59       0.0019
     36  CG2       13.3490  -21.9980  -37.2920 C.3    59  VAL59       0.0019
     37  N         15.0550  -26.7470  -32.8880 N.3    62  LEU62      -0.1245
     38  CA        13.6810  -26.8460  -32.3210 C.3    62  LEU62       0.1561
     39  C         12.9050  -28.0020  -32.8940 C.2    62  LEU62       0.2260
     40  O         12.2230  -28.6710  -32.1620 O.2    62  LEU62      -0.2867
     41  CB        12.8820  -25.5340  -32.4900 C.3    62  LEU62       0.0270
     42  CG        13.4050  -24.3220  -31.7030 C.3    62  LEU62       0.0019
     43  CD1       12.8410  -23.0160  -32.2030 C.3    62  LEU62       0.0001
     44  CD2       13.0700  -24.4930  -30.2470 C.3    62  LEU62       0.0001
     45  N          5.4650  -26.8280  -26.8480 N.3    71  MET71      -0.1245
     46  CA         4.8730  -26.8990  -28.1740 C.3    71  MET71       0.1570
     47  C          5.7840  -27.6020  -29.1630 C.2    71  MET71       0.2261
     48  O          6.9600  -27.2710  -29.2260 O.2    71  MET71      -0.2867
     49  CB         4.5530  -25.5270  -28.7350 C.3    71  MET71       0.0387
     50  CG         3.5800  -25.6760  -29.8930 C.3    71  MET71       0.0595
     51  SD         3.7470  -24.6090  -31.2000 S.3    71  MET71      -0.1393
     52  CE         5.4440  -24.7950  -31.7620 C.3    71  MET71       0.0692
     53  N          7.2870  -28.2990  -32.7670 N.3    73  LEU73      -0.1245
     54  CA         7.4630  -27.6820  -34.0620 C.3    73  LEU73       0.1561
     55  C          7.7230  -28.7300  -35.1280 C.2    73  LEU73       0.2260
     56  O          8.5970  -29.5350  -34.9740 O.2    73  LEU73      -0.2867
     57  CB         8.6470  -26.7380  -33.9850 C.3    73  LEU73       0.0270
     58  CG         8.9410  -25.9900  -35.2720 C.3    73  LEU73       0.0019
     59  CD1        7.7950  -25.0380  -35.6260 C.3    73  LEU73       0.0001
     60  CD2       10.2620  -25.2790  -35.1530 C.3    73  LEU73       0.0001
     61  N          5.6360  -20.8960  -39.3220 N.3    85  LEU85      -0.1245
     62  CA         6.1060  -21.8550  -38.3430 C.3    85  LEU85       0.1561
     63  C          4.9630  -22.7990  -38.0710 C.2    85  LEU85       0.2260
     64  O          3.9270  -22.3990  -37.5480 O.2    85  LEU85      -0.2867
     65  CB         6.5010  -21.1430  -37.0400 C.3    85  LEU85       0.0270
     66  CG         7.2970  -19.8600  -37.1820 C.3    85  LEU85       0.0019
     67  CD1        7.5100  -19.1260  -35.8840 C.3    85  LEU85       0.0001
     68  CD2        8.6130  -20.2500  -37.7690 C.3    85  LEU85       0.0001
     69  N          3.3630  -25.7870  -36.1770 N.3    87  GLY87      -0.1210
     70  CA         3.4020  -26.5790  -34.9610 C.3    87  GLY87       0.1956
     71  C          2.1220  -27.3600  -34.6850 C.2    87  GLY87       0.2612
     72  O          1.1380  -27.2910  -35.4270 O.2    87  GLY87      -0.2717
     73  N          2.1530  -28.1290  -33.6130 N.am   88  GLU88      -0.1965
     74  CA         1.0320  -28.9510  -33.2580 C.3    88  GLU88       0.1733
     75  C         -0.0600  -28.0490  -32.7330 C.2    88  GLU88       0.2616
     76  O          0.2600  -27.0940  -32.0200 O.2    88  GLU88      -0.2715
     77  CB         1.4870  -29.9290  -32.1820 C.3    88  GLU88       0.0429
     78  CG         0.5130  -31.0150  -31.7720 C.3    88  GLU88       0.1163
     79  CD         1.1190  -31.9600  -30.7560 C.2    88  GLU88       0.3649
     80  OE1        2.1590  -31.6750  -30.0810 O.co2  88  GLU88      -0.2457
     81  OE2        0.5020  -33.0010  -30.5930 O.co2  88  GLU88      -0.2457
     82  N         -1.3280  -28.3840  -33.0380 N.am   89  VAL89      -0.1963
     83  CA        -2.4930  -27.6600  -32.5480 C.3    89  VAL89       0.1727
     84  C         -2.8780  -28.1330  -31.1670 C.2    89  VAL89       0.2616
     85  O         -2.9970  -29.3250  -30.9670 O.2    89  VAL89      -0.2715
     86  CB        -3.7910  -27.9740  -33.3320 C.3    89  VAL89       0.0290
     87  CG1       -4.8470  -26.9150  -32.9570 C.3    89  VAL89       0.0023
     88  CG2       -3.5520  -27.9620  -34.8240 C.3    89  VAL89       0.0023
     89  N         -3.1390  -27.2190  -30.2520 N.am   90  TYR90      -0.1974
     90  CA        -3.6930  -27.5760  -28.9290 C.3    90  TYR90       0.1639
     91  C         -5.0640  -26.9130  -28.7670 C.2    90  TYR90       0.2290
     92  O         -5.2830  -25.7910  -29.1840 O.2    90  TYR90      -0.2864
     93  CB        -2.7100  -27.1630  -27.7930 C.3    90  TYR90       0.0560
     94  CG        -1.3340  -27.7410  -28.0400 C.ar   90  TYR90      -0.0198
     95  CD1       -1.1690  -29.1070  -28.1200 C.ar   90  TYR90      -0.0009
     96  CD2       -0.2210  -26.9300  -28.2760 C.ar   90  TYR90      -0.0009
     97  CE1        0.0510  -29.6800  -28.4140 C.ar   90  TYR90       0.0417
     98  CE2        1.0380  -27.5120  -28.5330 C.ar   90  TYR90       0.0417
     99  CZ         1.1470  -28.8830  -28.6350 C.ar   90  TYR90       0.1957
    100  OH         2.3360  -29.5000  -28.9160 O.3    90  TYR90      -0.2866
    101  N         -0.6680  -23.1540  -22.6730 N.3   140  LEU140     -0.1245
    102  CA        -1.8570  -23.7440  -23.2930 C.3   140  LEU140      0.1561
    103  C         -2.1380  -25.1210  -22.6960 C.2   140  LEU140      0.2260
    104  O         -1.2290  -25.8260  -22.3130 O.2   140  LEU140     -0.2867
    105  CB        -1.6580  -23.8780  -24.7920 C.3   140  LEU140      0.0270
    106  CG        -1.4060  -22.6360  -25.5960 C.3   140  LEU140      0.0019
    107  CD1       -1.4300  -22.9430  -27.0560 C.3   140  LEU140      0.0001
    108  CD2       -2.4280  -21.5530  -25.2890 C.3   140  LEU140      0.0001
    109  N          4.1370  -22.1600  -25.1740 N.3   153  ILE153     -0.1231
    110  CA         4.3740  -21.6510  -26.4950 C.3   153  ILE153      0.1692
    111  C          5.3980  -20.5280  -26.5030 C.2   153  ILE153      0.2592
    112  O          5.5260  -19.7870  -25.5540 O.2   153  ILE153     -0.2718
    113  CB         3.0730  -21.1910  -27.1930 C.3   153  ILE153      0.0266
    114  CG1        2.2530  -20.2170  -26.3360 C.3   153  ILE153      0.0019
    115  CG2        2.2210  -22.3930  -27.5280 C.3   153  ILE153      0.0020
    116  CD1        1.0330  -19.6180  -27.0440 C.3   153  ILE153      0.0001
    117  N          6.0670  -20.3900  -27.6460 N.am  154  ASP154     -0.1960
    118  CA         6.8920  -19.2330  -28.0100 C.3   154  ASP154      0.1840
    119  C          8.3620  -19.3070  -27.5210 C.2   154  ASP154      0.2622
    120  O          9.0990  -18.3290  -27.6560 O.2   154  ASP154     -0.2715
    121  CB         6.2670  -17.9090  -27.6000 C.3   154  ASP154      0.1450
    122  CG         5.1010  -17.4800  -28.5240 C.2   154  ASP154      0.3671
    123  OD1        4.9390  -18.0600  -29.6200 O.co2 154  ASP154     -0.2456
    124  OD2        4.3730  -16.5320  -28.1260 O.co2 154  ASP154     -0.2456
    125  N          8.8120  -20.4750  -27.0440 N.am  155  PHE155     -0.1974
    126  CA        10.2090  -20.6130  -26.7350 C.3   155  PHE155      0.1639
    127  C         10.9770  -20.3650  -27.9920 C.2   155  PHE155      0.2290
    128  O         10.6640  -20.9150  -29.0440 O.2   155  PHE155     -0.2864
    129  CB        10.5500  -22.0120  -26.2220 C.3   155  PHE155      0.0560
    130  CG        10.7760  -22.0600  -24.7460 C.ar  155  PHE155     -0.0200
    131  CD1       11.9880  -21.7010  -24.2350 C.ar  155  PHE155     -0.0042
    132  CD2        9.7900  -22.5270  -23.8820 C.ar  155  PHE155     -0.0042
    133  CE1       12.2300  -21.7310  -22.8720 C.ar  155  PHE155     -0.0003
    134  CE2        9.9970  -22.5680  -22.5240 C.ar  155  PHE155     -0.0003
    135  CZ        11.2300  -22.1610  -22.0130 C.ar  155  PHE155     -0.0000
    136  N         11.5000  -17.5610  -29.6970 N.3   157  LEU157     -0.1245
    137  CA        11.1640  -16.4930  -30.6030 C.3   157  LEU157      0.1561
    138  C         11.7700  -15.1500  -30.2300 C.2   157  LEU157      0.2260
    139  O         12.1760  -14.4090  -31.0980 O.2   157  LEU157     -0.2867
    140  CB         9.6760  -16.3560  -30.7470 C.3   157  LEU157      0.0270
    141  CG         8.9870  -17.5680  -31.4020 C.3   157  LEU157      0.0019
    142  CD1        7.5080  -17.2920  -31.5770 C.3   157  LEU157      0.0001
    143  CD2        9.6020  -17.8930  -32.7440 C.3   157  LEU157      0.0001
@<TRIPOS>BOND
     1    61    62    1
     2    62    63    1
     3    62    65    1
     4    24    23    2
     5    35    34    1
     6    63    64    2
     7    23    22    1
     8    68    66    1
     9    34    36    1
    10    34    31    1
    11    66    65    1
    12    66    67    1
    13    21    22    1
    14    22    25    1
    15    18    19    2
    16    18    17    1
    17    11    12    2
    18    11    10    1
    19    32    31    1
    20    32    33    2
    21    16    17    1
    22    31    30    1
    23    69    70    1
    24    17    20    1
    25    10     9    1
    26    10    13    1
    27    59    58    1
    28     1     2    1
    29    72    71    2
    30    25    26    1
    31    58    60    1
    32    58    57    1
    33    55    56    2
    34    55    54    1
    35    26    27    1
    36    70    71    1
    37    88    86    1
    38    71    73   am
    39     6     7    1
    40     6     8    1
    41     6     5    1
    42    14    13    1
    43    13    15    1
    44    54    57    1
    45    54    53    1
    46     2     5    1
    47     2     3    1
    48    73    74    1
    49    27    28    1
    50    86    87    1
    51    86    83    1
    52    74    75    1
    53    74    77    1
    54     3     4    2
    55    82    75   am
    56    82    83    1
    57    39    38    1
    58    39    40    2
    59    37    38    1
    60   143   141    1
    61    75    76    2
    62    28    29    1
    63    83    84    1
    64    41    38    1
    65    41    42    1
    66    43    42    1
    67    77    78    1
    68    78    79    1
    69    52    51    1
    70    42    44    1
    71   142   141    1
    72   141   140    1
    73    51    50    1
    74    84    85    2
    75    84    89   am
    76   139   138    2
    77    79    81   ar
    78    79    80   ar
    79   140   137    1
    80   137   138    1
    81   137   136    1
    82    89    90    1
    83    50    49    1
    84   123   122   ar
    85    48    47    2
    86    92    91    2
    87    47    46    1
    88   128   127    2
    89    90    91    1
    90    90    93    1
    91   100    99    1
    92    49    46    1
    93    99    98   ar
    94    99    97   ar
    95    98    96   ar
    96   122   124   ar
    97   122   121    1
    98    97    95   ar
    99    96    94   ar
   100    46    45    1
   101    95    94   ar
   102    94    93    1
   103   118   117    1
   104   118   121    1
   105   118   119    1
   106   127   126    1
   107   120   119    2
   108   117   111   am
   109   115   113    1
   110   119   125   am
   111   113   110    1
   112   113   114    1
   113   107   106    1
   114   116   114    1
   115   125   126    1
   116   126   129    1
   117   111   110    1
   118   111   112    2
   119   110   109    1
   120   129   130    1
   121   106   108    1
   122   106   105    1
   123   105   102    1
   124   130   131   ar
   125   130   132   ar
   126   131   133   ar
   127   132   134   ar
   128   102   103    1
   129   102   101    1
   130   133   135   ar
   131   103   104    2
   132   134   135   ar
