@<TRIPOS>MOLECULE
tmp/4tztA01.pdb
 171 163 0 0 0
SMALL
GASTEIGER

@<TRIPOS>ATOM
      1  N         45.5090   53.7870   53.7590 N.3    95  GLY95      -0.1210
      2  CA        44.2450   54.3760   54.1380 C.3    95  GLY95       0.1956
      3  C         44.4990   55.5340   55.0760 C.2    95  GLY95       0.2612
      4  O         45.5110   55.5600   55.7870 O.2    95  GLY95      -0.2717
      5  N         43.5830   56.4920   55.0480 N.am   96  PHE96      -0.1962
      6  CA        43.6470   57.6630   55.9080 C.3    96  PHE96       0.1771
      7  C         42.3280   58.4240   55.9020 C.2    96  PHE96       0.2619
      8  O         41.7410   58.5950   54.8540 O.2    96  PHE96      -0.2715
      9  CB        44.7520   58.6120   55.4630 C.3    96  PHE96       0.0574
     10  CG        44.8270   59.8690   56.3130 C.ar   96  PHE96      -0.0200
     11  CD1       45.3620   59.8290   57.5830 C.ar   96  PHE96      -0.0042
     12  CD2       44.3070   61.0590   55.8480 C.ar   96  PHE96      -0.0042
     13  CE1       45.3990   60.9830   58.3810 C.ar   96  PHE96      -0.0003
     14  CE2       44.3460   62.2140   56.6220 C.ar   96  PHE96      -0.0003
     15  CZ        44.8810   62.1780   57.8840 C.ar   96  PHE96      -0.0000
     16  N         41.8900   58.9000   57.0640 N.am   97  MET97      -0.1977
     17  CA        40.7780   59.8330   57.1420 C.3    97  MET97       0.1605
     18  C         41.0470   60.7740   58.3070 C.2    97  MET97       0.2287
     19  O         41.3610   60.3060   59.4110 O.2    97  MET97      -0.2864
     20  CB        39.4480   59.0970   57.3280 C.3    97  MET97       0.0413
     21  CG        38.2010   59.9920   57.3240 C.3    97  MET97       0.0598
     22  SD        37.9020   60.8990   55.7890 S.3    97  MET97      -0.1393
     23  CE        37.6430   59.5500   54.6450 C.3    97  MET97       0.0692
     24  N         35.8510   60.6750   61.3390 N.3   102  MET102     -0.1230
     25  CA        35.6580   59.4180   62.0540 C.3   102  MET102      0.1702
     26  C         35.3420   59.7010   63.5220 C.2   102  MET102      0.2592
     27  O         35.4850   60.8210   63.9900 O.2   102  MET102     -0.2718
     28  CB        36.9130   58.5450   61.9630 C.3   102  MET102      0.0401
     29  CG        37.3020   58.1500   60.5750 C.3   102  MET102      0.0596
     30  SD        38.6740   56.9790   60.5580 S.3   102  MET102     -0.1393
     31  CE        37.9170   55.5180   61.2350 C.3   102  MET102      0.0692
     32  N         34.9250   58.6820   64.2500 N.am  103  GLY103     -0.1957
     33  CA        34.7900   58.8130   65.6970 C.3   103  GLY103      0.1869
     34  C         33.5010   59.4820   66.1400 C.2   103  GLY103      0.2309
     35  O         32.4820   59.3430   65.4760 O.2   103  GLY103     -0.2863
     36  N         37.5260   47.2880   54.0020 N.3   148  PHE148     -0.1241
     37  CA        36.7100   46.9550   55.1690 C.3   148  PHE148      0.1605
     38  C         35.2640   47.0760   54.6940 C.2   148  PHE148      0.2264
     39  O         34.8580   48.1580   54.3020 O.2   148  PHE148     -0.2867
     40  CB        37.0040   47.8920   56.3450 C.3   148  PHE148      0.0534
     41  CG        36.3750   47.4580   57.6410 C.ar  148  PHE148     -0.0203
     42  CD1       35.4120   48.2550   58.2640 C.ar  148  PHE148     -0.0042
     43  CD2       36.7350   46.2570   58.2360 C.ar  148  PHE148     -0.0042
     44  CE1       34.8320   47.8650   59.4730 C.ar  148  PHE148     -0.0003
     45  CE2       36.1670   45.8580   59.4380 C.ar  148  PHE148     -0.0003
     46  CZ        35.2130   46.6500   60.0560 C.ar  148  PHE148     -0.0000
     47  N         27.6230   51.9870   59.9300 N.3   154  MET154     -0.1231
     48  CA        27.9840   51.5670   61.2890 C.3   154  MET154      0.1687
     49  C         28.4430   52.7790   62.0550 C.2   154  MET154      0.2434
     50  O         28.8320   53.7840   61.4730 O.2   154  MET154     -0.2733
     51  CB        29.0800   50.5180   61.2520 C.3   154  MET154      0.0400
     52  CG        30.3770   51.0520   60.7410 C.3   154  MET154      0.0596
     53  SD        31.5810   49.7460   60.4310 S.3   154  MET154     -0.1393
     54  CE        30.9680   49.1070   58.8770 C.3   154  MET154      0.0692
     55  N         28.4210   52.6860   63.3770 N.am  155  PRO155     -0.2718
     56  CA        28.8620   53.8440   64.1430 C.3   155  PRO155      0.1535
     57  C         30.3460   54.1100   63.9400 C.2   155  PRO155      0.2598
     58  O         31.1500   53.1970   63.7150 O.2   155  PRO155     -0.2715
     59  CB        28.5580   53.4470   65.6040 C.3   155  PRO155      0.0310
     60  CG        28.3990   51.9820   65.6030 C.3   155  PRO155      0.0237
     61  CD        27.9470   51.5820   64.2260 C.3   155  PRO155      0.0939
     62  N         30.6800   55.3940   64.0140 N.am  156  ALA156     -0.1964
     63  CA        32.0510   55.9030   64.1550 C.3   156  ALA156      0.1728
     64  C         32.9240   55.8080   62.8930 C.2   156  ALA156      0.2616
     65  O         33.7490   56.6900   62.6620 O.2   156  ALA156     -0.2715
     66  CB        32.7720   55.2220   65.3270 C.3   156  ALA156      0.0334
     67  N         32.7430   54.7800   62.0700 N.am  157  TYR157     -0.1974
     68  CA        33.6040   54.5960   60.9060 C.3   157  TYR157      0.1639
     69  C         33.3140   55.7130   59.8780 C.2   157  TYR157      0.2290
     70  O         34.1920   56.1200   59.1040 O.2   157  TYR157     -0.2864
     71  CB        33.3730   53.2070   60.3130 C.3   157  TYR157      0.0560
     72  CG        34.4390   52.7130   59.3750 C.ar  157  TYR157     -0.0198
     73  CD1       35.7950   52.7580   59.7340 C.ar  157  TYR157     -0.0009
     74  CD2       34.0980   52.1570   58.1400 C.ar  157  TYR157     -0.0009
     75  CE1       36.7870   52.2900   58.8650 C.ar  157  TYR157      0.0417
     76  CE2       35.0850   51.6910   57.2530 C.ar  157  TYR157      0.0417
     77  CZ        36.4110   51.7580   57.6230 C.ar  157  TYR157      0.1957
     78  OH        37.3450   51.2680   56.7570 O.3   157  TYR157     -0.2866
     79  N         35.1180   57.2110   56.5920 N.3   160  MET160     -0.1245
     80  CA        36.0140   56.1790   56.0880 C.3   160  MET160      0.1570
     81  C         35.1950   55.0940   55.3480 C.2   160  MET160      0.2261
     82  O         35.6740   54.5070   54.3690 O.2   160  MET160     -0.2867
     83  CB        36.8640   55.5520   57.2040 C.3   160  MET160      0.0387
     84  CG        37.9710   54.6490   56.6910 C.3   160  MET160      0.0595
     85  SD        39.1820   55.5510   55.6700 S.3   160  MET160     -0.1393
     86  CE        40.0390   54.2120   54.9140 C.3   160  MET160      0.0692
     87  N         35.7150   53.6670   51.5400 N.3   164  LYS164     -0.1245
     88  CA        35.8130   52.2700   51.1510 C.3   164  LYS164      0.1561
     89  C         34.7650   51.9240   50.0740 C.2   164  LYS164      0.2260
     90  O         35.0320   51.1400   49.1500 O.2   164  LYS164     -0.2867
     91  CB        35.6750   51.3570   52.3800 C.3   164  LYS164      0.0271
     92  CG        36.8680   51.3650   53.3470 C.3   164  LYS164      0.0035
     93  CD        38.1750   51.0300   52.6710 C.3   164  LYS164      0.0206
     94  CE        39.2790   50.7250   53.6840 C.3   164  LYS164      0.1093
     95  NZ        40.6300   50.5980   53.0460 N.3   164  LYS164     -0.1314
     96  N         38.1680   43.2090   61.5970 N.3   192  PRO192     -0.2102
     97  CA        38.8890   44.2270   62.3800 C.3   192  PRO192      0.1504
     98  C         40.2040   43.6830   62.9510 C.2   192  PRO192      0.2575
     99  O         40.2100   42.5920   63.5130 O.2   192  PRO192     -0.2718
    100  CB        37.8980   44.5910   63.4910 C.3   192  PRO192      0.0282
    101  CG        36.9730   43.3950   63.5950 C.3   192  PRO192      0.0208
    102  CD        36.8960   42.7920   62.2260 C.3   192  PRO192      0.0893
    103  N         41.2880   44.4360   62.7820 N.am  193  ILE193     -0.1980
    104  CA        42.6170   44.0290   63.2340 C.3   193  ILE193      0.1595
    105  C         43.0800   45.1000   64.2110 C.2   193  ILE193      0.2287
    106  O         43.0260   46.2900   63.9110 O.2   193  ILE193     -0.2864
    107  CB        43.6270   43.8930   62.0680 C.3   193  ILE193      0.0276
    108  CG1       43.2700   42.7170   61.1380 C.3   193  ILE193      0.0022
    109  CG2       45.0760   43.7710   62.5980 C.3   193  ILE193      0.0022
    110  CD1       43.4030   41.3470   61.7700 C.3   193  ILE193      0.0001
    111  N         45.4590   46.9520   65.3150 N.3   195  THR195     -0.1218
    112  CA        46.6830   47.7170   65.1160 C.3   195  THR195      0.1862
    113  C         46.9110   48.7100   66.2530 C.2   195  THR195      0.2287
    114  O         46.0670   48.8550   67.1340 O.2   195  THR195     -0.2866
    115  CB        46.6200   48.5200   63.8520 C.3   195  THR195      0.1770
    116  OG1       45.4940   49.4190   63.9370 O.3   195  THR195     -0.2211
    117  CG2       46.4450   47.6390   62.6380 C.3   195  THR195      0.0375
    118  N         46.8630   52.0670   66.1820 N.3   197  ALA197     -0.1231
    119  CA        45.8050   53.0790   66.0940 C.3   197  ALA197      0.1694
    120  C         44.4530   52.5720   66.5470 C.2   197  ALA197      0.2591
    121  O         43.6750   53.3290   67.1330 O.2   197  ALA197     -0.2718
    122  CB        45.6860   53.5810   64.6930 C.3   197  ALA197      0.0304
    123  N         44.1570   51.2980   66.2940 N.am  198  MET198     -0.1979
    124  CA        42.8560   50.7760   66.7280 C.3   198  MET198      0.1605
    125  C         42.8340   50.6000   68.2100 C.2   198  MET198      0.2287
    126  O         41.8020   50.8430   68.8370 O.2   198  MET198     -0.2864
    127  CB        42.5210   49.4570   66.0220 C.3   198  MET198      0.0413
    128  CG        42.2520   49.6190   64.5490 C.3   198  MET198      0.0598
    129  SD        40.9930   50.8870   64.1700 S.3   198  MET198     -0.1393
    130  CE        39.6270   50.2410   65.1230 C.3   198  MET198      0.0692
    131  N         42.1450   54.0280   69.4700 N.3   201  ILE201     -0.1245
    132  CA        40.7000   54.3180   69.3820 C.3   201  ILE201      0.1561
    133  C         39.8810   53.5960   70.4730 C.2   201  ILE201      0.2260
    134  O         38.9840   54.1900   71.0830 O.2   201  ILE201     -0.2867
    135  CB        40.1770   53.9640   67.9810 C.3   201  ILE201      0.0252
    136  CG1       40.7770   54.9210   66.9800 C.3   201  ILE201      0.0019
    137  CG2       38.6620   54.1330   67.9080 C.3   201  ILE201      0.0019
    138  CD1       40.6680   54.4490   65.5290 C.3   201  ILE201      0.0001
    139  N         39.4170   58.7830   69.6850 N.3   206  LEU206     -0.1245
    140  CA        38.4020   59.4920   68.8820 C.3   206  LEU206      0.1561
    141  C         37.0820   59.6300   69.6290 C.2   206  LEU206      0.2260
    142  O         36.0150   59.7150   69.0060 O.2   206  LEU206     -0.2867
    143  CB        38.1690   58.7790   67.5520 C.3   206  LEU206      0.0270
    144  CG        39.3470   58.7690   66.5680 C.3   206  LEU206      0.0019
    145  CD1       38.9610   57.9660   65.3130 C.3   206  LEU206      0.0001
    146  CD2       39.8150   60.1770   66.1890 C.3   206  LEU206      0.0001
    147  N         31.9170   51.5350   70.9010 N.3   213  GLN213     -0.1231
    148  CA        31.2740   50.9690   69.7110 C.3   213  GLN213      0.1698
    149  C         32.2010   50.0040   68.9700 C.2   213  GLN213      0.2592
    150  O         31.7750   48.9360   68.5010 O.2   213  GLN213     -0.2718
    151  CB        30.8050   52.1060   68.7980 C.3   213  GLN213      0.0381
    152  CG        29.5700   52.8280   69.3520 C.3   213  GLN213      0.0905
    153  CD        29.3500   54.2170   68.7760 C.2   213  GLN213      0.2608
    154  OE1       30.2850   54.8690   68.3160 O.2   213  GLN213     -0.2717
    155  NE2       28.0950   54.6710   68.7850 N.am  213  GLN213     -0.0878
    156  N         33.4810   50.3490   68.8760 N.am  214  ILE214     -0.1980
    157  CA        34.4140   49.4360   68.2250 C.3   214  ILE214      0.1595
    158  C         34.6370   48.1730   69.0210 C.2   214  ILE214      0.2287
    159  O         34.7470   47.1040   68.4360 O.2   214  ILE214     -0.2864
    160  CB        35.7470   50.1110   67.9500 C.3   214  ILE214      0.0276
    161  CG1       35.4940   51.2620   67.0010 C.3   214  ILE214      0.0022
    162  CG2       36.7240   49.1560   67.2820 C.3   214  ILE214      0.0022
    163  CD1       36.3760   52.3660   67.2270 C.3   214  ILE214      0.0001
    164  N         31.6850   46.0160   68.2140 N.3   217  LEU217     -0.1245
    165  CA        31.8270   45.4640   66.8590 C.3   217  LEU217      0.1561
    166  C         32.7980   44.2840   66.8340 C.2   217  LEU217      0.2260
    167  O         32.5220   43.2410   66.2310 O.2   217  LEU217     -0.2867
    168  CB        32.2860   46.5480   65.9050 C.3   217  LEU217      0.0270
    169  CG        32.5110   46.0960   64.4350 C.3   217  LEU217      0.0019
    170  CD1       31.9150   47.0670   63.4690 C.3   217  LEU217      0.0001
    171  CD2       33.9750   45.9710   64.1680 C.3   217  LEU217      0.0001
@<TRIPOS>BOND
     1    90    89    2
     2    89    88    1
     3    88    87    1
     4    88    91    1
     5    91    92    1
     6    93    92    1
     7    93    94    1
     8    95    94    1
     9     1     2    1
    10    36    37    1
    11     2     3    1
    12    39    38    2
    13    82    81    2
    14    23    22    1
    15    38    37    1
    16     8     7    2
    17    86    85    1
    18     5     3   am
    19     5     6    1
    20     3     4    2
    21    37    40    1
    22    81    80    1
    23     9     6    1
    24     9    10    1
    25    85    84    1
    26    22    21    1
    27    12    10   ar
    28    12    14   ar
    29     7     6    1
    30     7    16   am
    31    80    79    1
    32    80    83    1
    33    10    11   ar
    34    40    41    1
    35    14    15   ar
    36    84    83    1
    37    78    77    1
    38    16    17    1
    39    17    20    1
    40    17    18    1
    41    76    77   ar
    42    76    74   ar
    43    21    20    1
    44    11    13   ar
    45    77    75   ar
    46    41    43   ar
    47    41    42   ar
    48    15    13   ar
    49    74    72   ar
    50    43    45   ar
    51    42    44   ar
    52    18    19    2
    53    75    73   ar
    54    54    53    1
    55    70    69    2
    56    72    73   ar
    57    72    71    1
    58    45    46   ar
    59    44    46   ar
    60    69    68    1
    61    47    48    1
    62    71    68    1
    63    53    52    1
    64    30    29    1
    65    30    31    1
    66    29    28    1
    67    52    51    1
    68    68    67    1
    69   108   110    1
    70   108   107    1
    71    51    48    1
    72    48    49    1
    73    24    25    1
    74    50    49    2
    75    96   102    1
    76    96    97    1
    77    28    25    1
    78    25    26    1
    79    49    55   am
    80   107   109    1
    81   107   104    1
    82    67    64   am
    83   102   101    1
    84    97    98    1
    85    97   100    1
    86   117   115    1
    87    65    64    2
    88   103    98   am
    89   103   104    1
    90    64    63    1
    91    98    99    2
    92   104   105    1
    93    55    56    1
    94    55    61    1
    95   170   169    1
    96   100   101    1
    97    26    27    2
    98    26    32   am
    99    58    57    2
   100   115   116    1
   101   115   112    1
   102   106   105    2
   103    57    62   am
   104    57    56    1
   105    62    63    1
   106    56    59    1
   107    63    66    1
   108   171   169    1
   109   129   128    1
   110   129   130    1
   111    61    60    1
   112    32    33    1
   113   169   168    1
   114   128   127    1
   115   122   119    1
   116   112   111    1
   117   112   113    1
   118   145   144    1
   119    35    34    2
   120   138   136    1
   121    60    59    1
   122    33    34    1
   123   168   165    1
   124   127   124    1
   125   119   118    1
   126   119   120    1
   127   146   144    1
   128   167   166    2
   129   113   114    2
   130   123   120   am
   131   123   124    1
   132   120   121    2
   133   144   143    1
   134   124   125    1
   135   166   165    1
   136   165   164    1
   137   136   135    1
   138   161   163    1
   139   161   160    1
   140   162   160    1
   141   143   140    1
   142   137   135    1
   143   160   157    1
   144   135   132    1
   145   125   126    2
   146   157   156    1
   147   157   158    1
   148   154   153    2
   149   159   158    2
   150   150   149    2
   151   153   155   am
   152   153   152    1
   153   151   152    1
   154   151   148    1
   155   156   149   am
   156   140   141    1
   157   140   139    1
   158   149   148    1
   159   142   141    2
   160   132   131    1
   161   132   133    1
   162   148   147    1
   163   133   134    2
