@<TRIPOS>MOLECULE
tmp/4u00A00.pdb
 86 81 0 0 0
SMALL
GASTEIGER

@<TRIPOS>ATOM
      1  N         15.2450   -7.0640   22.5340 N.3    12  PHE12      -0.1241
      2  CA        16.2580   -7.1240   21.4760 C.3    12  PHE12       0.1605
      3  C         17.5910   -6.8980   22.1710 C.2    12  PHE12       0.2264
      4  O         17.9050   -5.7730   22.5340 O.2    12  PHE12      -0.2867
      5  CB        16.0420   -6.0040   20.4520 C.3    12  PHE12       0.0534
      6  CG        14.9350   -6.2740   19.4590 C.ar   12  PHE12      -0.0203
      7  CD1       14.8900   -7.4580   18.7500 C.ar   12  PHE12      -0.0042
      8  CD2       13.9400   -5.3300   19.2380 C.ar   12  PHE12      -0.0042
      9  CE1       13.8800   -7.6960   17.8320 C.ar   12  PHE12      -0.0003
     10  CE2       12.9270   -5.5580   18.3100 C.ar   12  PHE12      -0.0003
     11  CZ        12.9030   -6.7430   17.6100 C.ar   12  PHE12      -0.0000
     12  N         17.7170   -4.4540   25.1040 N.3    15  LEU15      -0.1245
     13  CA        16.6180   -3.5070   24.9760 C.3    15  LEU15       0.1561
     14  C         15.2420   -4.1510   25.2130 C.2    15  LEU15       0.2260
     15  O         14.7990   -4.9880   24.4370 O.2    15  LEU15      -0.2867
     16  CB        16.6530   -2.8290   23.5980 C.3    15  LEU15       0.0270
     17  CG        15.6280   -1.7170   23.3620 C.3    15  LEU15       0.0019
     18  CD1       15.9310   -0.5470   24.2840 C.3    15  LEU15       0.0001
     19  CD2       15.6150   -1.2670   21.8800 C.3    15  LEU15       0.0001
     20  N         11.9300   -3.9670   24.5730 N.3    17  VAL17      -0.1245
     21  CA        11.1420   -3.2430   23.5640 C.3    17  VAL17       0.1561
     22  C          9.6340   -3.3250   23.7590 C.2    17  VAL17       0.2260
     23  O          8.9320   -2.3690   23.4770 O.2    17  VAL17      -0.2867
     24  CB        11.4690   -3.6680   22.1000 C.3    17  VAL17       0.0252
     25  CG1       12.5970   -2.8610   21.5940 C.3    17  VAL17       0.0019
     26  CG2       11.7940   -5.1300   22.0250 C.3    17  VAL17       0.0019
     27  N          7.6390    6.9150   16.2830 N.3    37  SER37      -0.1202
     28  CA         8.5470    5.9040   15.7810 C.3    37  SER37       0.2020
     29  C          9.4380    5.4520   16.9330 C.2    37  SER37       0.2619
     30  O          9.8140    6.2420   17.7890 O.2    37  SER37      -0.2717
     31  CB         9.3770    6.4530   14.6200 C.3    37  SER37       0.2103
     32  OG        10.7320    6.5430   14.9920 O.3    37  SER37      -0.2182
     33  N          9.7310    4.1660   16.9740 N.am   38  GLY38      -0.1942
     34  CA        10.5130    3.6250   18.0540 C.3    38  GLY38       0.2014
     35  C          9.6930    3.1310   19.2230 C.2    38  GLY38       0.2640
     36  O         10.2320    2.4740   20.0920 O.2    38  GLY38      -0.2714
     37  N          8.3960    3.4200   19.2530 N.am   39  SER39      -0.1935
     38  CA         7.5690    2.9890   20.3810 C.3    39  SER39       0.2055
     39  C          7.3390    1.4800   20.4330 C.2    39  SER39       0.2644
     40  O          6.9810    0.9450   21.4780 O.2    39  SER39      -0.2714
     41  CB         6.2340    3.7380   20.4160 C.3    39  SER39       0.2130
     42  OG         5.5380    3.5840   19.1970 O.3    39  SER39      -0.2179
     43  N          7.5330    0.7910   19.3140 N.am   40  GLY40      -0.1939
     44  CA         7.4160   -0.6580   19.3040 C.3    40  GLY40       0.2014
     45  C          6.2650   -1.2220   18.4950 C.2    40  GLY40       0.2639
     46  O          5.9420   -2.4140   18.6180 O.2    40  GLY40      -0.2714
     47  N          5.6590   -0.3790   17.6610 N.am   41  LYS41      -0.1963
     48  CA         4.4970   -0.7780   16.8630 C.3    41  LYS41       0.1728
     49  C          4.7770   -1.9120   15.8740 C.2    41  LYS41       0.2617
     50  O          4.0300   -2.8970   15.8290 O.2    41  LYS41      -0.2715
     51  CB         3.9110    0.4320   16.1260 C.3    41  LYS41       0.0311
     52  CG         3.7310    1.6670   17.0110 C.3    41  LYS41       0.0038
     53  CD         3.0690    2.8320   16.2490 C.3    41  LYS41       0.0206
     54  CE         3.9910    3.4290   15.1730 C.3    41  LYS41       0.1093
     55  NZ         5.2870    3.9310   15.7400 N.3    41  LYS41      -0.1314
     56  N          5.8390   -1.7740   15.0760 N.am   42  SER42      -0.1936
     57  CA         6.1800   -2.8020   14.0980 C.3    42  SER42       0.2055
     58  C          6.5060   -4.1110   14.8010 C.2    42  SER42       0.2643
     59  O          6.1460   -5.1860   14.3340 O.2    42  SER42      -0.2714
     60  CB         7.3820   -2.3880   13.2210 C.3    42  SER42       0.2130
     61  OG         7.0220   -1.4350   12.2320 O.3    42  SER42      -0.2179
     62  N          7.2170   -4.0200   15.9160 N.am   43  THR43      -0.1950
     63  CA         7.6150   -5.2160   16.6360 C.3    43  THR43       0.1897
     64  C          6.3810   -5.9860   17.1130 C.2    43  THR43       0.2313
     65  O          6.2960   -7.2120   16.9650 O.2    43  THR43      -0.2863
     66  CB         8.5640   -4.8680   17.8050 C.3    43  THR43       0.1794
     67  OG1        9.7720   -4.2840   17.2820 O.3    43  THR43      -0.2208
     68  CG2        8.9050   -6.1160   18.6020 C.3    43  THR43       0.0378
     69  N          8.5220  -12.2450   14.6400 N.3    52  GLU52      -0.1245
     70  CA         9.3580  -11.9200   15.7820 C.3    52  GLU52       0.1567
     71  C          8.9340  -12.8390   16.8990 C.2    52  GLU52       0.2260
     72  O          7.7370  -13.0430   17.1150 O.2    52  GLU52      -0.2867
     73  CB         9.1520  -10.4630   16.2230 C.3    52  GLU52       0.0388
     74  CG         9.8400   -9.4210   15.3460 C.3    52  GLU52       0.1160
     75  CD        11.3460   -9.5040   15.4280 C.2    52  GLU52       0.3649
     76  OE1       11.8590   -9.9330   16.4820 O.co2  52  GLU52      -0.2457
     77  OE2       12.0220   -9.1460   14.4360 O.co2  52  GLU52      -0.2457
     78  N          2.0240    0.6200    8.5030 N.3   162  GLU162     -0.1245
     79  CA         2.2810    1.9050    7.8450 C.3   162  GLU162      0.1567
     80  C          2.4940    1.7680    6.3390 C.2   162  GLU162      0.2260
     81  O          3.5340    2.1700    5.8260 O.2   162  GLU162     -0.2867
     82  CB         3.5140    2.5790    8.4610 C.3   162  GLU162      0.0388
     83  CG         3.3450    3.0150    9.9100 C.3   162  GLU162      0.1160
     84  CD         4.5640    3.7720   10.4390 C.2   162  GLU162      0.3649
     85  OE1        5.0550    4.6770    9.7280 O.co2 162  GLU162     -0.2457
     86  OE2        5.0220    3.4620   11.5670 O.co2 162  GLU162     -0.2457
@<TRIPOS>BOND
     1    81    80    2
     2    80    79    1
     3    79    82    1
     4    79    78    1
     5    82    83    1
     6    85    84   ar
     7    83    84    1
     8    84    86   ar
     9    61    60    1
    10    60    57    1
    11    57    58    1
    12    57    56    1
    13    59    58    2
    14    77    75   ar
    15    31    32    1
    16    31    28    1
    17    69    70    1
    18    58    62   am
    19    56    49   am
    20    54    55    1
    21    54    53    1
    22    74    75    1
    23    74    73    1
    24    75    76   ar
    25    28    27    1
    26    28    29    1
    27    70    73    1
    28    70    71    1
    29    50    49    2
    30    49    48    1
    31    62    63    1
    32    51    48    1
    33    51    52    1
    34    53    52    1
    35    63    64    1
    36    63    66    1
    37    48    47    1
    38    71    72    2
    39    29    33   am
    40    29    30    2
    41    65    64    2
    42    33    34    1
    43    67    66    1
    44    11     9   ar
    45    11    10   ar
    46    47    45   am
    47    66    68    1
    48     9     7   ar
    49    34    35    1
    50    10     8   ar
    51    45    46    2
    52    45    44    1
    53     7     6   ar
    54    42    41    1
    55    35    37   am
    56    35    36    2
    57     8     6   ar
    58    37    38    1
    59    44    43    1
    60    43    39   am
    61     6     5    1
    62    38    41    1
    63    38    39    1
    64    39    40    2
    65     5     2    1
    66     2     3    1
    67     2     1    1
    68    25    24    1
    69    19    17    1
    70    26    24    1
    71    24    21    1
    72     3     4    2
    73    17    16    1
    74    17    18    1
    75    23    22    2
    76    21    22    1
    77    21    20    1
    78    16    13    1
    79    15    14    2
    80    13    12    1
    81    13    14    1
