@<TRIPOS>MOLECULE
tmp/4u03A00.pdb
 190 177 0 0 0
SMALL
GASTEIGER

@<TRIPOS>ATOM
      1  N         66.8640   10.6410  157.0260 N.3   110  GLN110     -0.1231
      2  CA        67.2140   11.4700  155.8730 C.3   110  GLN110      0.1698
      3  C         66.5130   10.8470  154.6760 C.2   110  GLN110      0.2593
      4  O         65.9300    9.7750  154.7980 O.2   110  GLN110     -0.2718
      5  CB        68.7300   11.4520  155.6470 C.3   110  GLN110      0.0381
      6  CG        69.2530   10.0250  155.4260 C.3   110  GLN110      0.0905
      7  CD        70.7640    9.9150  155.2040 C.2   110  GLN110      0.2608
      8  OE1       71.2130    9.4850  154.1360 O.2   110  GLN110     -0.2717
      9  NE2       71.5490   10.2470  156.2320 N.am  110  GLN110     -0.0878
     10  N         66.5700   11.5000  153.5180 N.am  111  GLY111     -0.1942
     11  CA        66.0210   10.8980  152.3150 C.3   111  GLY111      0.2014
     12  C         64.5460   11.1740  152.1330 C.2   111  GLY111      0.2639
     13  O         63.9860   12.0250  152.8050 O.2   111  GLY111     -0.2714
     14  N         63.9120   10.4390  151.2310 N.am  112  SER112     -0.1949
     15  CA        62.5420   10.7570  150.8340 C.3   112  SER112      0.1924
     16  C         61.5370   10.6430  151.9630 C.2   112  SER112      0.2314
     17  O         60.4810   11.2690  151.9250 O.2   112  SER112     -0.2863
     18  CB        62.1060    9.8820  149.6600 C.3   112  SER112      0.2116
     19  OG        62.3240    8.5070  149.9480 O.3   112  SER112     -0.2180
     20  N         62.0910   14.2520  153.5200 N.3   115  TYR115     -0.1241
     21  CA        61.5880   15.3620  152.7250 C.3   115  TYR115      0.1605
     22  C         60.3580   15.0260  151.8460 C.2   115  TYR115      0.2264
     23  O         60.0670   15.7180  150.8780 O.2   115  TYR115     -0.2867
     24  CB        62.7050   16.0640  151.9400 C.3   115  TYR115      0.0534
     25  CG        63.7320   15.1680  151.2710 C.ar  115  TYR115     -0.0201
     26  CD1       63.3740   14.3320  150.2340 C.ar  115  TYR115     -0.0009
     27  CD2       65.0770   15.2070  151.6530 C.ar  115  TYR115     -0.0009
     28  CE1       64.3140   13.5240  149.6000 C.ar  115  TYR115      0.0417
     29  CE2       66.0180   14.4210  151.0260 C.ar  115  TYR115      0.0417
     30  CZ        65.6320   13.5880  149.9990 C.ar  115  TYR115      0.1957
     31  OH        66.5620   12.7980  149.3870 O.3   115  TYR115     -0.2866
     32  N         58.5690    9.9780  149.2520 N.3   118  LEU118     -0.1231
     33  CA        58.5890    8.5090  149.2460 C.3   118  LEU118      0.1693
     34  C         57.3570    7.9210  148.5550 C.2   118  LEU118      0.2592
     35  O         56.2320    8.0350  149.0590 O.2   118  LEU118     -0.2718
     36  CB        58.6970    7.9680  150.6800 C.3   118  LEU118      0.0284
     37  CG        58.7560    6.4410  150.8390 C.3   118  LEU118      0.0019
     38  CD1       59.9250    5.8610  150.0450 C.3   118  LEU118      0.0001
     39  CD2       58.8630    6.0510  152.3360 C.3   118  LEU118      0.0001
     40  N         57.5750    7.2940  147.4000 N.am  119  ASN119     -0.1974
     41  CA        56.4890    6.7110  146.6180 C.3   119  ASN119      0.1688
     42  C         56.2200    5.2720  146.9920 C.2   119  ASN119      0.2292
     43  O         57.1280    4.5340  147.3680 O.2   119  ASN119     -0.2864
     44  CB        56.8230    6.7320  145.1240 C.3   119  ASN119      0.1181
     45  CG        56.7850    8.1170  144.5400 C.2   119  ASN119      0.2629
     46  OD1       56.0920    9.0080  145.0540 O.2   119  ASN119     -0.2716
     47  ND2       57.5200    8.3130  143.4560 N.am  119  ASN119     -0.0877
     48  N         61.9290    2.6900  151.0630 N.3   129  ASP129     -0.1239
     49  CA        63.2100    2.8430  151.7060 C.3   129  ASP129      0.1674
     50  C         63.0560    3.8760  152.8120 C.2   129  ASP129      0.2266
     51  O         62.5390    4.9620  152.5820 O.2   129  ASP129     -0.2867
     52  CB        64.2260    3.3280  150.6550 C.3   129  ASP129      0.1410
     53  CG        65.5710    3.7080  151.2510 C.2   129  ASP129      0.3668
     54  OD1       65.9320    3.1650  152.3250 O.co2 129  ASP129     -0.2456
     55  OD2       66.2750    4.5450  150.6330 O.co2 129  ASP129     -0.2456
     56  N         65.7100    5.8170  155.3550 N.3   131  ASP131     -0.1239
     57  CA        67.1200    6.0100  155.6590 C.3   131  ASP131      0.1674
     58  C         67.2830    6.6450  157.0440 C.2   131  ASP131      0.2266
     59  O         67.2660    7.8700  157.1770 O.2   131  ASP131     -0.2867
     60  CB        67.7490    6.9390  154.6270 C.3   131  ASP131      0.1410
     61  CG        67.4970    6.4820  153.2030 C.2   131  ASP131      0.3668
     62  OD1       68.1450    5.5030  152.7890 O.co2 131  ASP131     -0.2456
     63  OD2       66.6560    7.1020  152.5050 O.co2 131  ASP131     -0.2456
     64  N         77.2600    8.0610  161.2360 N.3   195  TYR195     -0.1241
     65  CA        78.0590    9.2790  161.1620 C.3   195  TYR195      0.1605
     66  C         78.7400    9.5900  162.4760 C.2   195  TYR195      0.2264
     67  O         78.1700    9.3670  163.5540 O.2   195  TYR195     -0.2867
     68  CB        77.1790   10.4730  160.7940 C.3   195  TYR195      0.0534
     69  CG        76.4280   10.3340  159.5020 C.ar  195  TYR195     -0.0201
     70  CD1       76.9860   10.7610  158.3010 C.ar  195  TYR195     -0.0009
     71  CD2       75.1510    9.7950  159.4800 C.ar  195  TYR195     -0.0009
     72  CE1       76.2880   10.6440  157.1070 C.ar  195  TYR195      0.0417
     73  CE2       74.4500    9.6670  158.2940 C.ar  195  TYR195      0.0417
     74  CZ        75.0180   10.0970  157.1120 C.ar  195  TYR195      0.1957
     75  OH        74.3050    9.9630  155.9350 O.3   195  TYR195     -0.2866
     76  N         80.6370   13.4640  154.3500 N.3   237  SER237     -0.1202
     77  CA        79.4100   13.5710  153.5660 C.3   237  SER237      0.2020
     78  C         78.2080   13.9230  154.4430 C.2   237  SER237      0.2619
     79  O         77.5750   13.0560  155.0330 O.2   237  SER237     -0.2717
     80  CB        79.1320   12.2830  152.7880 C.3   237  SER237      0.2103
     81  OG        77.9670   12.4240  151.9840 O.3   237  SER237     -0.2182
     82  N         77.8970   15.2080  154.5070 N.am  238  ASP238     -0.1960
     83  CA        76.8560   15.7150  155.3820 C.3   238  ASP238      0.1825
     84  C         75.4820   15.6070  154.7020 C.2   238  ASP238      0.2464
     85  O         75.2000   16.3510  153.7650 O.2   238  ASP238     -0.2730
     86  CB        77.1920   17.1760  155.7130 C.3   238  ASP238      0.1450
     87  CG        76.2080   17.8020  156.6690 C.2   238  ASP238      0.3671
     88  OD1       75.2160   17.1420  157.0300 O.co2 238  ASP238     -0.2456
     89  OD2       76.4170   18.9660  157.0320 O.co2 238  ASP238     -0.2456
     90  N         74.6150   14.7000  155.1910 N.am  239  PRO239     -0.2727
     91  CA        73.3010   14.5040  154.5710 C.3   239  PRO239      0.1402
     92  C         72.3980   15.7310  154.6710 C.2   239  PRO239      0.2269
     93  O         71.4650   15.8550  153.8870 O.2   239  PRO239     -0.2865
     94  CB        72.6990   13.3330  155.3630 C.3   239  PRO239      0.0296
     95  CG        73.3620   13.4180  156.6990 C.3   239  PRO239      0.0237
     96  CD        74.7730   13.8860  156.4140 C.3   239  PRO239      0.0939
     97  N         71.9740   18.0260  151.3810 N.3   242  VAL242     -0.1231
     98  CA        70.9330   17.6820  150.4160 C.3   242  VAL242      0.1692
     99  C         69.5390   18.0030  150.9510 C.2   242  VAL242      0.2591
    100  O         68.7000   18.5480  150.2240 O.2   242  VAL242     -0.2718
    101  CB        71.0120   16.1960  150.0070 C.3   242  VAL242      0.0266
    102  CG1       69.7300   15.7450  149.3040 C.3   242  VAL242      0.0020
    103  CG2       72.2340   15.9610  149.1290 C.3   242  VAL242      0.0020
    104  N         69.2870   17.6760  152.2180 N.am  243  GLU243     -0.1979
    105  CA        67.9790   17.9860  152.8020 C.3   243  GLU243      0.1602
    106  C         67.6830   19.4830  152.7380 C.2   243  GLU243      0.2287
    107  O         66.5660   19.8910  152.3980 O.2   243  GLU243     -0.2864
    108  CB        67.8450   17.4980  154.2570 C.3   243  GLU243      0.0415
    109  CG        66.3970   17.6040  154.7600 C.3   243  GLU243      0.1163
    110  CD        66.2480   17.5180  156.2860 C.2   243  GLU243      0.3649
    111  OE1       67.1910   17.0570  156.9760 O.co2 243  GLU243     -0.2457
    112  OE2       65.1710   17.9110  156.7930 O.co2 243  GLU243     -0.2457
    113  N         60.0920   10.1580  139.6420 N.3   265  LYS265     -0.1245
    114  CA        60.4720    8.8870  140.2630 C.3   265  LYS265      0.1561
    115  C         59.5360    7.7490  139.8670 C.2   265  LYS265      0.2260
    116  O         59.9640    6.6120  139.6980 O.2   265  LYS265     -0.2867
    117  CB        60.5440    9.0370  141.7970 C.3   265  LYS265      0.0271
    118  CG        61.7550    9.8550  142.2350 C.3   265  LYS265      0.0035
    119  CD        61.6590   10.3060  143.7030 C.3   265  LYS265      0.0206
    120  CE        61.7880    9.1450  144.6820 C.3   265  LYS265      0.1093
    121  NZ        61.5930    9.6480  146.1020 N.3   265  LYS265     -0.1314
    122  N         60.3710    6.6550  136.4700 N.3   268  ARG268     -0.1245
    123  CA        61.5730    5.8310  136.5900 C.3   268  ARG268      0.1563
    124  C         61.1980    4.4030  137.0220 C.2   268  ARG268      0.2260
    125  O         61.6570    3.4070  136.4340 O.2   268  ARG268     -0.2867
    126  CB        62.5240    6.4930  137.6030 C.3   268  ARG268      0.0307
    127  CG        63.9580    5.9440  137.6640 C.3   268  ARG268      0.0489
    128  CD        64.1990    5.0010  138.8170 C.3   268  ARG268      0.2205
    129  NE        63.4150    5.2890  140.0230 N.pl3 268  ARG268     -0.0865
    130  CZ        63.7950    6.0690  141.0360 C.cat 268  ARG268      0.5346
    131  NH1       64.9660    6.7030  141.0170 N.pl3 268  ARG268      0.1354
    132  NH2       62.9860    6.2180  142.0860 N.pl3 268  ARG268      0.1354
    133  N         69.2470    7.9550  139.3470 N.3   278  SER278     -0.1202
    134  CA        69.0330    8.0070  140.7900 C.3   278  SER278      0.2020
    135  C         67.9300    9.0110  141.1050 C.2   278  SER278      0.2619
    136  O         67.6510    9.9210  140.3120 O.2   278  SER278     -0.2717
    137  CB        70.3160    8.4280  141.5070 C.3   278  SER278      0.2103
    138  OG        70.6680    9.7460  141.1330 O.3   278  SER278     -0.2182
    139  N         67.2970    8.8440  142.2610 N.am  279  SER279     -0.1937
    140  CA        66.2760    9.7940  142.7040 C.3   279  SER279      0.2055
    141  C         66.8390   11.1980  142.8610 C.2   279  SER279      0.2642
    142  O         66.1700   12.1910  142.5430 O.2   279  SER279     -0.2714
    143  CB        65.6360    9.3390  144.0120 C.3   279  SER279      0.2130
    144  OG        64.9100    8.1470  143.7920 O.3   279  SER279     -0.2179
    145  N         68.0710   11.2880  143.3480 N.am  280  ILE280     -0.1977
    146  CA        68.6590   12.5990  143.5740 C.3   280  ILE280      0.1596
    147  C         69.0040   13.2960  142.2420 C.2   280  ILE280      0.2287
    148  O         68.8230   14.5130  142.1060 O.2   280  ILE280     -0.2864
    149  CB        69.8750   12.5530  144.5220 C.3   280  ILE280      0.0276
    150  CG1       70.3980   13.9650  144.7810 C.3   280  ILE280      0.0022
    151  CG2       70.9960   11.7040  143.9440 C.3   280  ILE280      0.0022
    152  CD1       71.5790   13.9990  145.7330 C.3   280  ILE280      0.0001
    153  N         65.8130   14.7530  140.9890 N.3   283  MET283     -0.1245
    154  CA        65.4320   15.9580  141.7320 C.3   283  MET283      0.1570
    155  C         66.2510   17.1660  141.3200 C.2   283  MET283      0.2261
    156  O         65.7160   18.2550  141.1360 O.2   283  MET283     -0.2867
    157  CB        65.5980   15.7480  143.2390 C.3   283  MET283      0.0387
    158  CG        64.7530   14.6250  143.7850 C.3   283  MET283      0.0595
    159  SD        65.3160   14.0460  145.4060 S.3   283  MET283     -0.1393
    160  CE        64.8300   15.4220  146.4330 C.3   283  MET283      0.0692
    161  N         75.9700   17.7230  141.4640 N.3   321  SER321     -0.1217
    162  CA        75.4210   17.4620  142.7820 C.3   321  SER321      0.1889
    163  C         75.2200   18.7690  143.5450 C.2   321  SER321      0.2288
    164  O         76.0390   19.6800  143.4400 O.2   321  SER321     -0.2866
    165  CB        76.3490   16.5560  143.5810 C.3   321  SER321      0.2089
    166  OG        75.9540   16.5570  144.9410 O.3   321  SER321     -0.2183
    167  N         75.6710   18.9460  146.5480 N.3   323  ASP323     -0.1239
    168  CA        76.7990   18.9240  147.4720 C.3   323  ASP323      0.1674
    169  C         78.1030   19.1090  146.6930 C.2   323  ASP323      0.2266
    170  O         78.6120   18.1600  146.0910 O.2   323  ASP323     -0.2867
    171  CB        76.8180   17.6120  148.2630 C.3   323  ASP323      0.1410
    172  CG        77.8060   17.6370  149.4200 C.2   323  ASP323      0.3668
    173  OD1       78.6910   18.5140  149.4310 O.co2 323  ASP323     -0.2456
    174  OD2       77.7030   16.7680  150.3120 O.co2 323  ASP323     -0.2456
    175  N         80.9350   16.6800  146.7240 N.3   326  ASP326     -0.1239
    176  CA        80.8020   15.4020  146.0260 C.3   326  ASP326      0.1674
    177  C         81.9150   15.2380  144.9950 C.2   326  ASP326      0.2266
    178  O         82.2860   16.1780  144.2990 O.2   326  ASP326     -0.2867
    179  CB        79.4260   15.2720  145.3610 C.3   326  ASP326      0.1410
    180  CG        78.3810   14.6850  146.2960 C.2   326  ASP326      0.3668
    181  OD1       78.6330   14.6500  147.5190 O.co2 326  ASP326     -0.2456
    182  OD2       77.3070   14.2570  145.8110 O.co2 326  ASP326     -0.2456
    183  N         76.1640   13.8280  139.7610 N.3   330  LEU330     -0.1245
    184  CA        75.1360   12.8260  140.0250 C.3   330  LEU330      0.1561
    185  C         74.8690   12.0090  138.7630 C.2   330  LEU330      0.2260
    186  O         74.3580   10.8820  138.8260 O.2   330  LEU330     -0.2867
    187  CB        73.8470   13.4980  140.4670 C.3   330  LEU330      0.0270
    188  CG        73.9210   14.3760  141.7100 C.3   330  LEU330      0.0019
    189  CD1       72.5850   15.0690  141.9470 C.3   330  LEU330      0.0001
    190  CD2       74.3130   13.5250  142.9050 C.3   330  LEU330      0.0001
@<TRIPOS>BOND
     1   125   124    2
     2   122   123    1
     3   123   124    1
     4   123   126    1
     5   126   127    1
     6   127   128    1
     7   185   186    2
     8   185   184    1
     9   128   129    1
    10   133   134    1
    11   113   114    1
    12   116   115    2
    13   183   184    1
    14   115   114    1
    15   129   130    2
    16   184   187    1
    17   114   117    1
    18   136   135    2
    19   187   188    1
    20   134   135    1
    21   134   137    1
    22   153   154    1
    23   131   130    1
    24   130   132    1
    25   135   139   am
    26   138   137    1
    27   156   155    2
    28   155   154    1
    29   161   162    1
    30   188   189    1
    31   188   190    1
    32   154   157    1
    33   117   118    1
    34   148   147    2
    35   118   119    1
    36   147   146    1
    37   139   140    1
    38   142   141    2
    39   140   141    1
    40   140   143    1
    41   162   163    1
    42   162   165    1
    43   141   145   am
    44   157   158    1
    45   145   146    1
    46   164   163    2
    47    47    45   am
    48   146   149    1
    49   165   166    1
    50   119   120    1
    51   158   159    1
    52   144   143    1
    53   151   149    1
    54   178   177    2
    55   149   150    1
    56    45    46    2
    57    45    44    1
    58   120   121    1
    59   150   152    1
    60   177   176    1
    61    44    41    1
    62   179   176    1
    63   179   180    1
    64   159   160    1
    65   182   180   ar
    66   176   175    1
    67   170   169    2
    68   180   181   ar
    69   167   168    1
    70    41    42    1
    71    41    40    1
    72   169   168    1
    73    42    43    2
    74    40    34   am
    75   168   171    1
    76   171   172    1
    77    34    35    2
    78    34    33    1
    79   103   101    1
    80    33    32    1
    81    33    36    1
    82   102   101    1
    83    31    30    1
    84   172   173   ar
    85   172   174   ar
    86    28    30   ar
    87    28    26   ar
    88    18    19    1
    89    18    15    1
    90    30    29   ar
    91   101    98    1
    92    38    37    1
    93   100    99    2
    94    26    25   ar
    95    98    99    1
    96    98    97    1
    97    55    53   ar
    98    52    53    1
    99    52    49    1
   100    36    37    1
   101    15    14    1
   102    15    16    1
   103    37    39    1
   104    23    22    2
   105    99   104   am
   106    29    27   ar
   107    48    49    1
   108    14    12   am
   109    53    54   ar
   110    25    27   ar
   111    25    24    1
   112    49    50    1
   113    22    21    1
   114    17    16    2
   115    24    21    1
   116    81    80    1
   117    12    11    1
   118    12    13    2
   119   104   105    1
   120    11    10    1
   121   107   106    2
   122    63    61   ar
   123    51    50    2
   124    21    20    1
   125   106   105    1
   126    80    77    1
   127    62    61   ar
   128   105   108    1
   129    61    60    1
   130    10     3   am
   131    77    76    1
   132    77    78    1
   133    85    84    2
   134    93    92    2
   135     8     7    2
   136   108   109    1
   137    78    82   am
   138    78    79    2
   139    82    83    1
   140    91    92    1
   141    91    90    1
   142    91    94    1
   143    60    57    1
   144     3     4    2
   145     3     2    1
   146    84    90   am
   147    84    83    1
   148   109   110    1
   149    90    96    1
   150     7     6    1
   151     7     9   am
   152    56    57    1
   153    94    95    1
   154    83    86    1
   155     6     5    1
   156     5     2    1
   157    57    58    1
   158    86    87    1
   159     2     1    1
   160    75    74    1
   161   110   112   ar
   162   110   111   ar
   163    96    95    1
   164    87    88   ar
   165    87    89   ar
   166    58    59    2
   167    72    74   ar
   168    72    70   ar
   169    74    73   ar
   170    73    71   ar
   171    70    69   ar
   172    71    69   ar
   173    69    68    1
   174    68    65    1
   175    65    64    1
   176    65    66    1
   177    66    67    2
