@<TRIPOS>MOLECULE
tmp/4u03A01.pdb
 123 114 0 0 0
SMALL
GASTEIGER

@<TRIPOS>ATOM
      1  N         66.8640   10.6410  157.0260 N.3   110  GLN110     -0.1245
      2  CA        67.2140   11.4700  155.8730 C.3   110  GLN110      0.1566
      3  C         66.5130   10.8470  154.6760 C.2   110  GLN110      0.2260
      4  O         65.9300    9.7750  154.7980 O.2   110  GLN110     -0.2867
      5  CB        68.7300   11.4520  155.6470 C.3   110  GLN110      0.0367
      6  CG        69.2530   10.0250  155.4260 C.3   110  GLN110      0.0905
      7  CD        70.7640    9.9150  155.2040 C.2   110  GLN110      0.2608
      8  OE1       71.2130    9.4850  154.1360 O.2   110  GLN110     -0.2717
      9  NE2       71.5490   10.2470  156.2320 N.am  110  GLN110     -0.0878
     10  N         61.9290    2.6900  151.0630 N.3   129  ASP129     -0.1239
     11  CA        63.2100    2.8430  151.7060 C.3   129  ASP129      0.1674
     12  C         63.0560    3.8760  152.8120 C.2   129  ASP129      0.2266
     13  O         62.5390    4.9620  152.5820 O.2   129  ASP129     -0.2867
     14  CB        64.2260    3.3280  150.6550 C.3   129  ASP129      0.1410
     15  CG        65.5710    3.7080  151.2510 C.2   129  ASP129      0.3668
     16  OD1       65.9320    3.1650  152.3250 O.co2 129  ASP129     -0.2456
     17  OD2       66.2750    4.5450  150.6330 O.co2 129  ASP129     -0.2456
     18  N         65.7100    5.8170  155.3550 N.3   131  ASP131     -0.1239
     19  CA        67.1200    6.0100  155.6590 C.3   131  ASP131      0.1674
     20  C         67.2830    6.6450  157.0440 C.2   131  ASP131      0.2266
     21  O         67.2660    7.8700  157.1770 O.2   131  ASP131     -0.2867
     22  CB        67.7490    6.9390  154.6270 C.3   131  ASP131      0.1410
     23  CG        67.4970    6.4820  153.2030 C.2   131  ASP131      0.3668
     24  OD1       68.1450    5.5030  152.7890 O.co2 131  ASP131     -0.2456
     25  OD2       66.6560    7.1020  152.5050 O.co2 131  ASP131     -0.2456
     26  N         76.0300   -2.7800  152.9990 N.3   175  LYS175     -0.1231
     27  CA        76.3390   -1.9710  151.8230 C.3   175  LYS175      0.1693
     28  C         77.5600   -1.1180  152.1630 C.2   175  LYS175      0.2592
     29  O         78.0240   -1.1380  153.2960 O.2   175  LYS175     -0.2718
     30  CB        75.1480   -1.0870  151.4430 C.3   175  LYS175      0.0285
     31  CG        73.9200   -1.8500  150.9390 C.3   175  LYS175      0.0035
     32  CD        74.0370   -2.1810  149.4530 C.3   175  LYS175      0.0206
     33  CE        72.8700   -3.0340  148.9660 C.3   175  LYS175      0.1093
     34  NZ        72.8790   -4.4190  149.5320 N.3   175  LYS175     -0.1314
     35  N         78.0830   -0.3660  151.2030 N.am  176  GLN176     -0.1966
     36  CA        79.3180    0.3680  151.4500 C.3   176  GLN176      0.1733
     37  C         79.0890    1.5290  152.4120 C.2   176  GLN176      0.2617
     38  O         79.9660    1.8660  153.1970 O.2   176  GLN176     -0.2715
     39  CB        79.9500    0.8610  150.1460 C.3   176  GLN176      0.0408
     40  CG        80.4580   -0.2600  149.2420 C.3   176  GLN176      0.0908
     41  CD        79.3780   -0.8410  148.3270 C.2   176  GLN176      0.2608
     42  OE1       78.2040   -0.9650  148.7080 O.2   176  GLN176     -0.2717
     43  NE2       79.7740   -1.1900  147.1060 N.am  176  GLN176     -0.0878
     44  N         77.9030    2.1170  152.3610 N.am  177  THR177     -0.1937
     45  CA        77.6190    3.2840  153.1880 C.3   177  THR177      0.2028
     46  C         76.6320    3.0270  154.3280 C.2   177  THR177      0.2642
     47  O         76.3260    3.9390  155.0940 O.2   177  THR177     -0.2714
     48  CB        77.0750    4.4320  152.3510 C.3   177  THR177      0.1808
     49  OG1       75.7810    4.0700  151.8410 O.3   177  THR177     -0.2208
     50  CG2       78.0200    4.7270  151.2000 C.3   177  THR177      0.0379
     51  N         76.1400    1.7990  154.4500 N.am  178  CYS178     -0.1967
     52  CA        75.1690    1.5100  155.4970 C.3   178  CYS178      0.1712
     53  C         74.9880    0.0160  155.7790 C.2   178  CYS178      0.2296
     54  O         75.5020   -0.8500  155.0620 O.2   178  CYS178     -0.2864
     55  CB        73.8140    2.1380  155.1460 C.3   178  CYS178      0.0983
     56  SG        73.0270    1.4470  153.6350 S.3   178  CYS178     -0.0798
     57  N         71.7870   -2.6910  156.2830 N.3   180  ARG180     -0.1245
     58  CA        70.4270   -2.6810  155.7760 C.3   180  ARG180      0.1563
     59  C         69.6000   -3.8300  156.3280 C.2   180  ARG180      0.2260
     60  O         70.0770   -4.9630  156.4250 O.2   180  ARG180     -0.2867
     61  CB        70.4580   -2.7500  154.2450 C.3   180  ARG180      0.0307
     62  CG        69.0850   -2.9580  153.6000 C.3   180  ARG180      0.0489
     63  CD        69.1910   -2.9480  152.0770 C.3   180  ARG180      0.2205
     64  NE        69.4640   -1.6070  151.5740 N.pl3 180  ARG180     -0.0865
     65  CZ        69.6020   -1.3080  150.2860 C.cat 180  ARG180      0.5346
     66  NH1       69.4960   -2.2610  149.3680 N.pl3 180  ARG180      0.1354
     67  NH2       69.8390   -0.0560  149.9180 N.pl3 180  ARG180      0.1354
     68  N         67.6550    1.5060  155.8280 N.3   191  ASP191     -0.1239
     69  CA        69.0970    1.7000  155.7010 C.3   191  ASP191      0.1674
     70  C         69.5900    2.5040  156.8970 C.2   191  ASP191      0.2266
     71  O         68.9460    3.4730  157.2850 O.2   191  ASP191     -0.2867
     72  CB        69.4480    2.4690  154.4090 C.3   191  ASP191      0.1410
     73  CG        69.2780    1.6230  153.1350 C.2   191  ASP191      0.3668
     74  OD1       69.0880    0.3930  153.2400 O.co2 191  ASP191     -0.2456
     75  OD2       69.3520    2.1960  152.0190 O.co2 191  ASP191     -0.2456
     76  N         72.9510    4.3770  157.7320 N.3   193  PRO193     -0.2116
     77  CA        74.2920    4.9330  157.5880 C.3   193  PRO193      0.1372
     78  C         74.7360    5.3820  158.9630 C.2   193  PRO193      0.2244
     79  O         73.8740    5.6660  159.7970 O.2   193  PRO193     -0.2868
     80  CB        74.0800    6.1400  156.6640 C.3   193  PRO193      0.0268
     81  CG        72.6620    6.5290  156.8700 C.3   193  PRO193      0.0207
     82  CD        71.9060    5.2700  157.2060 C.3   193  PRO193      0.0892
     83  N         77.2600    8.0610  161.2360 N.3   195  TYR195     -0.1241
     84  CA        78.0590    9.2790  161.1620 C.3   195  TYR195      0.1605
     85  C         78.7400    9.5900  162.4760 C.2   195  TYR195      0.2264
     86  O         78.1700    9.3670  163.5540 O.2   195  TYR195     -0.2867
     87  CB        77.1790   10.4730  160.7940 C.3   195  TYR195      0.0534
     88  CG        76.4280   10.3340  159.5020 C.ar  195  TYR195     -0.0201
     89  CD1       76.9860   10.7610  158.3010 C.ar  195  TYR195     -0.0009
     90  CD2       75.1510    9.7950  159.4800 C.ar  195  TYR195     -0.0009
     91  CE1       76.2880   10.6440  157.1070 C.ar  195  TYR195      0.0417
     92  CE2       74.4500    9.6670  158.2940 C.ar  195  TYR195      0.0417
     93  CZ        75.0180   10.0970  157.1120 C.ar  195  TYR195      0.1957
     94  OH        74.3050    9.9630  155.9350 O.3   195  TYR195     -0.2866
     95  N         80.8290   10.3910  157.5040 N.3   225  LEU225     -0.1245
     96  CA        80.1610    9.1530  157.1430 C.3   225  LEU225      0.1561
     97  C         81.1310    7.9850  157.2410 C.2   225  LEU225      0.2260
     98  O         82.2500    8.0530  156.7300 O.2   225  LEU225     -0.2867
     99  CB        79.6180    9.2610  155.7200 C.3   225  LEU225      0.0270
    100  CG        79.0230    8.0130  155.0890 C.3   225  LEU225      0.0019
    101  CD1       77.8610    7.4920  155.9390 C.3   225  LEU225      0.0001
    102  CD2       78.5640    8.3310  153.6700 C.3   225  LEU225      0.0001
    103  N         80.6370   13.4640  154.3500 N.3   237  SER237     -0.1217
    104  CA        79.4100   13.5710  153.5660 C.3   237  SER237      0.1889
    105  C         78.2080   13.9230  154.4430 C.2   237  SER237      0.2288
    106  O         77.5750   13.0560  155.0330 O.2   237  SER237     -0.2866
    107  CB        79.1320   12.2830  152.7880 C.3   237  SER237      0.2089
    108  OG        77.9670   12.4240  151.9840 O.3   237  SER237     -0.2183
    109  N         74.6150   14.7000  155.1910 N.3   239  PRO239     -0.2116
    110  CA        73.3010   14.5040  154.5710 C.3   239  PRO239      0.1372
    111  C         72.3980   15.7310  154.6710 C.2   239  PRO239      0.2244
    112  O         71.4650   15.8550  153.8870 O.2   239  PRO239     -0.2868
    113  CB        72.6990   13.3330  155.3630 C.3   239  PRO239      0.0268
    114  CG        73.3620   13.4180  156.6990 C.3   239  PRO239      0.0207
    115  CD        74.7730   13.8860  156.4140 C.3   239  PRO239      0.0892
    116  N         80.9350   16.6800  146.7240 N.3   326  ASP326     -0.1239
    117  CA        80.8020   15.4020  146.0260 C.3   326  ASP326      0.1674
    118  C         81.9150   15.2380  144.9950 C.2   326  ASP326      0.2266
    119  O         82.2860   16.1780  144.2990 O.2   326  ASP326     -0.2867
    120  CB        79.4260   15.2720  145.3610 C.3   326  ASP326      0.1410
    121  CG        78.3810   14.6850  146.2960 C.2   326  ASP326      0.3668
    122  OD1       78.6330   14.6500  147.5190 O.co2 326  ASP326     -0.2456
    123  OD2       77.3070   14.2570  145.8110 O.co2 326  ASP326     -0.2456
@<TRIPOS>BOND
     1   119   118    2
     2   118   117    1
     3   120   117    1
     4   120   121    1
     5   123   121   ar
     6   117   116    1
     7   121   122   ar
     8    43    41   am
     9    41    42    2
    10    41    40    1
    11    33    32    1
    12    33    34    1
    13    40    39    1
    14    66    65    1
    15    32    31    1
    16    67    65    1
    17    39    36    1
    18    65    64    2
    19    17    15   ar
    20    14    15    1
    21    14    11    1
    22    31    30    1
    23    10    11    1
    24    50    48    1
    25    35    36    1
    26    35    28   am
    27    15    16   ar
    28    30    27    1
    29    36    37    1
    30    64    63    1
    31    11    12    1
    32    27    28    1
    33    27    26    1
    34    49    48    1
    35   108   107    1
    36    75    73   ar
    37    63    62    1
    38    28    29    2
    39    48    45    1
    40    44    37   am
    41    44    45    1
    42    37    38    2
    43    25    23   ar
    44    13    12    2
    45   107   104    1
    46    24    23   ar
    47    73    74   ar
    48    73    72    1
    49    45    46    1
    50    23    22    1
    51   104   103    1
    52   104   105    1
    53    62    61    1
    54    56    55    1
    55   102   100    1
    56   112   111    2
    57     8     7    2
    58    61    58    1
    59    46    51   am
    60    46    47    2
    61    72    69    1
    62   105   106    2
    63    51    52    1
    64   110   111    1
    65   110   109    1
    66   110   113    1
    67    22    19    1
    68     3     4    2
    69     3     2    1
    70    54    53    2
    71   100    99    1
    72   100   101    1
    73    55    52    1
    74   109   115    1
    75     7     6    1
    76     7     9   am
    77    18    19    1
    78   113   114    1
    79     6     5    1
    80    52    53    1
    81     5     2    1
    82    19    20    1
    83    69    68    1
    84    69    70    1
    85    99    96    1
    86    58    57    1
    87    58    59    1
    88     2     1    1
    89    94    93    1
    90    59    60    2
    91   115   114    1
    92    80    81    1
    93    80    77    1
    94    98    97    2
    95    81    82    1
    96    70    71    2
    97    20    21    2
    98    91    93   ar
    99    91    89   ar
   100    93    92   ar
   101    96    97    1
   102    96    95    1
   103    82    76    1
   104    77    76    1
   105    77    78    1
   106    92    90   ar
   107    89    88   ar
   108    78    79    2
   109    90    88   ar
   110    88    87    1
   111    87    84    1
   112    84    83    1
   113    84    85    1
   114    85    86    2
