@<TRIPOS>MOLECULE
tmp/4u03A02.pdb
 226 220 0 0 0
SMALL
GASTEIGER

@<TRIPOS>ATOM
      1  N         61.3590    1.8590  162.2590 N.3    34  ARG34      -0.1245
      2  CA        62.4230    2.7550  162.6790 C.3    34  ARG34       0.1563
      3  C         62.5520    2.7680  164.2140 C.2    34  ARG34       0.2260
      4  O         63.6500    2.6920  164.7540 O.2    34  ARG34      -0.2867
      5  CB        62.1510    4.1600  162.1660 C.3    34  ARG34       0.0307
      6  CG        63.1780    5.1620  162.6390 C.3    34  ARG34       0.0489
      7  CD        62.9360    6.5280  162.0550 C.3    34  ARG34       0.2205
      8  NE        61.6590    7.0860  162.4760 N.pl3  34  ARG34      -0.0865
      9  CZ        61.1900    8.2540  162.0530 C.cat  34  ARG34       0.5346
     10  NH1       61.8970    8.9940  161.1920 N.pl3  34  ARG34       0.1354
     11  NH2       60.0150    8.6810  162.4900 N.pl3  34  ARG34       0.1354
     12  N         65.8790    1.7500  166.3740 N.3    38  ARG38      -0.1245
     13  CA        66.4710    2.7320  167.2950 C.3    38  ARG38       0.1563
     14  C         66.5890    2.1870  168.7280 C.2    38  ARG38       0.2260
     15  O         67.6450    2.2840  169.3680 O.2    38  ARG38      -0.2867
     16  CB        65.6550    4.0290  167.2890 C.3    38  ARG38       0.0307
     17  CG        65.8350    4.8600  165.9890 C.3    38  ARG38       0.0489
     18  CD        64.9590    6.0900  165.9950 C.3    38  ARG38       0.2205
     19  NE        65.2230    6.9460  164.8400 N.pl3  38  ARG38      -0.0865
     20  CZ        64.7360    8.1730  164.7140 C.cat  38  ARG38       0.5346
     21  NH1       63.9540    8.6640  165.6660 N.pl3  38  ARG38       0.1354
     22  NH2       65.0220    8.9090  163.6400 N.pl3  38  ARG38       0.1354
     23  N         70.2380    1.4120  170.7320 N.3    42  ARG42      -0.1245
     24  CA        70.6060    2.0110  172.0150 C.3    42  ARG42       0.1563
     25  C         70.8230    0.9400  173.0860 C.2    42  ARG42       0.2260
     26  O         71.7520    1.0360  173.8970 O.2    42  ARG42      -0.2867
     27  CB        69.5670    3.0470  172.4520 C.3    42  ARG42       0.0307
     28  CG        69.5770    4.2930  171.5680 C.3    42  ARG42       0.0489
     29  CD        68.6270    5.3710  172.0770 C.3    42  ARG42       0.2205
     30  NE        67.2490    4.8970  172.0960 N.pl3  42  ARG42      -0.0865
     31  CZ        66.2540    5.4210  171.3870 C.cat  42  ARG42       0.5346
     32  NH1       66.4610    6.4560  170.5910 N.pl3  42  ARG42       0.1354
     33  NH2       65.0420    4.9100  171.4900 N.pl3  42  ARG42       0.1354
     34  N         74.3100    6.5400  171.0460 N.3   105  PRO105     -0.2102
     35  CA        73.9890    6.8200  169.6480 C.3   105  PRO105      0.1504
     36  C         72.7130    7.6400  169.5630 C.2   105  PRO105      0.2576
     37  O         71.8040    7.4500  170.3740 O.2   105  PRO105     -0.2718
     38  CB        73.7540    5.4240  169.0510 C.3   105  PRO105      0.0282
     39  CG        73.2980    4.5880  170.2300 C.3   105  PRO105      0.0208
     40  CD        74.1130    5.1170  171.3860 C.3   105  PRO105      0.0893
     41  N         72.6650    8.5280  168.5750 N.am  106  ARG106     -0.1966
     42  CA        71.5070    9.3620  168.2860 C.3   106  ARG106      0.1729
     43  C         71.0600    9.1000  166.8570 C.2   106  ARG106      0.2616
     44  O         71.8300    8.5790  166.0530 O.2   106  ARG106     -0.2715
     45  CB        71.8990   10.8320  168.4160 C.3   106  ARG106      0.0348
     46  CG        72.2520   11.2450  169.8370 C.3   106  ARG106      0.0492
     47  CD        71.0320   11.1020  170.7390 C.3   106  ARG106      0.2205
     48  NE        71.2690   11.6150  172.0890 N.pl3 106  ARG106     -0.0865
     49  CZ        71.1900   10.8800  173.2000 C.cat 106  ARG106      0.5346
     50  NH1       70.8650    9.5960  173.1330 N.pl3 106  ARG106      0.1354
     51  NH2       71.4340   11.4280  174.3830 N.pl3 106  ARG106      0.1354
     52  N         69.8290    9.4780  166.5360 N.am  107  PHE107     -0.1960
     53  CA        69.2520    9.1030  165.2650 C.3   107  PHE107      0.1771
     54  C         68.5930   10.2650  164.5510 C.2   107  PHE107      0.2620
     55  O         68.0660   11.1720  165.1840 O.2   107  PHE107     -0.2715
     56  CB        68.2290    7.9950  165.4850 C.3   107  PHE107      0.0574
     57  CG        68.8000    6.8060  166.1810 C.ar  107  PHE107     -0.0200
     58  CD1       69.4510    5.8170  165.4600 C.ar  107  PHE107     -0.0042
     59  CD2       68.7160    6.6910  167.5670 C.ar  107  PHE107     -0.0042
     60  CE1       70.0030    4.7060  166.1100 C.ar  107  PHE107     -0.0003
     61  CE2       69.2600    5.6040  168.2190 C.ar  107  PHE107     -0.0003
     62  CZ        69.9070    4.6070  167.4910 C.ar  107  PHE107     -0.0000
     63  N         68.6000   10.2120  163.2210 N.am  108  TRP108     -0.1960
     64  CA        67.8760   11.1830  162.4270 C.3   108  TRP108      0.1771
     65  C         67.6680   10.6480  161.0130 C.2   108  TRP108      0.2620
     66  O         68.6170   10.2710  160.3300 O.2   108  TRP108     -0.2715
     67  CB        68.6350   12.5060  162.3790 C.3   108  TRP108      0.0590
     68  CG        67.7580   13.6800  162.0930 C.ar  108  TRP108      0.0006
     69  CD1       67.2680   14.0680  160.8770 C.ar  108  TRP108      0.0946
     70  CD2       67.2900   14.6490  163.0440 C.ar  108  TRP108      0.0152
     71  NE1       66.5120   15.2160  161.0150 N.ar  108  TRP108     -0.2442
     72  CE2       66.5080   15.5890  162.3350 C.ar  108  TRP108      0.0810
     73  CE3       67.4500   14.8080  164.4280 C.ar  108  TRP108      0.0012
     74  CZ2       65.8890   16.6720  162.9630 C.ar  108  TRP108      0.0191
     75  CZ3       66.8350   15.8840  165.0510 C.ar  108  TRP108      0.0001
     76  CH2       66.0630   16.8040  164.3170 C.ar  108  TRP108      0.0015
     77  N         66.4130   10.6190  160.5910 N.am  109  THR109     -0.1951
     78  CA        66.0530   10.1360  159.2640 C.3   109  THR109      0.1897
     79  C         66.4170   11.1510  158.1700 C.2   109  THR109      0.2313
     80  O         66.2910   12.3650  158.3600 O.2   109  THR109     -0.2863
     81  CB        64.5450    9.8510  159.1930 C.3   109  THR109      0.1794
     82  OG1       64.1840    8.9390  160.2380 O.3   109  THR109     -0.2208
     83  CG2       64.1620    9.2450  157.8240 C.3   109  THR109      0.0378
     84  N         61.8270    9.8250  152.9690 N.3   113  PHE113     -0.1227
     85  CA        60.8820    9.7560  154.0680 C.3   113  PHE113      0.1736
     86  C         60.9200   11.1060  154.7860 C.2   113  PHE113      0.2595
     87  O         59.8890   11.6250  155.2170 O.2   113  PHE113     -0.2718
     88  CB        61.2030    8.6100  155.0340 C.3   113  PHE113      0.0547
     89  CG        60.1520    8.4220  156.0870 C.ar  113  PHE113     -0.0202
     90  CD1       60.2150    9.1290  157.2840 C.ar  113  PHE113     -0.0042
     91  CD2       59.0780    7.5760  155.8650 C.ar  113  PHE113     -0.0042
     92  CE1       59.2330    8.9760  158.2510 C.ar  113  PHE113     -0.0003
     93  CE2       58.0950    7.4050  156.8400 C.ar  113  PHE113     -0.0003
     94  CZ        58.1780    8.1030  158.0310 C.ar  113  PHE113     -0.0000
     95  N         62.1120   11.6940  154.8640 N.am  114  GLN114     -0.1979
     96  CA        62.3070   12.9600  155.5780 C.3   114  GLN114      0.1601
     97  C         61.7550   14.1560  154.8100 C.2   114  GLN114      0.2287
     98  O         61.0560   14.9990  155.3790 O.2   114  GLN114     -0.2864
     99  CB        63.7950   13.1850  155.8850 C.3   114  GLN114      0.0394
    100  CG        64.0850   14.4260  156.7370 C.3   114  GLN114      0.0908
    101  CD        63.3970   14.3640  158.0830 C.2   114  GLN114      0.2608
    102  OE1       62.4070   15.0580  158.3130 O.2   114  GLN114     -0.2717
    103  NE2       63.9040   13.5100  158.9770 N.am  114  GLN114     -0.0878
    104  N         74.0600    8.5800  164.6230 N.3   135  TYR135     -0.1241
    105  CA        75.0950    9.5810  164.8220 C.3   135  TYR135      0.1605
    106  C         75.8490    9.2620  166.0900 C.2   135  TYR135      0.2264
    107  O         75.2380    8.9130  167.0910 O.2   135  TYR135     -0.2867
    108  CB        74.4460   10.9580  164.9380 C.3   135  TYR135      0.0534
    109  CG        73.8710   11.4630  163.6470 C.ar  135  TYR135     -0.0201
    110  CD1       72.6370   11.0210  163.1900 C.ar  135  TYR135     -0.0009
    111  CD2       74.5650   12.3960  162.8870 C.ar  135  TYR135     -0.0009
    112  CE1       72.1060   11.4940  161.9830 C.ar  135  TYR135      0.0417
    113  CE2       74.0570   12.8670  161.6980 C.ar  135  TYR135      0.0417
    114  CZ        72.8310   12.4190  161.2550 C.ar  135  TYR135      0.1957
    115  OH        72.3410   12.9120  160.0750 O.3   135  TYR135     -0.2866
    116  N         80.0790   12.8050  164.6800 N.3   197  ILE197     -0.1245
    117  CA        79.8540   14.2480  164.7590 C.3   197  ILE197      0.1561
    118  C         80.5510   14.7910  166.0030 C.2   197  ILE197      0.2260
    119  O         80.8350   14.0300  166.9240 O.2   197  ILE197     -0.2867
    120  CB        78.3550   14.5890  164.7930 C.3   197  ILE197      0.0252
    121  CG1       77.6630   13.8080  165.9000 C.3   197  ILE197      0.0019
    122  CG2       77.6940   14.2960  163.4350 C.3   197  ILE197      0.0019
    123  CD1       76.2280   14.2290  166.1460 C.3   197  ILE197      0.0001
    124  N         77.7230   19.1140  169.5020 N.3   202  PHE202     -0.1241
    125  CA        76.4810   18.3770  169.6820 C.3   202  PHE202      0.1605
    126  C         75.8480   18.7070  171.0230 C.2   202  PHE202      0.2264
    127  O         74.6440   18.9550  171.1110 O.2   202  PHE202     -0.2867
    128  CB        76.7150   16.8690  169.6080 C.3   202  PHE202      0.0534
    129  CG        75.5980   16.0600  170.1920 C.ar  202  PHE202     -0.0203
    130  CD1       74.4100   15.8940  169.5030 C.ar  202  PHE202     -0.0042
    131  CD2       75.7340   15.4660  171.4360 C.ar  202  PHE202     -0.0042
    132  CE1       73.3740   15.1570  170.0470 C.ar  202  PHE202     -0.0003
    133  CE2       74.7120   14.7250  171.9760 C.ar  202  PHE202     -0.0003
    134  CZ        73.5270   14.5750  171.2860 C.ar  202  PHE202     -0.0000
    135  N         72.4090   20.9080  171.7040 N.3   206  GLN206     -0.1245
    136  CA        71.3010   20.2080  172.3240 C.3   206  GLN206      0.1566
    137  C         70.8480   20.9910  173.5620 C.2   206  GLN206      0.2260
    138  O         69.6610   21.1060  173.8400 O.2   206  GLN206     -0.2867
    139  CB        71.7290   18.7920  172.7230 C.3   206  GLN206      0.0367
    140  CG        70.5750   17.8570  173.0210 C.3   206  GLN206      0.0905
    141  CD        69.7670   17.4930  171.7830 C.2   206  GLN206      0.2608
    142  OE1       70.2480   17.5850  170.6500 O.2   206  GLN206     -0.2717
    143  NE2       68.5250   17.0840  171.9990 N.am  206  GLN206     -0.0878
    144  N         68.9770   23.9080  172.2350 N.3   209  LEU209     -0.1245
    145  CA        67.7140   23.4580  171.6750 C.3   209  LEU209      0.1561
    146  C         66.6240   23.3160  172.7470 C.2   209  LEU209      0.2260
    147  O         65.4870   23.7480  172.5420 O.2   209  LEU209     -0.2867
    148  CB        67.9100   22.1230  170.9520 C.3   209  LEU209      0.0270
    149  CG        66.6580   21.2540  170.7800 C.3   209  LEU209      0.0019
    150  CD1       65.9260   21.5970  169.4890 C.3   209  LEU209      0.0001
    151  CD2       67.0050   19.7680  170.8350 C.3   209  LEU209      0.0001
    152  N         69.8580   21.7120  166.3290 N.3   216  TYR216     -0.1227
    153  CA        70.2970   22.6630  165.3120 C.3   216  TYR216      0.1736
    154  C         71.5020   22.1190  164.5140 C.2   216  TYR216      0.2595
    155  O         72.0650   21.0780  164.8560 O.2   216  TYR216     -0.2718
    156  CB        70.5690   24.0330  165.9450 C.3   216  TYR216      0.0548
    157  CG        71.1920   25.0310  165.0040 C.ar  216  TYR216     -0.0200
    158  CD1       70.5460   25.4110  163.8340 C.ar  216  TYR216     -0.0009
    159  CD2       72.4410   25.5750  165.2720 C.ar  216  TYR216     -0.0009
    160  CE1       71.1260   26.3040  162.9580 C.ar  216  TYR216      0.0417
    161  CE2       73.0270   26.4770  164.4050 C.ar  216  TYR216      0.0417
    162  CZ        72.3660   26.8380  163.2490 C.ar  216  TYR216      0.1957
    163  OH        72.9500   27.7370  162.3820 O.3   216  TYR216     -0.2866
    164  N         71.8730   22.8160  163.4440 N.am  217  GLU217     -0.1965
    165  CA        72.8300   22.3090  162.4580 C.3   217  GLU217      0.1733
    166  C         74.2740   22.3500  162.9500 C.2   217  GLU217      0.2616
    167  O         74.7200   23.3390  163.5170 O.2   217  GLU217     -0.2715
    168  CB        72.7090   23.1010  161.1490 C.3   217  GLU217      0.0429
    169  CG        73.7560   22.7340  160.1030 C.3   217  GLU217      0.1163
    170  CD        73.7520   23.6790  158.9110 C.2   217  GLU217      0.3649
    171  OE1       72.7990   24.4820  158.7990 O.co2 217  GLU217     -0.2457
    172  OE2       74.7040   23.6230  158.0930 O.co2 217  GLU217     -0.2457
    173  N         75.0050   21.2680  162.7240 N.am  218  LEU218     -0.1977
    174  CA        76.4050   21.1940  163.1250 C.3   218  LEU218      0.1596
    175  C         77.2790   21.6930  162.0030 C.2   218  LEU218      0.2287
    176  O         76.8250   21.8180  160.8640 O.2   218  LEU218     -0.2864
    177  CB        76.7920   19.7430  163.3970 C.3   218  LEU218      0.0297
    178  CG        76.0100   18.9580  164.4410 C.3   218  LEU218      0.0022
    179  CD1       76.3510   17.5010  164.2990 C.3   218  LEU218      0.0001
    180  CD2       76.4120   19.4610  165.7960 C.3   218  LEU218      0.0001
    181  N         79.3310   21.5070  159.0730 N.3   220  SER220     -0.1217
    182  CA        79.2080   20.5250  158.0070 C.3   220  SER220      0.1889
    183  C         80.4590   19.6720  157.7890 C.2   220  SER220      0.2288
    184  O         80.3610   18.4820  157.4900 O.2   220  SER220     -0.2866
    185  CB        78.8180   21.2230  156.6980 C.3   220  SER220      0.2089
    186  OG        77.9980   20.3890  155.9200 O.3   220  SER220     -0.2183
    187  N         80.9860   16.3700  159.9060 N.3   223  VAL223     -0.1245
    188  CA        80.0000   15.3050  159.8650 C.3   223  VAL223      0.1561
    189  C         80.5750   14.1760  158.9990 C.2   223  VAL223      0.2260
    190  O         80.6390   14.2820  157.7690 O.2   223  VAL223     -0.2867
    191  CB        78.6450   15.7940  159.3260 C.3   223  VAL223      0.0252
    192  CG1       77.6740   14.6280  159.1990 C.3   223  VAL223      0.0019
    193  CG2       78.0770   16.8940  160.2400 C.3   223  VAL223      0.0019
    194  N         77.8970   15.2080  154.5070 N.3   238  ASP238     -0.1225
    195  CA        76.8560   15.7150  155.3820 C.3   238  ASP238      0.1790
    196  C         75.4820   15.6070  154.7020 C.2   238  ASP238      0.2440
    197  O         75.2000   16.3510  153.7650 O.2   238  ASP238     -0.2733
    198  CB        77.1920   17.1760  155.7130 C.3   238  ASP238      0.1423
    199  CG        76.2080   17.8020  156.6690 C.2   238  ASP238      0.3668
    200  OD1       75.2160   17.1420  157.0300 O.co2 238  ASP238     -0.2456
    201  OD2       76.4170   18.9660  157.0320 O.co2 238  ASP238     -0.2456
    202  N         74.6150   14.7000  155.1910 N.am  239  PRO239     -0.2718
    203  CA        73.3010   14.5040  154.5710 C.3   239  PRO239      0.1535
    204  C         72.3980   15.7310  154.6710 C.2   239  PRO239      0.2598
    205  O         71.4650   15.8550  153.8870 O.2   239  PRO239     -0.2715
    206  CB        72.6990   13.3330  155.3630 C.3   239  PRO239      0.0310
    207  CG        73.3620   13.4180  156.6990 C.3   239  PRO239      0.0237
    208  CD        74.7730   13.8860  156.4140 C.3   239  PRO239      0.0939
    209  N         72.6650   16.6230  155.6110 N.am  240  LYS240     -0.1978
    210  CA        71.8050   17.7790  155.7700 C.3   240  LYS240      0.1596
    211  C         71.9530   18.7180  154.5690 C.2   240  LYS240      0.2287
    212  O         71.0440   19.4750  154.2520 O.2   240  LYS240     -0.2864
    213  CB        72.1210   18.5200  157.0770 C.3   240  LYS240      0.0298
    214  CG        71.0350   19.4980  157.4760 C.3   240  LYS240      0.0038
    215  CD        71.4620   20.4050  158.6290 C.3   240  LYS240      0.0206
    216  CE        70.5910   21.6650  158.7050 C.3   240  LYS240      0.1093
    217  NZ        69.1350   21.3220  158.7120 N.3   240  LYS240     -0.1314
    218  N         69.2870   17.6760  152.2180 N.3   243  GLU243     -0.1245
    219  CA        67.9790   17.9860  152.8020 C.3   243  GLU243      0.1567
    220  C         67.6830   19.4830  152.7380 C.2   243  GLU243      0.2260
    221  O         66.5660   19.8910  152.3980 O.2   243  GLU243     -0.2867
    222  CB        67.8450   17.4980  154.2570 C.3   243  GLU243      0.0388
    223  CG        66.3970   17.6040  154.7600 C.3   243  GLU243      0.1160
    224  CD        66.2480   17.5180  156.2860 C.2   243  GLU243      0.3649
    225  OE1       67.1910   17.0570  156.9760 O.co2 243  GLU243     -0.2457
    226  OE2       65.1710   17.9110  156.7930 O.co2 243  GLU243     -0.2457
@<TRIPOS>BOND
     1   218   219    1
     2   221   220    2
     3   220   219    1
     4   219   222    1
     5    84    85    1
     6   197   196    2
     7   205   204    2
     8    85    86    1
     9    85    88    1
    10   212   211    2
    11   222   223    1
    12   194   195    1
    13   211   210    1
    14   203   204    1
    15   203   202    1
    16   203   206    1
    17   204   209   am
    18   196   202   am
    19   196   195    1
    20   223   224    1
    21    86    95   am
    22    86    87    2
    23    97    98    2
    24    97    96    1
    25    95    96    1
    26    88    89    1
    27   202   208    1
    28   206   207    1
    29   195   198    1
    30    96    99    1
    31   209   210    1
    32   198   199    1
    33   210   213    1
    34    91    89   ar
    35    91    93   ar
    36    99   100    1
    37   186   185    1
    38    89    90   ar
    39   224   226   ar
    40   224   225   ar
    41   208   207    1
    42   199   200   ar
    43   199   201   ar
    44   185   182    1
    45   100   101    1
    46    93    94   ar
    47   213   214    1
    48    90    92   ar
    49   214   215    1
    50   184   183    2
    51   190   189    2
    52   183   182    1
    53    83    81    1
    54   182   181    1
    55    94    92   ar
    56   101   102    2
    57   101   103   am
    58   172   170   ar
    59    79    80    2
    60    79    78    1
    61   215   216    1
    62   216   217    1
    63   171   170   ar
    64   170   169    1
    65   189   188    1
    66    81    78    1
    67    81    82    1
    68   192   191    1
    69    78    77    1
    70   191   188    1
    71   191   193    1
    72   188   187    1
    73   115   114    1
    74   169   168    1
    75    66    65    2
    76    77    65   am
    77   176   175    2
    78    69    71   ar
    79    69    68   ar
    80    65    64    1
    81    71    72   ar
    82   168   165    1
    83    10     9    1
    84   114   113   ar
    85   114   112   ar
    86   113   111   ar
    87   112   110   ar
    88   175   174    1
    89     9     8    2
    90     9    11    1
    91     7     8    1
    92     7     6    1
    93    68    67    1
    94    68    70   ar
    95     5     6    1
    96     5     2    1
    97     1     2    1
    98    72    74   ar
    99    72    70   ar
   100    67    64    1
   101   163   162    1
   102    64    63    1
   103   165   166    1
   104   165   164    1
   105     2     3    1
   106   173   166   am
   107   173   174    1
   108   111   109   ar
   109   166   167    2
   110   160   162   ar
   111   160   158   ar
   112    74    76   ar
   113    70    73   ar
   114   174   177    1
   115   110   109   ar
   116    63    54   am
   117   162   161   ar
   118   177   178    1
   119   122   120    1
   120   164   154   am
   121    22    20    1
   122   109   108    1
   123   158   157   ar
   124     3     4    2
   125   179   178    1
   126    76    75   ar
   127   161   159   ar
   128    73    75   ar
   129   178   180    1
   130   154   155    2
   131   154   153    1
   132    54    55    2
   133    54    53    1
   134   104   105    1
   135   116   117    1
   136    20    19    2
   137    20    21    1
   138   117   120    1
   139   117   118    1
   140   120   121    1
   141   105   108    1
   142   105   106    1
   143    19    18    1
   144   157   159   ar
   145   157   156    1
   146    53    56    1
   147    53    52    1
   148   153   156    1
   149   153   152    1
   150    58    60   ar
   151    58    57   ar
   152    56    57    1
   153   121   123    1
   154    17    18    1
   155    17    16    1
   156   118   119    2
   157    44    43    2
   158   106   107    2
   159    60    62   ar
   160    57    59   ar
   161    12    13    1
   162    52    43   am
   163    43    42    1
   164    16    13    1
   165    13    14    1
   166    62    61   ar
   167    59    61   ar
   168    42    45    1
   169    42    41    1
   170    45    46    1
   171    41    36   am
   172    14    15    2
   173    38    35    1
   174    38    39    1
   175   150   149    1
   176   124   125    1
   177   130   132   ar
   178   130   129   ar
   179    36    35    1
   180    36    37    2
   181   128   125    1
   182   128   129    1
   183    35    34    1
   184   125   126    1
   185    46    47    1
   186   132   134   ar
   187   129   131   ar
   188    39    40    1
   189    32    31    1
   190   142   141    2
   191    23    24    1
   192    47    48    1
   193   149   151    1
   194   149   148    1
   195   148   145    1
   196   126   127    2
   197    34    40    1
   198   134   133   ar
   199    31    33    1
   200    31    30    2
   201   131   133   ar
   202    28    29    1
   203    28    27    1
   204   145   144    1
   205   145   146    1
   206   135   136    1
   207   141   143   am
   208   141   140    1
   209    24    27    1
   210    24    25    1
   211    29    30    1
   212    48    49    2
   213   136   139    1
   214   136   137    1
   215   147   146    2
   216   139   140    1
   217    25    26    2
   218    50    49    1
   219    49    51    1
   220   137   138    2
