@<TRIPOS>MOLECULE
tmp/4u04A00.pdb
 88 84 0 0 0
SMALL
GASTEIGER

@<TRIPOS>ATOM
      1  N        -14.0920  -14.2530   -1.0150 N.3   116  GLU116     -0.1245
      2  CA       -14.4230  -15.5960   -1.4940 C.3   116  GLU116      0.1567
      3  C        -13.6600  -16.7130   -0.7170 C.2   116  GLU116      0.2260
      4  O        -14.0000  -17.8880   -0.8770 O.2   116  GLU116     -0.2867
      5  CB       -14.1280  -15.6850   -3.0120 C.3   116  GLU116      0.0388
      6  CG       -15.2870  -16.2130   -3.8360 C.3   116  GLU116      0.1160
      7  CD       -16.3670  -15.1970   -4.1470 C.2   116  GLU116      0.3649
      8  OE1      -16.4990  -14.8360   -5.3370 O.co2 116  GLU116     -0.2457
      9  OE2      -17.0770  -14.7550   -3.2150 O.co2 116  GLU116     -0.2457
     10  N        -26.6660  -23.7480   -3.5790 N.3   198  VAL198     -0.1245
     11  CA       -25.7740  -22.6590   -3.2320 C.3   198  VAL198      0.1561
     12  C        -26.2870  -22.0800   -1.9220 C.2   198  VAL198      0.2260
     13  O        -27.1590  -21.2200   -1.9240 O.2   198  VAL198     -0.2867
     14  CB       -25.7560  -21.6280   -4.3880 C.3   198  VAL198      0.0252
     15  CG1      -24.6590  -20.5900   -4.1700 C.3   198  VAL198      0.0019
     16  CG2      -25.5830  -22.3340   -5.7390 C.3   198  VAL198      0.0019
     17  N        -25.8410  -13.4910   -9.7690 N.3   242  VAL242     -0.1245
     18  CA       -25.6250  -14.3620   -8.6070 C.3   242  VAL242      0.1561
     19  C        -26.8300  -15.3010   -8.4280 C.2   242  VAL242      0.2260
     20  O        -26.6610  -16.4600   -8.0290 O.2   242  VAL242     -0.2867
     21  CB       -25.3330  -13.5190   -7.3370 C.3   242  VAL242      0.0252
     22  CG1      -25.4640  -14.3450   -6.0630 C.3   242  VAL242      0.0019
     23  CG2      -23.9500  -12.8930   -7.4210 C.3   242  VAL242      0.0019
     24  N        -26.5560  -17.9450  -11.2940 N.3   245  HIS245     -0.1241
     25  CA       -25.4400  -18.8490  -10.9990 C.3   245  HIS245      0.1621
     26  C        -25.1040  -19.6320  -12.2860 C.2   245  HIS245      0.2264
     27  O        -25.2990  -20.8430  -12.3580 O.2   245  HIS245     -0.2867
     28  CB       -25.8250  -19.7710   -9.8210 C.3   245  HIS245      0.0745
     29  CG       -24.6660  -20.2510   -9.0170 C.ar  245  HIS245      0.0817
     30  ND1      -24.3890  -19.6040   -7.8300 N.ar  245  HIS245     -0.2268
     31  CD2      -23.7030  -21.1770   -9.2290 C.ar  245  HIS245      0.1154
     32  CE1      -23.3100  -20.1720   -7.3360 C.ar  245  HIS245      0.1986
     33  NE2      -22.8330  -21.0850   -8.1480 N.ar  245  HIS245     -0.2212
     34  N        -20.0840  -22.9670  -12.7610 N.3   248  ILE248     -0.1231
     35  CA       -19.8480  -23.8400  -11.6040 C.3   248  ILE248      0.1692
     36  C        -18.9980  -23.0980  -10.5400 C.2   248  ILE248      0.2592
     37  O        -19.1320  -23.3820   -9.3540 O.2   248  ILE248     -0.2718
     38  CB       -19.2580  -25.2180  -12.0180 C.3   248  ILE248      0.0266
     39  CG1      -20.3550  -26.0230  -12.7450 C.3   248  ILE248      0.0019
     40  CG2      -18.7020  -25.9590  -10.8270 C.3   248  ILE248      0.0020
     41  CD1      -19.8490  -27.2600  -13.4340 C.3   248  ILE248      0.0001
     42  N        -18.1850  -22.1140  -10.9590 N.am  249  ASP249     -0.1960
     43  CA       -17.3530  -21.3140  -10.0650 C.3   249  ASP249      0.1840
     44  C        -17.1100  -19.9370  -10.6920 C.2   249  ASP249      0.2623
     45  O        -17.3510  -19.7500  -11.8860 O.2   249  ASP249     -0.2715
     46  CB       -16.0140  -22.0460   -9.7940 C.3   249  ASP249      0.1450
     47  CG       -15.3740  -21.8080   -8.4330 C.2   249  ASP249      0.3671
     48  OD1      -15.8520  -20.9180   -7.6960 O.co2 249  ASP249     -0.2456
     49  OD2      -14.3560  -22.4810   -8.1260 O.co2 249  ASP249     -0.2456
     50  N        -16.6880  -18.9870   -9.8640 N.am  250  GLY250     -0.1940
     51  CA       -16.4000  -17.6130  -10.2760 C.3   250  GLY250      0.2014
     52  C        -17.6090  -16.7350  -10.5610 C.2   250  GLY250      0.2639
     53  O        -17.4820  -15.7380  -11.2750 O.2   250  GLY250     -0.2714
     54  N        -18.7800  -17.0730  -10.0170 N.am  251  ASN251     -0.1958
     55  CA       -20.0110  -16.2770  -10.2190 C.3   251  ASN251      0.1819
     56  C        -19.9950  -14.9270   -9.4920 C.2   251  ASN251      0.2622
     57  O        -20.4800  -13.9380  -10.0410 O.2   251  ASN251     -0.2715
     58  CB       -21.2510  -17.0450   -9.7600 C.3   251  ASN251      0.1195
     59  CG       -21.4650  -18.2990  -10.5500 C.2   251  ASN251      0.2630
     60  OD1      -21.9120  -18.2470  -11.6880 O.2   251  ASN251     -0.2716
     61  ND2      -21.0600  -19.4390  -10.0000 N.am  251  ASN251     -0.0877
     62  N        -19.5210  -14.9210   -8.2490 N.am  252  GLY252     -0.1940
     63  CA       -19.4350  -13.7120   -7.4370 C.3   252  GLY252      0.2014
     64  C        -18.4420  -12.7140   -7.9920 C.2   252  GLY252      0.2638
     65  O        -18.7360  -11.5210   -8.0810 O.2   252  GLY252     -0.2714
     66  N        -17.2810  -13.2180   -8.4090 N.am  253  ARG253     -0.1977
     67  CA       -16.2070  -12.4470   -9.0250 C.3   253  ARG253      0.1597
     68  C        -16.6600  -11.8550  -10.3560 C.2   253  ARG253      0.2287
     69  O        -16.4690  -10.6670  -10.5600 O.2   253  ARG253     -0.2864
     70  CB       -14.9610  -13.3190   -9.2150 C.3   253  ARG253      0.0334
     71  CG       -14.2910  -13.6980   -7.8860 C.3   253  ARG253      0.0492
     72  CD       -12.9700  -14.3950   -8.0900 C.3   253  ARG253      0.2205
     73  NE       -13.1470  -15.7780   -8.5540 N.pl3 253  ARG253     -0.0865
     74  CZ       -13.0910  -16.8730   -7.8010 C.cat 253  ARG253      0.5346
     75  NH1      -12.8470  -16.7840   -6.4930 N.pl3 253  ARG253      0.1354
     76  NH2      -13.2690  -18.0680   -8.3470 N.pl3 253  ARG253      0.1354
     77  N        -23.4280  -11.2880    2.3570 N.3   282  TYR282     -0.1241
     78  CA       -24.2550  -12.4970    2.2330 C.3   282  TYR282      0.1605
     79  C        -25.6110  -12.3520    2.9250 C.2   282  TYR282      0.2264
     80  O        -26.5660  -12.9890    2.4940 O.2   282  TYR282     -0.2867
     81  CB       -23.4980  -13.7760    2.6720 C.3   282  TYR282      0.0534
     82  CG       -22.3890  -14.1600    1.7080 C.ar  282  TYR282     -0.0201
     83  CD1      -22.6650  -14.4370    0.3700 C.ar  282  TYR282     -0.0009
     84  CD2      -21.0620  -14.2190    2.1240 C.ar  282  TYR282     -0.0009
     85  CE1      -21.6470  -14.7470   -0.5320 C.ar  282  TYR282      0.0417
     86  CE2      -20.0360  -14.5360    1.2330 C.ar  282  TYR282      0.0417
     87  CZ       -20.3310  -14.7950   -0.0980 C.ar  282  TYR282      0.1957
     88  OH       -19.3310  -15.1140   -0.9940 O.3   282  TYR282     -0.2866
@<TRIPOS>BOND
     1    41    39    1
     2    34    35    1
     3    39    38    1
     4    27    26    2
     5    26    25    1
     6    38    35    1
     7    38    40    1
     8    45    44    2
     9    60    59    2
    10    35    36    1
    11    24    25    1
    12    53    52    2
    13    25    28    1
    14    42    36   am
    15    42    43    1
    16    44    43    1
    17    44    50   am
    18    52    51    1
    19    52    54   am
    20    69    68    2
    21    59    61   am
    22    59    58    1
    23    36    37    2
    24    68    67    1
    25    51    50    1
    26    55    54    1
    27    55    58    1
    28    55    56    1
    29    43    46    1
    30    57    56    2
    31    28    29    1
    32    46    47    1
    33    17    18    1
    34    56    62   am
    35    31    29   ar
    36    31    33   ar
    37    70    67    1
    38    70    71    1
    39    67    66    1
    40    29    30   ar
    41    18    19    1
    42    18    21    1
    43    73    72    1
    44    73    74    2
    45    47    49   ar
    46    47    48   ar
    47    19    20    2
    48    66    64   am
    49    76    74    1
    50    62    63    1
    51    33    32   ar
    52    72    71    1
    53    65    64    2
    54    64    63    1
    55    30    32   ar
    56    74    75    1
    57    23    21    1
    58    21    22    1
    59    16    14    1
    60     8     7   ar
    61    14    15    1
    62    14    11    1
    63     7     6    1
    64     7     9   ar
    65     6     5    1
    66    10    11    1
    67    11    12    1
    68     5     2    1
    69    13    12    2
    70     2     1    1
    71     2     3    1
    72    88    87    1
    73     4     3    2
    74    85    87   ar
    75    85    83   ar
    76    87    86   ar
    77    83    82   ar
    78    86    84   ar
    79    82    84   ar
    80    82    81    1
    81    78    77    1
    82    78    81    1
    83    78    79    1
    84    80    79    2
