@<TRIPOS>MOLECULE
tmp/4u07B00.pdb
 220 216 0 0 0
SMALL
GASTEIGER

@<TRIPOS>ATOM
      1  N        -35.8720 -104.5380  109.3000 N.3   120  THR120     -0.1218
      2  CA       -35.0060 -103.8040  110.2400 C.3   120  THR120      0.1862
      3  C        -35.0050 -102.2630  110.0110 C.2   120  THR120      0.2287
      4  O        -34.8900 -101.5260  110.9940 O.2   120  THR120     -0.2866
      5  CB       -33.6030 -104.4150  110.2970 C.3   120  THR120      0.1770
      6  OG1      -32.9740 -104.0480  111.5450 O.3   120  THR120     -0.2211
      7  CG2      -32.7250 -104.0230  109.0690 C.3   120  THR120      0.0375
      8  N        -39.0280 -100.9340  110.5100 N.3   123  ILE123     -0.1231
      9  CA       -39.4400 -100.9070  111.9100 C.3   123  ILE123      0.1692
     10  C        -39.1510  -99.5490  112.5700 C.2   123  ILE123      0.2591
     11  O        -39.8020  -99.2240  113.5520 O.2   123  ILE123     -0.2718
     12  CB       -38.9180 -102.1610  112.6820 C.3   123  ILE123      0.0266
     13  CG1      -39.7360 -102.4440  113.9320 C.3   123  ILE123      0.0019
     14  CG2      -37.4610 -102.0820  113.0130 C.3   123  ILE123      0.0020
     15  CD1      -39.8540 -103.8940  114.1740 C.3   123  ILE123      0.0001
     16  N        -38.2450  -98.7540  111.9820 N.am  124  GLU124     -0.1979
     17  CA       -37.9490  -97.3850  112.4100 C.3   124  GLU124      0.1602
     18  C        -38.5540  -96.2590  111.5780 C.2   124  GLU124      0.2287
     19  O        -38.2040  -95.1020  111.8030 O.2   124  GLU124     -0.2864
     20  CB       -36.4190  -97.1030  112.4460 C.3   124  GLU124      0.0415
     21  CG       -35.6340  -98.0470  113.3860 C.3   124  GLU124      0.1163
     22  CD       -34.2030  -97.6030  113.7440 C.2   124  GLU124      0.3649
     23  OE1      -33.6430  -96.6910  113.1260 O.co2 124  GLU124     -0.2457
     24  OE2      -33.6410  -98.1630  114.6860 O.co2 124  GLU124     -0.2457
     25  N        -35.8460  -92.7040  125.3400 N.3   206  VAL206     -0.1231
     26  CA       -36.3110  -93.8260  124.4960 C.3   206  VAL206      0.1692
     27  C        -37.6830  -94.1900  125.0430 C.2   206  VAL206      0.2593
     28  O        -37.7560  -94.8400  126.0860 O.2   206  VAL206     -0.2718
     29  CB       -35.3710  -95.0510  124.5850 C.3   206  VAL206      0.0266
     30  CG1      -35.6880  -96.0340  123.4750 C.3   206  VAL206      0.0020
     31  CG2      -33.9110  -94.6360  124.5260 C.3   206  VAL206      0.0020
     32  N        -38.7500  -93.7100  124.3910 N.am  207  GLY207     -0.1942
     33  CA       -40.1190  -93.9000  124.8800 C.3   207  GLY207      0.2014
     34  C        -40.2710  -93.1970  126.2200 C.2   207  GLY207      0.2639
     35  O        -40.3100  -91.9630  126.2660 O.2   207  GLY207     -0.2714
     36  N        -40.2530  -93.9810  127.3170 N.am  208  HIS208     -0.1959
     37  CA       -40.2630  -93.5050  128.7100 C.3   208  HIS208      0.1787
     38  C        -38.9870  -93.9090  129.4630 C.2   208  HIS208      0.2620
     39  O        -38.9190  -93.6950  130.6740 O.2   208  HIS208     -0.2715
     40  CB       -41.4570  -94.0970  129.4630 C.3   208  HIS208      0.0785
     41  CG       -42.7730  -93.5770  129.0130 C.ar  208  HIS208      0.0821
     42  ND1      -43.3750  -92.5240  129.6530 N.ar  208  HIS208     -0.2267
     43  CD2      -43.5760  -94.0030  128.0090 C.ar  208  HIS208      0.1154
     44  CE1      -44.5280  -92.3270  129.0230 C.ar  208  HIS208      0.1986
     45  NE2      -44.6930  -93.2000  128.0280 N.ar  208  HIS208     -0.2212
     46  N        -38.0060  -94.5320  128.7660 N.am  209  HIS209     -0.1973
     47  CA       -36.7540  -94.9790  129.3600 C.3   209  HIS209      0.1656
     48  C        -35.6850  -93.9040  129.1550 C.2   209  HIS209      0.2291
     49  O        -35.5090  -93.3930  128.0550 O.2   209  HIS209     -0.2864
     50  CB       -36.3170  -96.3270  128.7500 C.3   209  HIS209      0.0771
     51  CG       -34.9430  -96.7940  129.1340 C.ar  209  HIS209      0.0820
     52  ND1      -33.9410  -96.7820  128.2040 N.ar  209  HIS209     -0.2267
     53  CD2      -34.4380  -97.2850  130.2950 C.ar  209  HIS209      0.1154
     54  CE1      -32.8530  -97.1870  128.8280 C.ar  209  HIS209      0.1986
     55  NE2      -33.0970  -97.5280  130.0690 N.ar  209  HIS209     -0.2212
     56  N        -29.8590 -108.2830  123.3380 N.3   246  HIS246     -0.1226
     57  CA       -30.5750 -107.2140  122.6340 C.3   246  HIS246      0.1752
     58  C        -31.0410 -106.2170  123.6530 C.2   246  HIS246      0.2596
     59  O        -30.7250 -105.0360  123.5430 O.2   246  HIS246     -0.2718
     60  CB       -31.7880 -107.7940  121.8730 C.3   246  HIS246      0.0759
     61  CG       -32.6140 -106.8510  121.0380 C.ar  246  HIS246      0.0818
     62  ND1      -33.2640 -107.3120  119.9060 N.ar  246  HIS246     -0.2268
     63  CD2      -33.0010 -105.5740  121.2540 C.ar  246  HIS246      0.1154
     64  CE1      -33.9830 -106.3120  119.4540 C.ar  246  HIS246      0.1986
     65  NE2      -33.8240 -105.2270  120.2080 N.ar  246  HIS246     -0.2212
     66  N        -31.7780 -106.6840  124.6450 N.am  247  TYR247     -0.1976
     67  CA       -32.3340 -105.8200  125.6760 C.3   247  TYR247      0.1639
     68  C        -31.2640 -105.0300  126.4440 C.2   247  TYR247      0.2290
     69  O        -31.4310 -103.8340  126.6590 O.2   247  TYR247     -0.2864
     70  CB       -33.2300 -106.6120  126.6310 C.3   247  TYR247      0.0560
     71  CG       -33.7900 -105.7330  127.7160 C.ar  247  TYR247     -0.0198
     72  CD1      -34.7230 -104.7460  127.4230 C.ar  247  TYR247     -0.0009
     73  CD2      -33.2840 -105.7870  129.0110 C.ar  247  TYR247     -0.0009
     74  CE1      -35.1640 -103.8540  128.4030 C.ar  247  TYR247      0.0417
     75  CE2      -33.7020 -104.8950  129.9900 C.ar  247  TYR247      0.0417
     76  CZ       -34.6380 -103.9270  129.6820 C.ar  247  TYR247      0.1957
     77  OH       -35.0880 -103.0910  130.6620 O.3   247  TYR247     -0.2866
     78  N        -29.9340 -102.2010  124.0690 N.3   250  VAL250     -0.1231
     79  CA       -30.9880 -101.2600  123.7760 C.3   250  VAL250      0.1692
     80  C        -31.3410 -100.4890  125.0870 C.2   250  VAL250      0.2592
     81  O        -31.7550  -99.3270  125.0460 O.2   250  VAL250     -0.2718
     82  CB       -32.1350 -102.0250  123.0460 C.3   250  VAL250      0.0266
     83  CG1      -33.3120 -102.3740  123.9460 C.3   250  VAL250      0.0020
     84  CG2      -32.5900 -101.2960  121.8140 C.3   250  VAL250      0.0020
     85  N        -31.0420 -101.0960  126.2470 N.am  251  TYR251     -0.1976
     86  CA       -31.1680 -100.4390  127.5430 C.3   251  TYR251      0.1639
     87  C        -30.0290  -99.4300  127.6230 C.2   251  TYR251      0.2290
     88  O        -30.2720  -98.2560  127.8040 O.2   251  TYR251     -0.2864
     89  CB       -31.0480 -101.4560  128.7050 C.3   251  TYR251      0.0560
     90  CG       -31.3460 -100.8730  130.0630 C.ar  251  TYR251     -0.0198
     91  CD1      -32.6550 -100.7010  130.4960 C.ar  251  TYR251     -0.0009
     92  CD2      -30.3220 -100.5330  130.9370 C.ar  251  TYR251     -0.0009
     93  CE1      -32.9390 -100.2250  131.7740 C.ar  251  TYR251      0.0417
     94  CE2      -30.5930 -100.0150  132.2040 C.ar  251  TYR251      0.0417
     95  CZ       -31.9060  -99.8570  132.6160 C.ar  251  TYR251      0.1957
     96  OH       -32.2070  -99.3320  133.8510 O.3   251  TYR251     -0.2866
     97  N        -28.3210  -98.1240  125.2930 N.3   253  HIS253     -0.1241
     98  CA       -28.5370  -97.1410  124.2380 C.3   253  HIS253      0.1621
     99  C        -27.2480  -96.3310  124.0590 C.2   253  HIS253      0.2264
    100  O        -27.2230  -95.1460  124.3570 O.2   253  HIS253     -0.2867
    101  CB       -29.7320  -96.2500  124.6140 C.3   253  HIS253      0.0745
    102  CG       -30.6390  -95.9360  123.4800 C.ar  253  HIS253      0.0817
    103  ND1      -31.6470  -96.8160  123.1040 N.ar  253  HIS253     -0.2268
    104  CD2      -30.6950  -94.8320  122.6960 C.ar  253  HIS253      0.1154
    105  CE1      -32.2990  -96.2170  122.1170 C.ar  253  HIS253      0.1986
    106  NE2      -31.7590  -95.0150  121.8310 N.ar  253  HIS253     -0.2212
    107  N        -26.3830  -92.4500  119.3370 N.3   256  ILE256     -0.1231
    108  CA       -27.4600  -91.4750  119.1160 C.3   256  ILE256      0.1692
    109  C        -28.5750  -92.1030  118.2950 C.2   256  ILE256      0.2592
    110  O        -29.7580  -91.9060  118.6160 O.2   256  ILE256     -0.2718
    111  CB       -26.9280  -90.1200  118.5270 C.3   256  ILE256      0.0266
    112  CG1      -26.2520  -89.3050  119.6310 C.3   256  ILE256      0.0019
    113  CG2      -28.0590  -89.2680  117.9120 C.3   256  ILE256      0.0020
    114  CD1      -27.3340  -88.6440  120.7360 C.3   256  ILE256      0.0001
    115  N        -28.2020  -92.8620  117.2620 N.am  257  ASP257     -0.1960
    116  CA       -29.1520  -93.5700  116.4080 C.3   257  ASP257      0.1840
    117  C        -28.5470  -94.9320  116.0330 C.2   257  ASP257      0.2623
    118  O        -27.3650  -95.1750  116.3090 O.2   257  ASP257     -0.2715
    119  CB       -29.4940  -92.6950  115.1800 C.3   257  ASP257      0.1450
    120  CG       -30.8290  -92.9390  114.5040 C.2   257  ASP257      0.3671
    121  OD1      -31.7180  -93.5800  115.1280 O.co2 257  ASP257     -0.2456
    122  OD2      -30.9950  -92.4820  113.3580 O.co2 257  ASP257     -0.2456
    123  N        -29.3900  -95.8320  115.5240 N.am  258  GLY258     -0.1940
    124  CA       -28.9860  -97.1800  115.1230 C.3   258  GLY258      0.2014
    125  C        -28.7550  -98.1990  116.2260 C.2   258  GLY258      0.2639
    126  O        -27.9690  -99.1270  116.0320 O.2   258  GLY258     -0.2714
    127  N        -29.4250  -98.0470  117.3740 N.am  259  ASN259     -0.1958
    128  CA       -29.3190  -98.9400  118.5430 C.3   259  ASN259      0.1819
    129  C        -30.1570 -100.1950  118.3870 C.2   259  ASN259      0.2622
    130  O        -29.7480 -101.2410  118.8500 O.2   259  ASN259     -0.2715
    131  CB       -29.7750  -98.2470  119.8220 C.3   259  ASN259      0.1195
    132  CG       -28.9510  -97.0590  120.1750 C.2   259  ASN259      0.2630
    133  OD1      -27.8720  -97.1680  120.7690 O.2   259  ASN259     -0.2716
    134  ND2      -29.4340  -95.9040  119.8030 N.am  259  ASN259     -0.0877
    135  N        -31.3530 -100.0570  117.8500 N.am  260  GLY260     -0.1940
    136  CA       -32.2260 -101.1860  117.5650 C.3   260  GLY260      0.2014
    137  C        -31.6780 -102.0010  116.4100 C.2   260  GLY260      0.2638
    138  O        -31.6140 -103.2280  116.4920 O.2   260  GLY260     -0.2714
    139  N        -31.2250 -101.3260  115.3460 N.am  261  ARG261     -0.1977
    140  CA       -30.5760 -101.9940  114.2250 C.3   261  ARG261      0.1597
    141  C        -29.3190 -102.7560  114.6510 C.2   261  ARG261      0.2287
    142  O        -29.1540 -103.8850  114.2010 O.2   261  ARG261     -0.2864
    143  CB       -30.2190 -101.0110  113.1240 C.3   261  ARG261      0.0334
    144  CG       -31.3760 -100.7270  112.1910 C.3   261  ARG261      0.0492
    145  CD       -31.0030  -99.6060  111.2600 C.3   261  ARG261      0.2205
    146  NE       -31.1520  -98.3140  111.9220 N.pl3 261  ARG261     -0.0865
    147  CZ       -30.6780  -97.1630  111.4820 C.cat 261  ARG261      0.5346
    148  NH1      -29.9760  -97.1080  110.3530 N.pl3 261  ARG261      0.1354
    149  NH2      -30.9040  -96.0510  112.1560 N.pl3 261  ARG261      0.1354
    150  N        -30.4380 -105.7390  116.9910 N.3   264  ARG264     -0.1245
    151  CA       -31.0640 -106.7870  116.1740 C.3   264  ARG264      0.1563
    152  C        -30.0030 -107.5680  115.3770 C.2   264  ARG264      0.2260
    153  O        -30.1960 -108.7500  115.1510 O.2   264  ARG264     -0.2867
    154  CB       -32.1800 -106.2190  115.2630 C.3   264  ARG264      0.0307
    155  CG       -33.4440 -105.8360  116.0380 C.3   264  ARG264      0.0489
    156  CD       -34.6160 -105.3560  115.1650 C.3   264  ARG264      0.2205
    157  NE       -34.3150 -104.1930  114.3370 N.pl3 264  ARG264     -0.0865
    158  CZ       -34.5770 -102.9200  114.6300 C.cat 264  ARG264      0.5346
    159  NH1      -35.1630 -102.5990  115.7720 N.pl3 264  ARG264      0.1354
    160  NH2      -34.2470 -101.9560  113.7800 N.pl3 264  ARG264      0.1354
    161  N        -43.8660 -103.7430  115.5350 N.3   286  ARG286     -0.1245
    162  CA       -43.3050 -102.5980  116.2870 C.3   286  ARG286      0.1563
    163  C        -44.0740 -102.3280  117.5860 C.2   286  ARG286      0.2260
    164  O        -43.4570 -102.1390  118.6320 O.2   286  ARG286     -0.2867
    165  CB       -43.2610 -101.2900  115.4460 C.3   286  ARG286      0.0307
    166  CG       -42.5030 -100.1550  116.1380 C.3   286  ARG286      0.0489
    167  CD       -42.6430  -98.8860  115.3500 C.3   286  ARG286      0.2205
    168  NE       -42.0030  -97.7920  116.0970 N.pl3 286  ARG286     -0.0865
    169  CZ       -42.1990  -96.5170  115.7770 C.cat 286  ARG286      0.5346
    170  NH1      -43.0240  -96.1810  114.7970 N.pl3 286  ARG286      0.1354
    171  NH2      -41.5280  -95.6060  116.4950 N.pl3 286  ARG286      0.1354
    172  N        -43.2880 -105.2690  120.0220 N.3   289  TYR289     -0.1227
    173  CA       -41.8540 -105.1400  120.2440 C.3   289  TYR289      0.1736
    174  C        -41.5630 -104.0460  121.2770 C.2   289  TYR289      0.2595
    175  O        -40.8690 -104.2900  122.2680 O.2   289  TYR289     -0.2718
    176  CB       -41.1950 -104.8360  118.8910 C.3   289  TYR289      0.0548
    177  CG       -39.7080 -104.5910  118.8850 C.ar  289  TYR289     -0.0200
    178  CD1      -38.8280 -105.5040  119.4620 C.ar  289  TYR289     -0.0009
    179  CD2      -39.1640 -103.5450  118.1500 C.ar  289  TYR289     -0.0009
    180  CE1      -37.4480 -105.3170  119.4010 C.ar  289  TYR289      0.0417
    181  CE2      -37.7870 -103.3620  118.0550 C.ar  289  TYR289      0.0417
    182  CZ       -36.9280 -104.2680  118.6540 C.ar  289  TYR289      0.1957
    183  OH       -35.5750 -104.0460  118.5470 O.3   289  TYR289     -0.2866
    184  N        -42.1720 -102.8750  121.1000 N.am  290  TYR290     -0.1976
    185  CA       -41.9460 -101.7780  122.0250 C.3   290  TYR290      0.1639
    186  C        -42.6310 -102.0600  123.3670 C.2   290  TYR290      0.2290
    187  O        -42.0300 -101.7850  124.4060 O.2   290  TYR290     -0.2864
    188  CB       -42.3730 -100.4260  121.4110 C.3   290  TYR290      0.0560
    189  CG       -41.3510  -99.7680  120.4970 C.ar  290  TYR290     -0.0198
    190  CD1      -40.7440 -100.4780  119.4670 C.ar  290  TYR290     -0.0009
    191  CD2      -41.0630  -98.4120  120.6040 C.ar  290  TYR290     -0.0009
    192  CE1      -39.8500  -99.8630  118.5910 C.ar  290  TYR290      0.0417
    193  CE2      -40.1670  -97.7900  119.7410 C.ar  290  TYR290      0.0417
    194  CZ       -39.5620  -98.5170  118.7340 C.ar  290  TYR290      0.1957
    195  OH       -38.6630  -97.8740  117.9180 O.3   290  TYR290     -0.2866
    196  N        -40.4410 -104.4800  125.3850 N.3   293  LEU293     -0.1231
    197  CA       -39.1890 -103.8200  125.8030 C.3   293  LEU293      0.1693
    198  C        -39.5330 -102.9130  127.0000 C.2   293  LEU293      0.2591
    199  O        -38.7720 -102.8730  127.9730 O.2   293  LEU293     -0.2718
    200  CB       -38.5630 -102.9830  124.6800 C.3   293  LEU293      0.0284
    201  CG       -37.9600 -103.7730  123.5570 C.3   293  LEU293      0.0019
    202  CD1      -37.8110 -102.9160  122.3570 C.3   293  LEU293      0.0001
    203  CD2      -36.6320 -104.3700  123.9660 C.3   293  LEU293      0.0001
    204  N        -40.7010 -102.2130  126.9430 N.am  294  GLU294     -0.1979
    205  CA       -41.1710 -101.3970  128.0670 C.3   294  GLU294      0.1602
    206  C        -41.4150 -102.3260  129.2750 C.2   294  GLU294      0.2287
    207  O        -40.8390 -102.0920  130.3360 O.2   294  GLU294     -0.2864
    208  CB       -42.4480 -100.6060  127.7060 C.3   294  GLU294      0.0415
    209  CG       -42.7040  -99.3980  128.6070 C.3   294  GLU294      0.1163
    210  CD       -43.2560  -98.1650  127.9130 C.2   294  GLU294      0.3649
    211  OE1      -44.5000  -98.0290  127.8500 O.co2 294  GLU294     -0.2457
    212  OE2      -42.4450  -97.3200  127.4650 O.co2 294  GLU294     -0.2457
    213  N        -38.4360 -103.0410  131.1520 N.3   297  ASN297     -0.1240
    214  CA       -37.9630 -101.9020  131.9550 C.3   297  ASN297      0.1653
    215  C        -38.7140 -101.9000  133.2820 C.2   297  ASN297      0.2266
    216  O        -38.0980 -101.7960  134.3470 O.2   297  ASN297     -0.2867
    217  CB       -38.1620 -100.5680  131.2220 C.3   297  ASN297      0.1155
    218  CG       -37.4240 -100.4970  129.9150 C.2   297  ASN297      0.2627
    219  OD1      -37.9870 -100.0660  128.9080 O.2   297  ASN297     -0.2716
    220  ND2      -36.1150 -100.5650  129.9750 N.am  297  ASN297     -0.0877
@<TRIPOS>BOND
     1     7     5    1
     2     1     2    1
     3     3     2    1
     4     3     4    2
     5     2     5    1
     6     5     6    1
     7   148   147    1
     8     8     9    1
     9   145   146    1
    10   145   144    1
    11   147   146    2
    12   147   149    1
    13    18    19    2
    14    18    17    1
    15     9    10    1
    16     9    12    1
    17    16    17    1
    18    16    10   am
    19   144   143    1
    20    17    20    1
    21    20    21    1
    22    10    11    2
    23    12    14    1
    24    12    13    1
    25   143   140    1
    26    23    22   ar
    27   122   120   ar
    28    21    22    1
    29    22    24   ar
    30   160   158    1
    31    13    15    1
    32   142   141    2
    33   140   141    1
    34   140   139    1
    35   157   158    2
    36   157   156    1
    37   120   121   ar
    38   120   119    1
    39   158   159    1
    40   170   169    1
    41   124   123    1
    42   124   125    1
    43   153   152    2
    44   156   155    1
    45   119   116    1
    46   154   155    1
    47   154   151    1
    48   139   137   am
    49   167   168    1
    50   167   166    1
    51   152   151    1
    52   165   166    1
    53   165   162    1
    54   123   117   am
    55   161   162    1
    56   169   168    2
    57   169   171    1
    58   126   125    2
    59   117   118    2
    60   117   116    1
    61   151   150    1
    62   125   127   am
    63   162   163    1
    64   116   115    1
    65   137   138    2
    66   137   136    1
    67   115   109   am
    68   127   128    1
    69   136   135    1
    70   163   164    2
    71   135   129   am
    72   113   111    1
    73   195   194    1
    74   181   179   ar
    75   181   182   ar
    76   179   177   ar
    77   109   110    2
    78   109   108    1
    79   129   128    1
    80   129   130    2
    81   111   108    1
    82   111   112    1
    83   128   131    1
    84   183   182    1
    85   192   194   ar
    86   192   190   ar
    87   182   180   ar
    88   194   193   ar
    89   177   176    1
    90   177   178   ar
    91   176   173    1
    92   108   107    1
    93   180   178   ar
    94    64    62   ar
    95    64    65   ar
    96   190   189   ar
    97   112   114    1
    98   193   191   ar
    99   134   132   am
   100   131   132    1
   101    62    61   ar
   102   172   173    1
   103   132   133    2
   104    65    63   ar
   105   173   174    1
   106   189   191   ar
   107   189   188    1
   108    61    63   ar
   109    61    60    1
   110   184   174   am
   111   184   185    1
   112   174   175    2
   113   188   185    1
   114    84    82    1
   115   106   105   ar
   116   106   104   ar
   117    60    57    1
   118   185   186    1
   119   105   103   ar
   120   202   201    1
   121    57    56    1
   122    57    58    1
   123   104   102   ar
   124    82    79    1
   125    82    83    1
   126   103   102   ar
   127   186   187    2
   128    30    29    1
   129   102   101    1
   130    59    58    2
   131   201   203    1
   132   201   200    1
   133    58    66   am
   134    79    78    1
   135    79    80    1
   136    99    98    1
   137    99   100    2
   138    98   101    1
   139    98    97    1
   140    32    33    1
   141    32    27   am
   142    26    29    1
   143    26    27    1
   144    26    25    1
   145    31    29    1
   146    66    67    1
   147   200   197    1
   148    33    34    1
   149    27    28    2
   150    81    80    2
   151    80    85   am
   152   196   197    1
   153    67    68    1
   154    67    70    1
   155   197   198    1
   156    34    35    2
   157    34    36   am
   158    85    86    1
   159    68    69    2
   160    70    71    1
   161   204   198   am
   162   204   205    1
   163   198   199    2
   164    36    37    1
   165    72    71   ar
   166    72    74   ar
   167   212   210   ar
   168    86    87    1
   169    86    89    1
   170    87    88    2
   171   208   205    1
   172   208   209    1
   173    71    73   ar
   174   211   210   ar
   175   210   209    1
   176    43    45   ar
   177    43    41   ar
   178    45    44   ar
   179    49    48    2
   180   205   206    1
   181    52    54   ar
   182    52    51   ar
   183    74    76   ar
   184    89    90    1
   185    37    38    1
   186    37    40    1
   187    50    51    1
   188    50    47    1
   189    46    47    1
   190    46    38   am
   191    54    55   ar
   192   219   218    2
   193    73    75   ar
   194    41    40    1
   195    41    42   ar
   196    44    42   ar
   197    51    53   ar
   198    48    47    1
   199   206   207    2
   200    38    39    2
   201    76    75   ar
   202    76    77    1
   203   218   220   am
   204   218   217    1
   205    90    91   ar
   206    90    92   ar
   207    55    53   ar
   208    91    93   ar
   209    92    94   ar
   210   213   214    1
   211   217   214    1
   212    93    95   ar
   213   214   215    1
   214    94    95   ar
   215    95    96    1
   216   215   216    2
