@<TRIPOS>MOLECULE
tmp/4u0bG00.pdb
 141 132 0 0 0
SMALL
GASTEIGER

@<TRIPOS>ATOM
      1  N        -58.0180   72.6940   50.6840 N.3    53  ASN53      -0.1240
      2  CA       -58.1700   73.5560   51.8550 C.3    53  ASN53       0.1653
      3  C        -57.8670   75.0230   51.5380 C.2    53  ASN53       0.2266
      4  O        -58.5360   75.9200   52.0440 O.2    53  ASN53      -0.2867
      5  CB       -57.2830   73.0660   53.0060 C.3    53  ASN53       0.1155
      6  CG       -57.7410   71.7320   53.5740 C.2    53  ASN53       0.2627
      7  OD1      -58.9290   71.4030   53.5510 O.2    53  ASN53      -0.2716
      8  ND2      -56.7990   70.9570   54.0940 N.am   53  ASN53      -0.0877
      9  N        -60.8340   76.5250   49.5310 N.3    56  LEU56      -0.1231
     10  CA       -61.9820   76.7540   50.4090 C.3    56  LEU56       0.1693
     11  C        -61.7190   77.8960   51.3940 C.2    56  LEU56       0.2592
     12  O        -62.6200   78.6770   51.6970 O.2    56  LEU56      -0.2718
     13  CB       -62.3510   75.4730   51.1670 C.3    56  LEU56       0.0284
     14  CG       -62.8700   74.2850   50.3440 C.3    56  LEU56       0.0019
     15  CD1      -63.0360   73.0640   51.2360 C.3    56  LEU56       0.0001
     16  CD2      -64.1810   74.5940   49.6360 C.3    56  LEU56       0.0001
     17  N        -60.4860   77.9930   51.8880 N.am   57  ASN57      -0.1974
     18  CA       -60.1100   79.0680   52.8100 C.3    57  ASN57       0.1688
     19  C        -60.0620   80.4480   52.1520 C.2    57  ASN57       0.2292
     20  O        -60.2720   81.4580   52.8260 O.2    57  ASN57      -0.2864
     21  CB       -58.7690   78.7640   53.4840 C.3    57  ASN57       0.1181
     22  CG       -58.8810   77.6940   54.5600 C.2    57  ASN57       0.2629
     23  OD1      -59.8610   77.6430   55.3020 O.2    57  ASN57      -0.2716
     24  ND2      -57.8640   76.8440   54.6600 N.am   57  ASN57      -0.0877
     25  N        -69.8800   77.3340   54.2380 N.3    66  MET66      -0.1230
     26  CA       -68.5960   76.7290   54.6070 C.3    66  MET66       0.1702
     27  C        -68.6810   75.9440   55.9180 C.2    66  MET66       0.2592
     28  O        -67.9420   74.9840   56.0970 O.2    66  MET66      -0.2718
     29  CB       -67.4820   77.7800   54.7060 C.3    66  MET66       0.0401
     30  CG       -67.2450   78.6010   53.4430 C.3    66  MET66       0.0596
     31  SD       -67.0880   77.6400   51.9240 S.3    66  MET66      -0.1393
     32  CE       -65.4890   76.8940   52.1700 C.3    66  MET66       0.0692
     33  N        -69.5690   76.3420   56.8290 N.am   67  GLN67      -0.1979
     34  CA       -69.7720   75.5820   58.0630 C.3    67  GLN67       0.1601
     35  C        -70.5140   74.2810   57.7910 C.2    67  GLN67       0.2287
     36  O        -70.1640   73.2410   58.3470 O.2    67  GLN67      -0.2864
     37  CB       -70.5320   76.4000   59.1040 C.3    67  GLN67       0.0394
     38  CG       -70.7730   75.6590   60.4150 C.3    67  GLN67       0.0908
     39  CD       -69.4920   75.1500   61.0600 C.2    67  GLN67       0.2608
     40  OE1      -68.4540   75.8190   61.0330 O.2    67  GLN67      -0.2717
     41  NE2      -69.5600   73.9620   61.6500 N.am   67  GLN67      -0.0878
     42  N        -70.3480   72.7030   55.0530 N.3    69  LEU69      -0.1231
     43  CA       -69.3450   71.9030   54.3660 C.3    69  LEU69       0.1693
     44  C        -68.4470   71.1780   55.3700 C.2    69  LEU69       0.2592
     45  O        -68.1490   69.9950   55.2010 O.2    69  LEU69      -0.2718
     46  CB       -68.5150   72.7980   53.4430 C.3    69  LEU69       0.0284
     47  CG       -67.5780   72.1210   52.4440 C.3    69  LEU69       0.0019
     48  CD1      -68.3480   71.1800   51.5340 C.3    69  LEU69       0.0001
     49  CD2      -66.8450   73.1750   51.6290 C.3    69  LEU69       0.0001
     50  N        -68.0360   71.8890   56.4190 N.am   70  LYS70      -0.1966
     51  CA       -67.2250   71.3050   57.4910 C.3    70  LYS70       0.1728
     52  C        -67.9390   70.1360   58.1790 C.2    70  LYS70       0.2616
     53  O        -67.3270   69.1050   58.4550 O.2    70  LYS70      -0.2715
     54  CB       -66.8600   72.3650   58.5360 C.3    70  LYS70       0.0311
     55  CG       -65.8650   73.4150   58.0680 C.3    70  LYS70       0.0038
     56  CD       -65.6980   74.4960   59.1270 C.3    70  LYS70       0.0206
     57  CE       -64.7470   75.6040   58.6980 C.3    70  LYS70       0.1093
     58  NZ       -65.3410   76.5530   57.7200 N.3    70  LYS70      -0.1314
     59  N        -69.2290   70.3050   58.4540 N.am   71  GLU71      -0.1977
     60  CA       -70.0300   69.2540   59.0900 C.3    71  GLU71       0.1602
     61  C        -70.1730   68.0150   58.2050 C.2    71  GLU71       0.2287
     62  O        -70.2130   66.8960   58.7090 O.2    71  GLU71      -0.2864
     63  CB       -71.4180   69.7810   59.4640 C.3    71  GLU71       0.0415
     64  CG       -71.4210   70.7830   60.6090 C.3    71  GLU71       0.1163
     65  CD       -72.8190   71.2440   60.9910 C.2    71  GLU71       0.3649
     66  OE1      -73.8020   70.8080   60.3440 O.co2  71  GLU71      -0.2457
     67  OE2      -72.9370   72.0490   61.9430 O.co2  71  GLU71      -0.2457
     68  N        -67.8700   67.0910   55.9160 N.3    73  ILE73      -0.1231
     69  CA       -66.5390   66.4810   55.9560 C.3    73  ILE73       0.1692
     70  C        -66.3750   65.6240   57.2150 C.2    73  ILE73       0.2592
     71  O        -65.8260   64.5230   57.1520 O.2    73  ILE73      -0.2718
     72  CB       -65.4200   67.5510   55.8800 C.3    73  ILE73       0.0266
     73  CG1      -65.3930   68.1910   54.4860 C.3    73  ILE73       0.0019
     74  CG2      -64.0550   66.9430   56.1830 C.3    73  ILE73       0.0020
     75  CD1      -64.6670   69.5190   54.4290 C.3    73  ILE73       0.0001
     76  N        -66.8570   66.1300   58.3480 N.am   74  ASN74      -0.1974
     77  CA       -66.8100   65.3890   59.6100 C.3    74  ASN74       0.1688
     78  C        -67.5680   64.0680   59.5390 C.2    74  ASN74       0.2292
     79  O        -67.1090   63.0560   60.0710 O.2    74  ASN74      -0.2864
     80  CB       -67.3800   66.2320   60.7550 C.3    74  ASN74       0.1181
     81  CG       -66.4880   67.4010   61.1270 C.2    74  ASN74       0.2629
     82  OD1      -65.2790   67.3760   60.9010 O.2    74  ASN74      -0.2716
     83  ND2      -67.0820   68.4320   61.7120 N.am   74  ASN74      -0.0877
     84  N        -65.6120   61.7220   57.1320 N.3    77  ALA77      -0.1245
     85  CA       -64.3610   61.3240   57.7810 C.3    77  ALA77       0.1562
     86  C        -64.6060   60.2910   58.8820 C.2    77  ALA77       0.2260
     87  O        -63.8380   59.3390   59.0320 O.2    77  ALA77      -0.2867
     88  CB       -63.6550   62.5440   58.3510 C.3    77  ALA77       0.0290
     89  N        -63.2480   56.4640   58.9960 N.3    81  ASP81      -0.1239
     90  CA       -62.5870   55.8980   60.1750 C.3    81  ASP81       0.1674
     91  C        -63.2630   54.6150   60.6560 C.2    81  ASP81       0.2266
     92  O        -62.6000   53.7210   61.1860 O.2    81  ASP81      -0.2867
     93  CB       -62.5420   56.9200   61.3190 C.3    81  ASP81       0.1410
     94  CG       -61.6090   58.0840   61.0320 C.2    81  ASP81       0.3668
     95  OD1      -60.7180   57.9530   60.1640 O.co2  81  ASP81      -0.2456
     96  OD2      -61.7630   59.1370   61.6840 O.co2  81  ASP81      -0.2456
     97  N        -59.3030   59.7110   58.5190 N.3    88  GLY88      -0.1210
     98  CA       -60.1890   60.7360   57.9660 C.3    88  GLY88       0.1956
     99  C        -59.5870   62.1270   58.0410 C.2    88  GLY88       0.2612
    100  O        -59.7280   62.9250   57.1130 O.2    88  GLY88      -0.2717
    101  N        -58.9090   62.4110   59.1500 N.am   89  SER89      -0.1952
    102  CA       -58.2380   63.6910   59.3510 C.3    89  SER89       0.1924
    103  C        -57.0230   63.8610   58.4330 C.2    89  SER89       0.2314
    104  O        -56.6770   64.9820   58.0650 O.2    89  SER89      -0.2863
    105  CB       -57.8120   63.8360   60.8140 C.3    89  SER89       0.2116
    106  OG       -56.9290   62.7950   61.1970 O.3    89  SER89      -0.2180
    107  N        -58.5760   64.8570   55.0560 N.3    92  ALA92      -0.1231
    108  CA       -59.0190   66.2510   55.1040 C.3    92  ALA92       0.1694
    109  C        -57.8540   67.2360   55.1910 C.2    92  ALA92       0.2593
    110  O        -58.0380   68.4380   54.9890 O.2    92  ALA92      -0.2718
    111  CB       -59.9700   66.4620   56.2700 C.3    92  ALA92       0.0304
    112  N        -56.6650   66.7300   55.5110 N.am   93  GLY93      -0.1942
    113  CA       -55.4480   67.5340   55.4910 C.3    93  GLY93       0.2014
    114  C        -55.1410   68.2540   56.7890 C.2    93  GLY93       0.2640
    115  O        -54.2520   69.1020   56.8210 O.2    93  GLY93      -0.2714
    116  N        -55.8630   67.9190   57.8580 N.am   94  THR94      -0.1936
    117  CA       -55.6400   68.5320   59.1680 C.3    94  THR94       0.2028
    118  C        -54.4630   67.8980   59.9020 C.2    94  THR94       0.2642
    119  O        -53.6640   68.6060   60.5100 O.2    94  THR94      -0.2714
    120  CB       -56.8830   68.4270   60.0710 C.3    94  THR94       0.1808
    121  OG1      -57.2220   67.0500   60.2680 O.3    94  THR94      -0.2208
    122  CG2      -58.0640   69.1610   59.4530 C.3    94  THR94       0.0379
    123  N        -54.3640   66.5700   59.8470 N.am   95  THR95      -0.1950
    124  CA       -53.3090   65.8320   60.5580 C.3    95  THR95       0.1897
    125  C        -52.2180   65.2640   59.6410 C.2    95  THR95       0.2313
    126  O        -51.3470   64.5260   60.1060 O.2    95  THR95      -0.2863
    127  CB       -53.9080   64.6660   61.3650 C.3    95  THR95       0.1794
    128  OG1      -54.6360   63.8000   60.4850 O.3    95  THR95      -0.2208
    129  CG2      -54.8360   65.1870   62.4500 C.3    95  THR95       0.0378
    130  N        -61.0490   63.3360   49.2500 N.3   117  TYR117     -0.1241
    131  CA       -61.4190   64.5610   49.9560 C.3   117  TYR117      0.1605
    132  C        -62.3020   65.4530   49.0810 C.2   117  TYR117      0.2264
    133  O        -63.2720   66.0340   49.5680 O.2   117  TYR117     -0.2867
    134  CB       -60.1600   65.3060   50.4130 C.3   117  TYR117      0.0534
    135  CG       -60.3970   66.5240   51.2860 C.ar  117  TYR117     -0.0201
    136  CD1      -61.3960   66.5440   52.2570 C.ar  117  TYR117     -0.0009
    137  CD2      -59.5890   67.6450   51.1630 C.ar  117  TYR117     -0.0009
    138  CE1      -61.5960   67.6600   53.0560 C.ar  117  TYR117      0.0417
    139  CE2      -59.7770   68.7610   51.9570 C.ar  117  TYR117      0.0417
    140  CZ       -60.7800   68.7660   52.9010 C.ar  117  TYR117      0.1957
    141  OH       -60.9600   69.8800   53.6860 O.3   117  TYR117     -0.2866
@<TRIPOS>BOND
     1   132   133    2
     2   132   131    1
     3   130   131    1
     4     9    10    1
     5    16    14    1
     6   131   134    1
     7    14    13    1
     8    14    15    1
     9    10    13    1
    10    10    11    1
    11   134   135    1
    12     1     2    1
    13   137   135   ar
    14   137   139   ar
    15   135   136   ar
    16    11    12    2
    17    11    17   am
    18    48    47    1
    19     3     2    1
    20     3     4    2
    21    49    47    1
    22     2     5    1
    23    17    18    1
    24    31    32    1
    25    31    30    1
    26   139   140   ar
    27    19    18    1
    28    19    20    2
    29   136   138   ar
    30    47    46    1
    31    18    21    1
    32   140   138   ar
    33   140   141    1
    34     5     6    1
    35    30    29    1
    36    46    43    1
    37    21    22    1
    38     7     6    2
    39     6     8   am
    40    25    26    1
    41    43    42    1
    42    43    44    1
    43    75    73    1
    44    73    72    1
    45    22    24   am
    46    22    23    2
    47    26    29    1
    48    26    27    1
    49   110   109    2
    50   107   108    1
    51   108   109    1
    52   108   111    1
    53   109   112   am
    54    45    44    2
    55    44    50   am
    56   113   112    1
    57   113   114    1
    58    72    69    1
    59    72    74    1
    60    68    69    1
    61    27    28    2
    62    27    33   am
    63    69    70    1
    64    50    51    1
    65   114   115    2
    66   114   116   am
    67    33    34    1
    68   100    99    2
    69    84    85    1
    70    71    70    2
    71    70    76   am
    72    51    52    1
    73    51    54    1
    74    58    57    1
    75    85    88    1
    76    85    86    1
    77    35    34    1
    78    35    36    2
    79   116   117    1
    80    98    99    1
    81    98    97    1
    82    99   101   am
    83    34    37    1
    84   104   103    2
    85    55    54    1
    86    55    56    1
    87    52    59   am
    88    52    53    2
    89    61    62    2
    90    61    60    1
    91    76    77    1
    92   103   102    1
    93    59    60    1
    94    57    56    1
    95    86    87    2
    96    89    90    1
    97    60    63    1
    98    37    38    1
    99   101   102    1
   100   117   118    1
   101   117   120    1
   102   102   105    1
   103   122   120    1
   104    63    64    1
   105    78    77    1
   106    78    79    2
   107    77    80    1
   108   125   126    2
   109   125   124    1
   110   123   118   am
   111   123   124    1
   112   118   119    2
   113   120   121    1
   114    95    94   ar
   115    90    91    1
   116    90    93    1
   117    66    65   ar
   118    38    39    1
   119   128   127    1
   120   124   127    1
   121    64    65    1
   122    91    92    2
   123    80    81    1
   124   105   106    1
   125    82    81    2
   126    65    67   ar
   127    94    93    1
   128    94    96   ar
   129    40    39    2
   130    39    41   am
   131    81    83   am
   132   127   129    1
