@<TRIPOS>MOLECULE
tmp/4u0dA00.pdb
 128 121 0 0 0
SMALL
GASTEIGER

@<TRIPOS>ATOM
      1  N        -42.2500  -25.7670   12.1730 N.3    31  PRO31      -0.2116
      2  CA       -40.9080  -26.2150   12.5700 C.3    31  PRO31       0.1372
      3  C        -40.8500  -27.5400   13.3420 C.2    31  PRO31       0.2244
      4  O        -39.9280  -28.3290   13.1290 O.2    31  PRO31      -0.2868
      5  CB       -40.4170  -25.0700   13.4550 C.3    31  PRO31       0.0268
      6  CG       -41.0720  -23.8660   12.8810 C.3    31  PRO31       0.0207
      7  CD       -42.4160  -24.3140   12.3770 C.3    31  PRO31       0.0892
      8  N        -40.1890  -31.3430   11.8190 N.3    34  ILE34      -0.1231
      9  CA       -38.8870  -31.8940   11.4170 C.3    34  ILE34       0.1678
     10  C        -38.2860  -32.7960   12.5080 C.2    34  ILE34       0.2434
     11  O        -37.7990  -33.8840   12.1990 O.2    34  ILE34      -0.2733
     12  CB       -37.8620  -30.7970   11.0300 C.3    34  ILE34       0.0265
     13  CG1      -38.4720  -29.7540   10.0760 C.3    34  ILE34       0.0019
     14  CG2      -36.6130  -31.4280   10.4240 C.3    34  ILE34       0.0020
     15  CD1      -38.5410  -30.2050    8.6080 C.3    34  ILE34       0.0001
     16  N        -38.3020  -32.3470   13.7820 N.am   35  PRO35      -0.2729
     17  CA       -37.8650  -33.2370   14.8650 C.3    35  PRO35       0.1401
     18  C        -38.7360  -34.4870   15.0190 C.2    35  PRO35       0.2269
     19  O        -38.2290  -35.5440   15.3980 O.2    35  PRO35      -0.2865
     20  CB       -37.9820  -32.3570   16.1160 C.3    35  PRO35       0.0296
     21  CG       -37.9000  -30.9630   15.6110 C.3    35  PRO35       0.0237
     22  CD       -38.5820  -30.9880   14.2810 C.3    35  PRO35       0.0939
     23  N        -37.6450  -37.0050   12.2820 N.3    38  SER38      -0.1217
     24  CA       -36.3910  -37.6450   12.6730 C.3    38  SER38       0.1889
     25  C        -36.6080  -38.7040   13.7530 C.2    38  SER38       0.2288
     26  O        -35.9700  -39.7580   13.7330 O.2    38  SER38      -0.2866
     27  CB       -35.3960  -36.5930   13.1700 C.3    38  SER38       0.2089
     28  OG       -34.1350  -37.1730   13.4550 O.3    38  SER38      -0.2183
     29  N        -34.1080  -34.0580    5.5670 N.3   132  ILE132     -0.1231
     30  CA       -34.2370  -32.9760    6.5460 C.3   132  ILE132      0.1692
     31  C        -33.7380  -31.6510    5.9610 C.2   132  ILE132      0.2591
     32  O        -34.2920  -30.5930    6.2560 O.2   132  ILE132     -0.2718
     33  CB       -33.4920  -33.3070    7.8620 C.3   132  ILE132      0.0266
     34  CG1      -34.1850  -34.4720    8.5810 C.3   132  ILE132      0.0019
     35  CG2      -33.4450  -32.0940    8.7860 C.3   132  ILE132      0.0020
     36  CD1      -33.3530  -35.1190    9.6680 C.3   132  ILE132      0.0001
     37  N        -32.7050  -31.7170    5.1240 N.am  133  LEU133     -0.1980
     38  CA       -32.1740  -30.5290    4.4490 C.3   133  LEU133      0.1596
     39  C        -33.2130  -29.9450    3.4860 C.2   133  LEU133      0.2287
     40  O        -33.3630  -28.7250    3.3860 O.2   133  LEU133     -0.2864
     41  CB       -30.8780  -30.8670    3.6980 C.3   133  LEU133      0.0297
     42  CG       -29.7920  -29.7880    3.6860 C.3   133  LEU133      0.0022
     43  CD1      -28.4680  -30.3850    3.2290 C.3   133  LEU133      0.0001
     44  CD2      -30.1860  -28.5990    2.8190 C.3   133  LEU133      0.0001
     45  N        -36.3160  -28.4770    5.5670 N.3   136  ASN136     -0.1225
     46  CA       -36.0150  -27.1630    6.1430 C.3   136  ASN136      0.1785
     47  C        -36.3210  -26.0200    5.1770 C.2   136  ASN136      0.2597
     48  O        -36.7940  -24.9590    5.5890 O.2   136  ASN136     -0.2718
     49  CB       -34.5480  -27.0840    6.5780 C.3   136  ASN136      0.1169
     50  CG       -34.2590  -27.8980    7.8240 C.2   136  ASN136      0.2627
     51  OD1      -35.1440  -28.1450    8.6470 O.2   136  ASN136     -0.2716
     52  ND2      -33.0080  -28.3170    7.9740 N.am  136  ASN136     -0.0877
     53  N        -36.0430  -26.2440    3.8960 N.am  137  LYS137     -0.1980
     54  CA       -36.3330  -25.2620    2.8530 C.3   137  LYS137      0.1596
     55  C        -37.8420  -25.0830    2.6710 C.2   137  LYS137      0.2287
     56  O        -38.3120  -23.9830    2.3780 O.2   137  LYS137     -0.2864
     57  CB       -35.6810  -25.6840    1.5330 C.3   137  LYS137      0.0298
     58  CG       -34.1580  -25.6800    1.5760 C.3   137  LYS137      0.0038
     59  CD       -33.5450  -26.5630    0.4980 C.3   137  LYS137      0.0206
     60  CE       -33.7790  -26.0050   -0.8960 C.3   137  LYS137      0.1093
     61  NZ       -33.0940  -26.8180   -1.9380 N.3   137  LYS137     -0.1314
     62  N        -40.1320  -25.6300    5.1540 N.3   139  VAL139     -0.1231
     63  CA       -40.6150  -24.9560    6.3640 C.3   139  VAL139      0.1692
     64  C        -40.3650  -23.4460    6.2880 C.2   139  VAL139      0.2591
     65  O        -41.1960  -22.6510    6.7330 O.2   139  VAL139     -0.2718
     66  CB       -39.9600  -25.5390    7.6410 C.3   139  VAL139      0.0266
     67  CG1      -40.2810  -24.6910    8.8670 C.3   139  VAL139      0.0020
     68  CG2      -40.4160  -26.9740    7.8670 C.3   139  VAL139      0.0020
     69  N        -39.2230  -23.0640    5.7220 N.am  140  ARG140     -0.1980
     70  CA       -38.8720  -21.6560    5.5310 C.3   140  ARG140      0.1597
     71  C        -39.8760  -20.9420    4.6280 C.2   140  ARG140      0.2287
     72  O        -40.2780  -19.8140    4.9120 O.2   140  ARG140     -0.2864
     73  CB       -37.4630  -21.5420    4.9420 C.3   140  ARG140      0.0334
     74  CG       -36.9490  -20.1170    4.7920 C.3   140  ARG140      0.0492
     75  CD       -35.4880  -20.1030    4.3720 C.3   140  ARG140      0.2205
     76  NE       -35.2810  -20.7600    3.0810 N.pl3 140  ARG140     -0.0865
     77  CZ       -34.0930  -20.9710    2.5160 C.cat 140  ARG140      0.5346
     78  NH1      -32.9730  -20.5760    3.1170 N.pl3 140  ARG140      0.1354
     79  NH2      -34.0220  -21.5820    1.3380 N.pl3 140  ARG140      0.1354
     80  N        -37.8830  -19.1190   14.4290 N.3   170  ARG170     -0.1245
     81  CA       -37.5890  -20.5380   14.2210 C.3   170  ARG170      0.1563
     82  C        -37.9610  -20.9900   12.8090 C.2   170  ARG170      0.2260
     83  O        -37.2480  -21.7920   12.2020 O.2   170  ARG170     -0.2867
     84  CB       -38.3390  -21.3950   15.2470 C.3   170  ARG170      0.0307
     85  CG       -37.9510  -22.8660   15.2380 C.3   170  ARG170      0.0489
     86  CD       -38.8160  -23.6800   16.1860 C.3   170  ARG170      0.2205
     87  NE       -38.3810  -25.0750   16.2580 N.pl3 170  ARG170     -0.0865
     88  CZ       -39.0100  -26.0350   16.9340 C.cat 170  ARG170      0.5346
     89  NH1      -40.1250  -25.7730   17.6120 N.pl3 170  ARG170      0.1354
     90  NH2      -38.5220  -27.2710   16.9310 N.pl3 170  ARG170      0.1354
     91  N        -35.5100  -19.6110    9.9410 N.3   173  GLN173     -0.1231
     92  CA       -34.2260  -20.3200    9.9960 C.3   173  GLN173      0.1698
     93  C        -33.0640  -19.4820    9.4590 C.2   173  GLN173      0.2592
     94  O        -32.3970  -19.8660    8.4940 O.2   173  GLN173     -0.2718
     95  CB       -34.3040  -21.6560    9.2470 C.3   173  GLN173      0.0381
     96  CG       -35.3750  -22.6010    9.7620 C.3   173  GLN173      0.0905
     97  CD       -35.4060  -23.9080    8.9950 C.2   173  GLN173      0.2608
     98  OE1      -34.3740  -24.5480    8.7980 O.2   173  GLN173     -0.2717
     99  NE2      -36.5940  -24.3120    8.5580 N.am  173  GLN173     -0.0878
    100  N        -32.8300  -18.3380   10.0960 N.am  174  ALA174     -0.1966
    101  CA       -31.7010  -17.4770    9.7540 C.3   174  ALA174      0.1728
    102  C        -30.4230  -17.9990   10.4100 C.2   174  ALA174      0.2617
    103  O        -30.4550  -18.9770   11.1600 O.2   174  ALA174     -0.2715
    104  CB       -31.9780  -16.0470   10.1940 C.3   174  ALA174      0.0334
    105  N        -29.3020  -17.3430   10.1200 N.am  175  SER175     -0.1936
    106  CA       -28.0200  -17.6980   10.7280 C.3   175  SER175      0.2055
    107  C        -28.0160  -17.3460   12.2160 C.2   175  SER175      0.2642
    108  O        -28.8100  -16.5180   12.6690 O.2   175  SER175     -0.2714
    109  CB       -26.8730  -16.9770   10.0150 C.3   175  SER175      0.2130
    110  OG       -25.6140  -17.3790   10.5290 O.3   175  SER175     -0.2179
    111  N        -27.1190  -17.9790   12.9680 N.am  176  GLN176     -0.1976
    112  CA       -27.0250  -17.7550   14.4120 C.3   176  GLN176      0.1601
    113  C        -26.5500  -16.3340   14.7320 C.2   176  GLN176      0.2287
    114  O        -26.9570  -15.7540   15.7400 O.2   176  GLN176     -0.2864
    115  CB       -26.0930  -18.7880   15.0590 C.3   176  GLN176      0.0394
    116  CG       -26.2200  -18.8980   16.5750 C.3   176  GLN176      0.0908
    117  CD       -27.5850  -19.3910   17.0310 C.2   176  GLN176      0.2608
    118  OE1      -28.1530  -18.8700   17.9910 O.2   176  GLN176     -0.2717
    119  NE2      -28.1170  -20.3960   16.3440 N.am  176  GLN176     -0.0878
    120  N        -29.6210  -14.1620   13.8080 N.3   179  LYS179     -0.1245
    121  CA       -30.6610  -14.3430   14.8220 C.3   179  LYS179      0.1561
    122  C        -30.3810  -13.5150   16.0760 C.2   179  LYS179      0.2260
    123  O        -31.2760  -12.8460   16.5940 O.2   179  LYS179     -0.2867
    124  CB       -30.7910  -15.8220   15.1970 C.3   179  LYS179      0.0271
    125  CG       -31.7820  -16.5000   14.2850 C.3   179  LYS179      0.0035
    126  CD       -31.5640  -17.9900   14.3730 C.3   179  LYS179      0.0206
    127  CE       -32.6630  -18.8830   13.8140 C.3   179  LYS179      0.1093
    128  NZ       -32.7840  -20.1550   14.5700 N.3   179  LYS179     -0.1314
@<TRIPOS>BOND
     1    61    60    1
     2    60    59    1
     3    59    58    1
     4    79    77    1
     5    57    58    1
     6    57    54    1
     7    56    55    2
     8    77    76    2
     9    77    78    1
    10    55    54    1
    11    44    42    1
    12    54    53    1
    13    76    75    1
    14    43    42    1
    15    40    39    2
    16    39    38    1
    17    42    41    1
    18    41    38    1
    19    53    47   am
    20    75    74    1
    21    38    37    1
    22    71    72    2
    23    71    70    1
    24    74    73    1
    25    73    70    1
    26    37    31   am
    27    62    63    1
    28    47    48    2
    29    47    46    1
    30    70    69    1
    31    45    46    1
    32    29    30    1
    33    69    64   am
    34    31    32    2
    35    31    30    1
    36    46    49    1
    37    64    63    1
    38    64    65    2
    39    63    66    1
    40    30    33    1
    41    49    50    1
    42    66    68    1
    43    66    67    1
    44    50    52   am
    45    50    51    2
    46    33    34    1
    47    33    35    1
    48    94    93    2
    49    99    97   am
    50    34    36    1
    51    15    13    1
    52    98    97    2
    53    97    96    1
    54    95    96    1
    55    95    92    1
    56    93    92    1
    57    93   100   am
    58   101   100    1
    59   101   104    1
    60   101   102    1
    61    91    92    1
    62   109   110    1
    63   109   106    1
    64    13    12    1
    65   105   102   am
    66   105   106    1
    67   102   103    2
    68    14    12    1
    69   106   107    1
    70    12     9    1
    71     9     8    1
    72     9    10    1
    73     1     7    1
    74     1     2    1
    75    11    10    2
    76    83    82    2
    77   107   108    2
    78   107   111   am
    79    23    24    1
    80     7     6    1
    81    10    16   am
    82     2     3    1
    83     2     5    1
    84    24    27    1
    85    24    25    1
    86    82    81    1
    87     6     5    1
    88   111   112    1
    89     4     3    2
    90    27    28    1
    91    26    25    2
    92    16    22    1
    93    16    17    1
    94   120   121    1
    95   127   126    1
    96   127   128    1
    97    81    80    1
    98    81    84    1
    99    22    21    1
   100   125   126    1
   101   125   124    1
   102   112   113    1
   103   112   115    1
   104   113   114    2
   105   121   124    1
   106   121   122    1
   107    17    18    1
   108    17    20    1
   109    18    19    2
   110   115   116    1
   111    85    84    1
   112    85    86    1
   113    21    20    1
   114   122   123    2
   115    86    87    1
   116    87    88    2
   117   119   117   am
   118   116   117    1
   119    90    88    1
   120    88    89    1
   121   117   118    2
