@<TRIPOS>MOLECULE
tmp/4u0fA00.pdb
 93 87 0 0 0
SMALL
GASTEIGER

@<TRIPOS>ATOM
      1  N        -21.6500   82.5660    6.8990 N.3    50  ASN50      -0.1240
      2  CA       -20.8910   81.6770    6.0070 C.3    50  ASN50       0.1653
      3  C        -21.7680   80.7160    5.2250 C.2    50  ASN50       0.2266
      4  O        -21.5050   80.4430    4.0580 O.2    50  ASN50      -0.2867
      5  CB       -19.8680   80.8630    6.7950 C.3    50  ASN50       0.1155
      6  CG       -18.6850   81.6910    7.2370 C.2    50  ASN50       0.2627
      7  OD1      -18.4180   82.7610    6.6820 O.2    50  ASN50      -0.2716
      8  ND2      -17.9600   81.1980    8.2300 N.am   50  ASN50      -0.0877
      9  N        -23.4380   82.7210    2.3670 N.3    53  LEU53      -0.1231
     10  CA       -22.4370   83.0040    1.3380 C.3    53  LEU53       0.1693
     11  C        -22.0350   81.7460    0.5660 C.2    53  LEU53       0.2592
     12  O        -21.8630   81.7930   -0.6530 O.2    53  LEU53      -0.2718
     13  CB       -21.1960   83.6660    1.9460 C.3    53  LEU53       0.0284
     14  CG       -21.3990   85.0640    2.5370 C.3    53  LEU53       0.0019
     15  CD1      -20.1350   85.5160    3.2530 C.3    53  LEU53       0.0001
     16  CD2      -21.8050   86.0730    1.4690 C.3    53  LEU53       0.0001
     17  N        -21.8870   80.6340    1.2800 N.am   54  ASN54      -0.1974
     18  CA       -21.5160   79.3570    0.6550 C.3    54  ASN54       0.1688
     19  C        -22.5500   78.7820   -0.3160 C.2    54  ASN54       0.2292
     20  O        -22.1860   78.1130   -1.2890 O.2    54  ASN54      -0.2864
     21  CB       -21.2130   78.3160    1.7260 C.3    54  ASN54       0.1181
     22  CG       -19.9130   78.5830    2.4320 C.2    54  ASN54       0.2629
     23  OD1      -19.0220   79.2350    1.8840 O.2    54  ASN54      -0.2716
     24  ND2      -19.7900   78.0860    3.6550 N.am   54  ASN54      -0.0877
     25  N        -16.9740   86.3730   -4.7260 N.3    63  MET63      -0.1245
     26  CA       -16.8280   85.7110   -3.4200 C.3    63  MET63       0.1570
     27  C        -15.3800   85.6790   -2.9800 C.2    63  MET63       0.2261
     28  O        -15.0870   85.7440   -1.7830 O.2    63  MET63      -0.2867
     29  CB       -17.3730   84.2800   -3.4500 C.3    63  MET63       0.0387
     30  CG       -18.8790   84.1740   -3.6390 C.3    63  MET63       0.0595
     31  SD       -19.8420   85.0480   -2.3870 S.3    63  MET63      -0.1393
     32  CE       -20.0600   86.6610   -3.1320 C.3    63  MET63       0.0692
     33  N        -14.5670   89.0980   -1.7370 N.3    66  LEU66      -0.1231
     34  CA       -15.1770   89.2070   -0.4280 C.3    66  LEU66       0.1693
     35  C        -14.2820   88.6180    0.6640 C.2    66  LEU66       0.2591
     36  O        -14.1420   89.2040    1.7340 O.2    66  LEU66      -0.2718
     37  CB       -16.5390   88.5100   -0.4350 C.3    66  LEU66       0.0284
     38  CG       -17.4350   88.7280    0.7810 C.3    66  LEU66       0.0019
     39  CD1      -17.5860   90.2160    1.0870 C.3    66  LEU66       0.0001
     40  CD2      -18.7880   88.0690    0.5500 C.3    66  LEU66       0.0001
     41  N        -13.6830   87.4640    0.3880 N.am   67  LYS67      -0.1980
     42  CA       -12.7080   86.8460    1.2970 C.3    67  LYS67       0.1596
     43  C        -11.5180   87.7680    1.5840 C.2    67  LYS67       0.2287
     44  O        -11.0830   87.9030    2.7360 O.2    67  LYS67      -0.2864
     45  CB       -12.2100   85.5240    0.7150 C.3    67  LYS67       0.0298
     46  CG       -13.2480   84.4190    0.7930 C.3    67  LYS67       0.0038
     47  CD       -12.7800   83.1640    0.0880 C.3    67  LYS67       0.0206
     48  CE       -13.8280   82.0730    0.1690 C.3    67  LYS67       0.1093
     49  NZ       -13.4480   80.9250   -0.6970 N.3    67  LYS67      -0.1314
     50  N        -12.6270   90.5340    3.8590 N.3    70  ILE70      -0.1231
     51  CA       -12.7930   89.9140    5.1730 C.3    70  ILE70       0.1692
     52  C        -11.4390   89.6820    5.8570 C.2    70  ILE70       0.2592
     53  O        -11.2780   89.9640    7.0510 O.2    70  ILE70      -0.2718
     54  CB       -13.5900   88.5900    5.0520 C.3    70  ILE70       0.0266
     55  CG1      -15.0550   88.9000    4.7350 C.3    70  ILE70       0.0019
     56  CG2      -13.4900   87.7560    6.3230 C.3    70  ILE70       0.0020
     57  CD1      -15.8150   87.7390    4.1330 C.3    70  ILE70       0.0001
     58  N        -10.4720   89.1680    5.1050 N.am   71  ASN71      -0.1974
     59  CA        -9.1290   88.9790    5.6410 C.3    71  ASN71       0.1688
     60  C         -8.5600   90.2960    6.1500 C.2    71  ASN71       0.2292
     61  O         -8.0860   90.3620    7.2750 O.2    71  ASN71      -0.2864
     62  CB        -8.1980   88.3910    4.5880 C.3    71  ASN71       0.1181
     63  CG        -8.5870   86.9830    4.1810 C.2    71  ASN71       0.2629
     64  OD1       -9.2150   86.2470    4.9430 O.2    71  ASN71      -0.2716
     65  ND2       -8.2110   86.6010    2.9660 N.am   71  ASN71      -0.0877
     66  N        -15.0420   85.4940   11.7640 N.3    99  ALA99      -0.1231
     67  CA       -15.3790   85.0560   10.4100 C.3    99  ALA99       0.1694
     68  C        -15.8360   83.5980   10.3580 C.2    99  ALA99       0.2593
     69  O        -16.0840   83.0670    9.2720 O.2    99  ALA99      -0.2718
     70  CB       -14.1860   85.2590    9.4830 C.3    99  ALA99       0.0304
     71  N        -15.9220   82.9480   11.5170 N.am  100  GLY100     -0.1942
     72  CA       -16.4600   81.5980   11.6090 C.3   100  GLY100      0.2014
     73  C        -15.5120   80.5100   11.1530 C.2   100  GLY100      0.2639
     74  O        -15.9250   79.3610   11.0050 O.2   100  GLY100     -0.2714
     75  N        -14.2420   80.8560   10.9530 N.am  101  THR101     -0.1950
     76  CA       -13.2610   79.9270   10.3820 C.3   101  THR101      0.1897
     77  C        -12.6540   79.0200   11.4440 C.2   101  THR101      0.2313
     78  O        -12.4710   77.8210   11.2230 O.2   101  THR101     -0.2863
     79  CB       -12.1120   80.6920    9.6920 C.3   101  THR101      0.1794
     80  OG1      -12.6510   81.6170    8.7420 O.3   101  THR101     -0.2208
     81  CG2      -11.1560   79.7250    8.9810 C.3   101  THR101      0.0378
     82  N        -19.0400   90.5670   12.1240 N.3   124  TYR124     -0.1241
     83  CA       -18.7710   89.8630   10.8760 C.3   124  TYR124      0.1605
     84  C        -19.6520   90.3660    9.7360 C.2   124  TYR124      0.2264
     85  O        -19.1580   90.5730    8.6350 O.2   124  TYR124     -0.2867
     86  CB       -18.9470   88.3490   11.0590 C.3   124  TYR124      0.0534
     87  CG       -18.5010   87.4780    9.8790 C.ar  124  TYR124     -0.0201
     88  CD1      -17.5160   87.8980    8.9900 C.ar  124  TYR124     -0.0009
     89  CD2      -19.0470   86.2100    9.6860 C.ar  124  TYR124     -0.0009
     90  CE1      -17.1100   87.0980    7.9380 C.ar  124  TYR124      0.0417
     91  CE2      -18.6440   85.4010    8.6330 C.ar  124  TYR124      0.0417
     92  CZ       -17.6730   85.8490    7.7640 C.ar  124  TYR124      0.1957
     93  OH       -17.2570   85.0560    6.7150 O.3   124  TYR124     -0.2866
@<TRIPOS>BOND
     1    25    26    1
     2    30    29    1
     3    30    31    1
     4    29    26    1
     5    26    27    1
     6    32    31    1
     7    27    28    2
     8    33    34    1
     9    20    19    2
    10    49    48    1
    11    12    11    2
    12    37    34    1
    13    37    38    1
    14    34    35    1
    15    19    18    1
    16    47    48    1
    17    47    46    1
    18    41    35   am
    19    41    42    1
    20    40    38    1
    21    11    17   am
    22    11    10    1
    23    18    17    1
    24    18    21    1
    25    35    36    2
    26    45    46    1
    27    45    42    1
    28    38    39    1
    29    42    43    1
    30    10    13    1
    31    10     9    1
    32    16    14    1
    33    43    44    2
    34    21    22    1
    35    23    22    2
    36    13    14    1
    37    22    24   am
    38    14    15    1
    39    65    63   am
    40    50    51    1
    41     4     3    2
    42    57    55    1
    43    63    62    1
    44    63    64    2
    45    62    59    1
    46    55    54    1
    47    54    51    1
    48    54    56    1
    49    58    59    1
    50    58    52   am
    51    51    52    1
    52     3     2    1
    53    59    60    1
    54    52    53    2
    55     2     5    1
    56     2     1    1
    57    60    61    2
    58     7     6    2
    59    93    92    1
    60     5     6    1
    61     6     8   am
    62    92    90   ar
    63    92    91   ar
    64    90    88   ar
    65    91    89   ar
    66    85    84    2
    67    80    79    1
    68    81    79    1
    69    88    87   ar
    70    69    68    2
    71    70    67    1
    72    89    87   ar
    73    79    76    1
    74    84    83    1
    75    87    86    1
    76    68    67    1
    77    68    71   am
    78    76    75    1
    79    76    77    1
    80    67    66    1
    81    83    86    1
    82    83    82    1
    83    75    73   am
    84    74    73    2
    85    73    72    1
    86    78    77    2
    87    71    72    1
