@<TRIPOS>MOLECULE
tmp/4u0gQ02.pdb
 126 119 0 0 0
SMALL
GASTEIGER

@<TRIPOS>ATOM
      1  N       -137.8520  -46.8640   73.5370 N.3    67  GLY67      -0.1210
      2  CA      -136.6220  -46.1030   73.4110 C.3    67  GLY67       0.1956
      3  C       -136.0610  -46.0080   72.0050 C.2    67  GLY67       0.2612
      4  O       -136.7740  -46.2050   71.0270 O.2    67  GLY67      -0.2717
      5  N       -134.7670  -45.7120   71.9180 N.am   68  GLY68      -0.1942
      6  CA      -134.1060  -45.4540   70.6510 C.3    68  GLY68       0.2014
      7  C       -134.1270  -46.6150   69.6790 C.2    68  GLY68       0.2639
      8  O       -134.2800  -47.7670   70.0720 O.2    68  GLY68      -0.2714
      9  N       -133.9740  -46.2990   68.3980 N.am   69  PHE69      -0.1959
     10  CA      -134.0480  -47.3030   67.3460 C.3    69  PHE69       0.1771
     11  C       -132.7830  -48.1460   67.2790 C.2    69  PHE69       0.2620
     12  O       -132.8510  -49.3730   67.2410 O.2    69  PHE69      -0.2715
     13  CB      -134.2970  -46.6340   65.9940 C.3    69  PHE69       0.0574
     14  CG      -134.6020  -47.6000   64.8870 C.ar   69  PHE69      -0.0200
     15  CD1     -135.8980  -48.0210   64.6560 C.ar   69  PHE69      -0.0042
     16  CD2     -133.5940  -48.0820   64.0740 C.ar   69  PHE69      -0.0042
     17  CE1     -136.1810  -48.9070   63.6390 C.ar   69  PHE69      -0.0003
     18  CE2     -133.8730  -48.9670   63.0560 C.ar   69  PHE69      -0.0003
     19  CZ      -135.1670  -49.3800   62.8380 C.ar   69  PHE69      -0.0000
     20  N       -131.6310  -47.4860   67.2620 N.am   70  THR70      -0.1951
     21  CA      -130.3530  -48.1850   67.1960 C.3    70  THR70       0.1897
     22  C       -130.1760  -49.0860   68.4090 C.2    70  THR70       0.2313
     23  O       -129.6600  -50.1950   68.3020 O.2    70  THR70      -0.2863
     24  CB      -129.1710  -47.2020   67.1130 C.3    70  THR70       0.1794
     25  OG1     -129.2500  -46.2590   68.1880 O.3    70  THR70      -0.2208
     26  CG2     -129.1940  -46.4560   65.7930 C.3    70  THR70       0.0378
     27  N       -132.5920  -50.4390   70.1430 N.3    72  LEU72      -0.1245
     28  CA      -133.5380  -51.5400   70.0140 C.3    72  LEU72       0.1561
     29  C       -133.0190  -52.6370   69.1070 C.2    72  LEU72       0.2260
     30  O       -133.0980  -53.8160   69.4400 O.2    72  LEU72      -0.2867
     31  CB      -134.8780  -51.0250   69.4870 C.3    72  LEU72       0.0270
     32  CG      -135.8240  -52.0740   68.9040 C.3    72  LEU72       0.0019
     33  CD1     -137.2330  -51.7990   69.3140 C.3    72  LEU72       0.0001
     34  CD2     -135.7300  -52.0750   67.4020 C.3    72  LEU72       0.0001
     35  N       -143.8590  -48.9200   72.3030 N.3    96  SER96      -0.1202
     36  CA      -142.9890  -48.5230   71.2080 C.3    96  SER96       0.2020
     37  C       -141.9160  -49.5780   70.9500 C.2    96  SER96       0.2618
     38  O       -142.2300  -50.7110   70.5950 O.2    96  SER96      -0.2717
     39  CB      -142.3600  -47.1620   71.5080 C.3    96  SER96       0.2103
     40  OG      -143.3590  -46.1810   71.7130 O.3    96  SER96      -0.2182
     41  N       -140.6560  -49.1980   71.1320 N.am   97  ALA97      -0.1979
     42  CA      -139.5300  -50.0940   70.9260 C.3    97  ALA97       0.1597
     43  C       -139.6820  -51.3860   71.7190 C.2    97  ALA97       0.2287
     44  O       -139.4300  -52.4740   71.2060 O.2    97  ALA97      -0.2864
     45  CB      -138.2450  -49.3870   71.3140 C.3    97  ALA97       0.0319
     46  N       -146.6630  -47.6540   67.9640 N.3   121  HIS121     -0.1241
     47  CA      -146.7980  -46.4950   67.0930 C.3   121  HIS121      0.1621
     48  C       -145.5700  -46.3580   66.2090 C.2   121  HIS121      0.2264
     49  O       -144.5480  -46.9990   66.4440 O.2   121  HIS121     -0.2867
     50  CB      -147.0580  -45.2110   67.9050 C.3   121  HIS121      0.0745
     51  CG      -145.8860  -44.7070   68.6970 C.ar  121  HIS121      0.0817
     52  ND1     -145.9970  -43.6400   69.5620 N.ar  121  HIS121     -0.2268
     53  CD2     -144.5910  -45.1000   68.7550 C.ar  121  HIS121      0.1154
     54  CE1     -144.8240  -43.4010   70.1210 C.ar  121  HIS121      0.1986
     55  NE2     -143.9530  -44.2720   69.6460 N.ar  121  HIS121     -0.2212
     56  N       -142.2550  -44.6270   64.4870 N.3   123  PRO123     -0.2102
     57  CA      -141.1650  -43.8150   65.0320 C.3   123  PRO123      0.1504
     58  C       -141.4360  -42.3180   64.9550 C.2   123  PRO123      0.2576
     59  O       -141.9230  -41.8390   63.9350 O.2   123  PRO123     -0.2718
     60  CB      -139.9820  -44.1900   64.1480 C.3   123  PRO123      0.0282
     61  CG      -140.2900  -45.5290   63.6420 C.3   123  PRO123      0.0208
     62  CD      -141.7700  -45.5850   63.4800 C.3   123  PRO123      0.0893
     63  N       -141.1100  -41.5970   66.0230 N.am  124  SER124     -0.1938
     64  CA      -141.3280  -40.1570   66.0810 C.3   124  SER124      0.2055
     65  C       -140.0800  -39.4270   66.5470 C.2   124  SER124      0.2642
     66  O       -139.2200  -40.0040   67.2100 O.2   124  SER124     -0.2714
     67  CB      -142.4940  -39.8250   67.0130 C.3   124  SER124      0.2130
     68  OG      -143.6800  -40.4780   66.6020 O.3   124  SER124     -0.2179
     69  N       -139.9910  -38.1550   66.1780 N.am  125  LEU125     -0.1977
     70  CA      -138.9100  -37.2870   66.6200 C.3   125  LEU125      0.1596
     71  C       -139.5020  -36.1220   67.4050 C.2   125  LEU125      0.2287
     72  O       -140.2070  -35.2840   66.8460 O.2   125  LEU125     -0.2864
     73  CB      -138.0990  -36.7840   65.4240 C.3   125  LEU125      0.0297
     74  CG      -136.8740  -35.9200   65.7300 C.3   125  LEU125      0.0022
     75  CD1     -135.9130  -36.6430   66.6610 C.3   125  LEU125      0.0001
     76  CD2     -136.1710  -35.5230   64.4420 C.3   125  LEU125      0.0001
     77  N       -134.5810  -31.3260   64.1140 N.3   129  ILE129     -0.1245
     78  CA      -133.2590  -31.3620   63.4950 C.3   129  ILE129      0.1561
     79  C       -133.2750  -30.4320   62.2920 C.2   129  ILE129      0.2260
     80  O       -134.1840  -30.4790   61.4680 O.2   129  ILE129     -0.2867
     81  CB      -132.8400  -32.7900   63.0740 C.3   129  ILE129      0.0252
     82  CG1     -133.9350  -33.4600   62.2430 C.3   129  ILE129      0.0019
     83  CG2     -132.5370  -33.6280   64.3050 C.3   129  ILE129      0.0019
     84  CD1     -133.5550  -34.8220   61.6940 C.3   129  ILE129      0.0001
     85  N       -131.7050  -37.3540   56.0630 N.3   139  GLN139     -0.1245
     86  CA      -132.2680  -37.7160   57.3550 C.3   139  GLN139      0.1566
     87  C       -133.6600  -38.2900   57.1560 C.2   139  GLN139      0.2260
     88  O       -133.9960  -39.3360   57.7030 O.2   139  GLN139     -0.2867
     89  CB      -132.3270  -36.5020   58.2830 C.3   139  GLN139      0.0367
     90  CG      -130.9720  -35.9860   58.7450 C.3   139  GLN139      0.0905
     91  CD      -130.2880  -36.9170   59.7300 C.2   139  GLN139      0.2608
     92  OE1     -130.9060  -37.8370   60.2660 O.2   139  GLN139     -0.2717
     93  NE2     -129.0090  -36.6700   59.9860 N.am  139  GLN139     -0.0878
     94  N       -133.5490  -41.7670   55.7320 N.3   142  GLU142     -0.1231
     95  CA      -133.2230  -42.7650   56.7390 C.3   142  GLU142      0.1699
     96  C       -134.4360  -43.0520   57.6100 C.2   142  GLU142      0.2592
     97  O       -134.7330  -44.2040   57.9120 O.2   142  GLU142     -0.2718
     98  CB      -132.0440  -42.2940   57.5990 C.3   142  GLU142      0.0402
     99  CG      -131.7230  -43.1790   58.7990 C.3   142  GLU142      0.1161
    100  CD      -131.2940  -44.5830   58.4120 C.2   142  GLU142      0.3649
    101  OE1     -131.1280  -44.8520   57.2050 O.co2 142  GLU142     -0.2457
    102  OE2     -131.1200  -45.4230   59.3220 O.co2 142  GLU142     -0.2457
    103  N       -135.1430  -41.9950   57.9920 N.am  143  ILE143     -0.1980
    104  CA      -136.3070  -42.1160   58.8590 C.3   143  ILE143      0.1595
    105  C       -137.3690  -43.0210   58.2480 C.2   143  ILE143      0.2287
    106  O       -138.0290  -43.7790   58.9560 O.2   143  ILE143     -0.2864
    107  CB      -136.9120  -40.7320   59.1550 C.3   143  ILE143      0.0276
    108  CG1     -135.9960  -39.9670   60.1110 C.3   143  ILE143      0.0022
    109  CG2     -138.3190  -40.8590   59.7340 C.3   143  ILE143      0.0022
    110  CD1     -136.3950  -38.5300   60.3390 C.3   143  ILE143      0.0001
    111  N       -136.1990  -46.5880   58.6100 N.3   146  MET146     -0.1245
    112  CA      -136.3610  -47.0530   59.9800 C.3   146  MET146      0.1570
    113  C       -137.8240  -47.3590   60.2530 C.2   146  MET146      0.2261
    114  O       -138.1450  -48.3170   60.9520 O.2   146  MET146     -0.2867
    115  CB      -135.8460  -46.0060   60.9670 C.3   146  MET146      0.0387
    116  CG      -134.3900  -45.6410   60.7620 C.3   146  MET146      0.0595
    117  SD      -133.9180  -44.1530   61.6510 S.3   146  MET146     -0.1393
    118  CE      -133.4400  -44.8500   63.2190 C.3   146  MET146      0.0692
    119  N       -139.1940  -51.1610   61.0310 N.3   150  MET150     -0.1245
    120  CA      -139.9460  -51.5030   62.2310 C.3   150  MET150      0.1570
    121  C       -141.2210  -52.2260   61.8150 C.2   150  MET150      0.2261
    122  O       -141.6770  -53.1440   62.4910 O.2   150  MET150     -0.2867
    123  CB      -140.2730  -50.2560   63.0530 C.3   150  MET150      0.0387
    124  CG      -140.9060  -50.5570   64.4060 C.3   150  MET150      0.0595
    125  SD      -142.0840  -49.3060   64.9590 S.3   150  MET150     -0.1393
    126  CE      -143.4180  -49.5400   63.7840 C.3   150  MET150      0.0692
@<TRIPOS>BOND
     1    94    95    1
     2    85    86    1
     3    95    98    1
     4    95    96    1
     5    87    86    1
     6    87    88    2
     7   101   100   ar
     8    86    89    1
     9    98    99    1
    10    96    97    2
    11    96   103   am
    12   103   104    1
    13   105   104    1
    14   105   106    2
    15    89    90    1
    16   100    99    1
    17   100   102   ar
    18   111   112    1
    19    90    91    1
    20   104   107    1
    21   107   109    1
    22   107   108    1
    23    91    93   am
    24    91    92    2
    25   112   113    1
    26   112   115    1
    27   108   110    1
    28   113   114    2
    29   116   115    1
    30   116   117    1
    31   119   120    1
    32    80    79    2
    33   117   118    1
    34    84    82    1
    35   121   120    1
    36   121   122    2
    37   120   123    1
    38    82    81    1
    39    79    78    1
    40    19    18   ar
    41    19    17   ar
    42   123   124    1
    43    18    16   ar
    44    81    78    1
    45    81    83    1
    46    62    61    1
    47    62    56    1
    48    78    77    1
    49    17    15   ar
    50    61    60    1
    51   126   125    1
    52    59    58    2
    53    16    14   ar
    54    60    57    1
    55   124   125    1
    56    76    74    1
    57    56    57    1
    58    15    14   ar
    59    14    13    1
    60    58    57    1
    61    58    63   am
    62    73    74    1
    63    73    70    1
    64    74    75    1
    65    26    24    1
    66    13    10    1
    67    63    64    1
    68    64    65    1
    69    64    67    1
    70    69    65   am
    71    69    70    1
    72    48    49    2
    73    48    47    1
    74    65    66    2
    75    68    67    1
    76    70    71    1
    77    72    71    2
    78    47    50    1
    79    47    46    1
    80    24    21    1
    81    24    25    1
    82    21    20    1
    83    21    22    1
    84    12    11    2
    85    20    11   am
    86    11    10    1
    87    10     9    1
    88    34    32    1
    89    50    51    1
    90    23    22    2
    91     9     7   am
    92    51    53   ar
    93    51    52   ar
    94    53    55   ar
    95    32    33    1
    96    32    31    1
    97    29    30    2
    98    29    28    1
    99    31    28    1
   100    52    54   ar
   101    55    54   ar
   102     7     8    2
   103     7     6    1
   104    28    27    1
   105    38    37    2
   106     6     5    1
   107    42    41    1
   108    42    45    1
   109    42    43    1
   110    37    41   am
   111    37    36    1
   112     4     3    2
   113    44    43    2
   114    36    39    1
   115    36    35    1
   116    39    40    1
   117     5     3   am
   118     3     2    1
   119     2     1    1
