@<TRIPOS>MOLECULE
tmp/4u0gQ00.pdb
 154 140 0 0 0
SMALL
GASTEIGER

@<TRIPOS>ATOM
      1  N       -130.5910  -62.9820   91.7990 N.3    21  LYS21      -0.1231
      2  CA      -131.2800  -64.2610   91.9110 C.3    21  LYS21       0.1693
      3  C       -132.0640  -64.5480   90.6420 C.2    21  LYS21       0.2591
      4  O       -132.1510  -65.6890   90.2010 O.2    21  LYS21      -0.2718
      5  CB      -132.2080  -64.2570   93.1270 C.3    21  LYS21       0.0285
      6  CG      -133.0160  -65.5320   93.3430 C.3    21  LYS21       0.0035
      7  CD      -132.2660  -66.5780   94.1340 C.3    21  LYS21       0.0206
      8  CE      -133.2020  -67.6930   94.5550 C.3    21  LYS21       0.1093
      9  NZ      -132.6470  -69.0350   94.2530 N.3    21  LYS21      -0.1314
     10  N       -132.6330  -63.5070   90.0510 N.am   22  LEU22      -0.1980
     11  CA      -133.3560  -63.6580   88.7980 C.3    22  LEU22       0.1596
     12  C       -132.3970  -64.0750   87.6880 C.2    22  LEU22       0.2287
     13  O       -132.6960  -64.9720   86.9040 O.2    22  LEU22      -0.2864
     14  CB      -134.0740  -62.3590   88.4300 C.3    22  LEU22       0.0297
     15  CG      -135.5430  -62.2850   88.8510 C.3    22  LEU22       0.0022
     16  CD1     -135.6610  -62.2810   90.3550 C.3    22  LEU22       0.0001
     17  CD2     -136.2030  -61.0500   88.2740 C.3    22  LEU22       0.0001
     18  N       -131.3830  -67.5380   87.6120 N.3    25  GLU25      -0.1245
     19  CA      -132.4460  -68.3610   87.0580 C.3    25  GLU25       0.1567
     20  C       -132.6170  -68.0830   85.5690 C.2    25  GLU25       0.2260
     21  O       -133.5980  -68.5080   84.9600 O.2    25  GLU25      -0.2867
     22  CB      -133.7510  -68.1230   87.8140 C.3    25  GLU25       0.0388
     23  CG      -133.7060  -68.5830   89.2680 C.3    25  GLU25       0.1160
     24  CD      -133.3680  -70.0570   89.4220 C.2    25  GLU25       0.3649
     25  OE1     -133.6630  -70.8410   88.4960 O.co2  25  GLU25      -0.2457
     26  OE2     -132.8000  -70.4290   90.4710 O.co2  25  GLU25      -0.2457
     27  N       -133.0180  -65.0530   84.1040 N.3    27  ILE27      -0.1245
     28  CA      -134.0180  -64.0200   83.8580 C.3    27  ILE27       0.1561
     29  C       -133.3640  -62.6520   83.7190 C.2    27  ILE27       0.2260
     30  O       -132.8210  -62.1150   84.6820 O.2    27  ILE27      -0.2867
     31  CB      -135.0600  -63.9530   84.9930 C.3    27  ILE27       0.0252
     32  CG1     -135.7000  -65.3220   85.2190 C.3    27  ILE27       0.0019
     33  CG2     -136.1260  -62.9100   84.6730 C.3    27  ILE27       0.0019
     34  CD1     -136.6150  -65.3780   86.4230 C.3    27  ILE27       0.0001
     35  N       -133.9500  -58.6970   83.1460 N.3    29  PHE29      -0.1241
     36  CA      -135.0160  -57.7490   83.4430 C.3    29  PHE29       0.1605
     37  C       -134.8000  -56.4240   82.7230 C.2    29  PHE29       0.2264
     38  O       -133.8480  -55.7030   83.0130 O.2    29  PHE29      -0.2867
     39  CB      -135.1000  -57.5160   84.9540 C.3    29  PHE29       0.0534
     40  CG      -136.4340  -57.0230   85.4210 C.ar   29  PHE29      -0.0203
     41  CD1     -136.8960  -55.7740   85.0490 C.ar   29  PHE29      -0.0042
     42  CD2     -137.2230  -57.8060   86.2440 C.ar   29  PHE29      -0.0042
     43  CE1     -138.1260  -55.3180   85.4810 C.ar   29  PHE29      -0.0003
     44  CE2     -138.4520  -57.3570   86.6790 C.ar   29  PHE29      -0.0003
     45  CZ      -138.9040  -56.1110   86.2970 C.ar   29  PHE29      -0.0000
     46  N       -130.0410  -73.8590   77.2130 N.3    56  ARG56      -0.1245
     47  CA      -131.1710  -73.5080   78.0720 C.3    56  ARG56       0.1563
     48  C       -131.7920  -72.1810   77.6680 C.2    56  ARG56       0.2260
     49  O       -131.0880  -71.2410   77.3160 O.2    56  ARG56      -0.2867
     50  CB      -130.7410  -73.4330   79.5340 C.3    56  ARG56       0.0307
     51  CG      -130.6500  -74.7710   80.2410 C.3    56  ARG56       0.0489
     52  CD      -130.2990  -74.5720   81.7070 C.3    56  ARG56       0.2205
     53  NE      -131.3300  -73.8230   82.4200 N.pl3  56  ARG56      -0.0865
     54  CZ      -131.1880  -73.3390   83.6500 C.cat  56  ARG56       0.5346
     55  NH1     -130.0510  -73.5120   84.3120 N.pl3  56  ARG56       0.1354
     56  NH2     -132.1820  -72.6700   84.2180 N.pl3  56  ARG56       0.1354
     57  N       -134.8410  -65.9440   79.5970 N.3    59  THR59      -0.1218
     58  CA      -136.1100  -65.2820   79.8760 C.3    59  THR59       0.1862
     59  C       -135.9270  -63.7730   79.9900 C.2    59  THR59       0.2287
     60  O       -135.0090  -63.3050   80.6560 O.2    59  THR59      -0.2866
     61  CB      -136.7350  -65.8200   81.1680 C.3    59  THR59       0.1770
     62  OG1     -136.7630  -67.2500   81.1230 O.3    59  THR59      -0.2211
     63  CG2     -138.1460  -65.2960   81.3400 C.3    59  THR59       0.0375
     64  N       -137.9980  -60.3750   81.1140 N.3    61  TYR61      -0.1241
     65  CA      -139.1290  -59.6520   81.6870 C.3    61  TYR61       0.1605
     66  C       -139.0900  -58.2050   81.2180 C.2    61  TYR61       0.2264
     67  O       -138.0740  -57.5320   81.3660 O.2    61  TYR61      -0.2867
     68  CB      -139.1060  -59.7180   83.2130 C.3    61  TYR61       0.0534
     69  CG      -139.3700  -61.0940   83.7890 C.ar   61  TYR61      -0.0201
     70  CD1     -139.7290  -62.1580   82.9760 C.ar   61  TYR61      -0.0009
     71  CD2     -139.2700  -61.3220   85.1530 C.ar   61  TYR61      -0.0009
     72  CE1     -139.9730  -63.4040   83.5010 C.ar   61  TYR61       0.0417
     73  CE2     -139.5140  -62.5670   85.6850 C.ar   61  TYR61       0.0417
     74  CZ      -139.8640  -63.6030   84.8540 C.ar   61  TYR61       0.1957
     75  OH      -140.1070  -64.8480   85.3770 O.3    61  TYR61      -0.2866
     76  N       -137.6160  -66.3830   75.8910 N.3    87  GLN87      -0.1245
     77  CA      -138.9660  -66.1790   76.3880 C.3    87  GLN87       0.1566
     78  C       -139.1520  -64.7190   76.7790 C.2    87  GLN87       0.2260
     79  O       -138.3000  -64.1450   77.4530 O.2    87  GLN87      -0.2867
     80  CB      -139.2340  -67.0880   77.5880 C.3    87  GLN87       0.0367
     81  CG      -138.7920  -68.5350   77.3900 C.3    87  GLN87       0.0905
     82  CD      -138.7440  -69.3210   78.6830 C.2    87  GLN87       0.2608
     83  OE1     -138.7540  -68.7490   79.7680 O.2    87  GLN87      -0.2717
     84  NE2     -138.6800  -70.6410   78.5710 N.am   87  GLN87      -0.0878
     85  N       -141.7120  -61.8340   78.5980 N.3    89  VAL89      -0.1245
     86  CA      -142.8340  -61.6020   79.5000 C.3    89  VAL89       0.1561
     87  C       -143.0350  -60.1100   79.7310 C.2    89  VAL89       0.2260
     88  O       -142.0900  -59.3950   80.0470 O.2    89  VAL89      -0.2867
     89  CB      -142.6250  -62.2930   80.8450 C.3    89  VAL89       0.0252
     90  CG1     -143.8820  -62.1850   81.6920 C.3    89  VAL89       0.0019
     91  CG2     -142.2510  -63.7460   80.6350 C.3    89  VAL89       0.0019
     92  N       -144.6920  -57.0220   81.8080 N.3    91  LEU91      -0.1245
     93  CA      -145.2670  -56.5990   83.0800 C.3    91  LEU91       0.1561
     94  C       -145.6620  -55.1290   83.0760 C.2    91  LEU91       0.2260
     95  O       -144.8130  -54.2460   83.1090 O.2    91  LEU91      -0.2867
     96  CB      -144.2760  -56.8550   84.2070 C.3    91  LEU91       0.0270
     97  CG      -143.8450  -58.3110   84.3220 C.3    91  LEU91       0.0019
     98  CD1     -142.4110  -58.4740   83.8590 C.3    91  LEU91       0.0001
     99  CD2     -143.9840  -58.7640   85.7390 C.3    91  LEU91       0.0001
    100  N       -144.2510  -68.9260   70.5520 N.3   108  GLY108     -0.1210
    101  CA      -144.8540  -69.7940   71.5450 C.3   108  GLY108      0.1956
    102  C       -144.4080  -69.4670   72.9540 C.2   108  GLY108      0.2611
    103  O       -145.1000  -69.7810   73.9210 O.2   108  GLY108     -0.2717
    104  N       -143.2420  -68.8390   73.0660 N.am  109  LYS109     -0.1979
    105  CA      -142.6730  -68.4870   74.3620 C.3   109  LYS109      0.1596
    106  C       -142.9150  -67.0210   74.7360 C.2   109  LYS109      0.2287
    107  O       -142.4350  -66.5580   75.7680 O.2   109  LYS109     -0.2864
    108  CB      -141.1800  -68.8130   74.3700 C.3   109  LYS109      0.0298
    109  CG      -140.9060  -70.3160   74.2400 C.3   109  LYS109      0.0038
    110  CD      -139.4250  -70.6470   74.2390 C.3   109  LYS109      0.0206
    111  CE      -139.1830  -72.1050   73.8950 C.3   109  LYS109      0.1093
    112  NZ      -139.6100  -73.0220   74.9830 N.3   109  LYS109     -0.1314
    113  N       -145.2610  -64.1830   76.1360 N.3   111  MET111     -0.1245
    114  CA      -146.4250  -64.1060   77.0130 C.3   111  MET111      0.1570
    115  C       -146.5160  -62.7710   77.7520 C.2   111  MET111      0.2261
    116  O       -145.5890  -61.9700   77.7110 O.2   111  MET111     -0.2867
    117  CB      -146.3990  -65.2670   78.0050 C.3   111  MET111      0.0387
    118  CG      -145.1300  -65.3660   78.8250 C.3   111  MET111      0.0595
    119  SD      -144.9300  -67.0100   79.5280 S.3   111  MET111     -0.1393
    120  CE      -144.4420  -67.9350   78.0780 C.3   111  MET111      0.0692
    121  N       -148.7840  -60.6270   81.2970 N.3   113  LEU113     -0.1245
    122  CA      -149.7100  -60.6610   82.4220 C.3   113  LEU113      0.1561
    123  C       -151.0320  -60.0250   82.0190 C.2   113  LEU113      0.2260
    124  O       -151.0660  -59.2000   81.1140 O.2   113  LEU113     -0.2867
    125  CB      -149.1090  -59.9420   83.6300 C.3   113  LEU113      0.0270
    126  CG      -147.8780  -60.6070   84.2510 C.3   113  LEU113      0.0019
    127  CD1     -147.3160  -59.7540   85.3760 C.3   113  LEU113      0.0001
    128  CD2     -148.2030  -61.9960   84.7630 C.3   113  LEU113      0.0001
    129  N       -149.4840  -66.0900   74.5700 N.3   188  THR188     -0.1218
    130  CA      -150.4180  -66.4210   75.6440 C.3   188  THR188      0.1862
    131  C       -150.4580  -65.3590   76.7350 C.2   188  THR188      0.2287
    132  O       -149.5830  -64.5050   76.8160 O.2   188  THR188     -0.2866
    133  CB      -150.0620  -67.7650   76.2960 C.3   188  THR188      0.1770
    134  OG1     -148.7230  -67.7090   76.7970 O.3   188  THR188     -0.2211
    135  CG2     -150.1710  -68.8980   75.2940 C.3   188  THR188      0.0375
    136  N       -150.6730  -65.0290   80.8770 N.3   190  LEU190     -0.1245
    137  CA      -150.4900  -65.7780   82.1150 C.3   190  LEU190      0.1561
    138  C       -151.7040  -65.6870   83.0250 C.2   190  LEU190      0.2260
    139  O       -152.3090  -64.6270   83.1610 O.2   190  LEU190     -0.2867
    140  CB      -149.2560  -65.2740   82.8620 C.3   190  LEU190      0.0270
    141  CG      -147.9020  -65.5380   82.2040 C.3   190  LEU190      0.0019
    142  CD1     -146.8050  -64.8430   82.9820 C.3   190  LEU190      0.0001
    143  CD2     -147.6230  -67.0280   82.1130 C.3   190  LEU190      0.0001
    144  N       -151.7360  -68.1060   89.5750 N.3   193  ARG193     -0.1245
    145  CA      -151.4830  -69.4470   90.0890 C.3   193  ARG193      0.1563
    146  C       -151.9870  -69.5810   91.5300 C.2   193  ARG193      0.2260
    147  O       -151.7980  -70.6140   92.1720 O.2   193  ARG193     -0.2867
    148  CB      -149.9850  -69.7590   90.0270 C.3   193  ARG193      0.0307
    149  CG      -149.3920  -69.6870   88.6240 C.3   193  ARG193      0.0489
    150  CD      -149.9280  -70.7490   87.6810 C.3   193  ARG193      0.2205
    151  NE      -149.6280  -72.1050   88.1270 N.pl3 193  ARG193     -0.0865
    152  CZ      -149.8340  -73.1930   87.3910 C.cat 193  ARG193      0.5346
    153  NH1     -150.3380  -73.0870   86.1680 N.pl3 193  ARG193      0.1354
    154  NH2     -149.5310  -74.3890   87.8760 N.pl3 193  ARG193      0.1354
@<TRIPOS>BOND
     1   100   101    1
     2   101   102    1
     3   102   104   am
     4   102   103    2
     5   104   105    1
     6   111   110    1
     7   111   112    1
     8   110   109    1
     9   109   108    1
    10   105   108    1
    11   105   106    1
    12   129   130    1
    13   106   107    2
    14   135   133    1
    15   130   133    1
    16   130   131    1
    17    76    77    1
    18   113   114    1
    19   133   134    1
    20    77    78    1
    21    77    80    1
    22   131   132    2
    23    78    79    2
    24   114   115    1
    25   114   117    1
    26    46    47    1
    27    49    48    2
    28    81    80    1
    29    81    82    1
    30    48    47    1
    31   116   115    2
    32   117   118    1
    33    47    50    1
    34   120   119    1
    35    84    82   am
    36    85    86    1
    37    82    83    2
    38   118   119    1
    39    86    87    1
    40    86    89    1
    41    50    51    1
    42    57    58    1
    43    87    88    2
    44    58    59    1
    45    58    61    1
    46    59    60    2
    47    51    52    1
    48    91    89    1
    49    89    90    1
    50   136   137    1
    51    64    65    1
    52   124   123    2
    53    62    61    1
    54    61    63    1
    55    66    67    2
    56    66    65    1
    57   121   122    1
    58    65    68    1
    59    52    53    1
    60    92    93    1
    61   123   122    1
    62   143   141    1
    63   137   140    1
    64   137   138    1
    65   141   140    1
    66   141   142    1
    67    53    54    2
    68   122   125    1
    69    37    38    2
    70    37    36    1
    71    70    72   ar
    72    70    69   ar
    73   138   139    2
    74    94    93    1
    75    94    95    2
    76    93    96    1
    77    35    36    1
    78    68    69    1
    79    36    39    1
    80    72    74   ar
    81   125   126    1
    82    54    56    1
    83    54    55    1
    84    29    28    1
    85    29    30    2
    86    69    71   ar
    87    28    27    1
    88    28    31    1
    89    98    97    1
    90    96    97    1
    91   126   128    1
    92   126   127    1
    93    97    99    1
    94    33    31    1
    95    74    75    1
    96    74    73   ar
    97    39    40    1
    98    21    20    2
    99    31    32    1
   100    41    40   ar
   101    41    43   ar
   102    71    73   ar
   103    32    34    1
   104    40    42   ar
   105    43    45   ar
   106    20    19    1
   107   153   152    1
   108    42    44   ar
   109    45    44   ar
   110    13    12    2
   111    19    18    1
   112    19    22    1
   113   152   154    1
   114   152   151    2
   115   150   151    1
   116   150   149    1
   117    12    11    1
   118    22    23    1
   119    17    15    1
   120    14    11    1
   121    14    15    1
   122    25    24   ar
   123   149   148    1
   124    11    10    1
   125    15    16    1
   126    23    24    1
   127    24    26   ar
   128   144   145    1
   129   148   145    1
   130    10     3   am
   131   145   146    1
   132     4     3    2
   133     3     2    1
   134   146   147    2
   135     1     2    1
   136     2     5    1
   137     5     6    1
   138     6     7    1
   139     7     8    1
   140     9     8    1
