@<TRIPOS>MOLECULE
tmp/4u0gI00.pdb
 139 134 0 0 0
SMALL
GASTEIGER

@<TRIPOS>ATOM
      1  N        -65.8650  -44.0680   29.7990 N.3    17  GLU17      -0.1245
      2  CA       -66.2590  -43.6140   31.1210 C.3    17  GLU17       0.1567
      3  C        -67.7050  -43.9980   31.3730 C.2    17  GLU17       0.2260
      4  O        -68.5160  -44.0380   30.4500 O.2    17  GLU17      -0.2867
      5  CB       -66.0650  -42.1010   31.2700 C.3    17  GLU17       0.0388
      6  CG       -66.9000  -41.2460   30.3300 C.3    17  GLU17       0.1160
      7  CD       -66.8620  -39.7760   30.7040 C.2    17  GLU17       0.3649
      8  OE1      -67.2930  -38.9380   29.8840 O.co2  17  GLU17      -0.2457
      9  OE2      -66.4030  -39.4580   31.8220 O.co2  17  GLU17      -0.2457
     10  N        -66.3140  -43.1880   36.1880 N.3    51  GLY51      -0.1210
     11  CA       -67.4450  -42.3500   35.8470 C.3    51  GLY51       0.1956
     12  C        -68.3460  -42.0530   37.0230 C.2    51  GLY51       0.2613
     13  O        -67.9310  -42.1580   38.1750 O.2    51  GLY51      -0.2717
     14  N        -69.5850  -41.6710   36.7290 N.am   52  SER52      -0.1938
     15  CA       -70.5250  -41.3060   37.7740 C.3    52  SER52       0.2055
     16  C        -70.8680  -42.5160   38.6270 C.2    52  SER52       0.2643
     17  O        -70.9330  -43.6360   38.1290 O.2    52  SER52      -0.2714
     18  CB       -71.8020  -40.7120   37.1780 C.3    52  SER52       0.2130
     19  OG       -72.6770  -41.7320   36.7380 O.3    52  SER52      -0.2179
     20  N        -71.0840  -42.2810   39.9150 N.am   53  ILE53      -0.1963
     21  CA       -71.4240  -43.3480   40.8420 C.3    53  ILE53       0.1727
     22  C        -72.8470  -43.8180   40.5930 C.2    53  ILE53       0.2616
     23  O        -73.1070  -45.0170   40.5500 O.2    53  ILE53      -0.2715
     24  CB       -71.2570  -42.9000   42.3060 C.3    53  ILE53       0.0290
     25  CG1      -69.7640  -42.7730   42.6230 C.3    53  ILE53       0.0022
     26  CG2      -71.9210  -43.8850   43.2600 C.3    53  ILE53       0.0023
     27  CD1      -69.4380  -42.3470   44.0360 C.3    53  ILE53       0.0001
     28  N        -73.7640  -42.8710   40.4340 N.am   54  SER54      -0.1950
     29  CA       -75.1760  -43.1980   40.2830 C.3    54  SER54       0.1924
     30  C        -75.4060  -44.1620   39.1220 C.2    54  SER54       0.2314
     31  O        -76.1140  -45.1570   39.2630 O.2    54  SER54      -0.2863
     32  CB       -75.9920  -41.9210   40.0740 C.3    54  SER54       0.2116
     33  OG       -75.8210  -41.4130   38.7620 O.3    54  SER54      -0.2180
     34  N        -61.8960  -46.1110   39.4050 N.3    76  SER76      -0.1217
     35  CA       -63.1490  -45.6440   39.9840 C.3    76  SER76       0.1889
     36  C        -64.2050  -46.7340   39.8550 C.2    76  SER76       0.2288
     37  O        -64.0290  -47.8320   40.3760 O.2    76  SER76      -0.2866
     38  CB       -63.6170  -44.3590   39.3020 C.3    76  SER76       0.2089
     39  OG       -62.5980  -43.3820   39.2960 O.3    76  SER76      -0.2183
     40  N        -62.8380  -49.9340   38.5620 N.3    78  GLU78      -0.1231
     41  CA       -62.2830  -50.7860   39.6020 C.3    78  GLU78       0.1699
     42  C        -63.3910  -51.4270   40.4240 C.2    78  GLU78       0.2592
     43  O        -63.3070  -52.5940   40.7920 O.2    78  GLU78      -0.2718
     44  CB       -61.3490  -49.9820   40.5060 C.3    78  GLU78       0.0402
     45  CG       -60.9980  -50.6700   41.8150 C.3    78  GLU78       0.1161
     46  CD       -62.0180  -50.4200   42.9060 C.2    78  GLU78       0.3649
     47  OE1      -62.3880  -49.2470   43.1220 O.co2  78  GLU78      -0.2457
     48  OE2      -62.4560  -51.3990   43.5410 O.co2  78  GLU78      -0.2457
     49  N        -64.4270  -50.6520   40.7160 N.am   79  PHE79      -0.1976
     50  CA       -65.5200  -51.1280   41.5510 C.3    79  PHE79       0.1639
     51  C        -66.2730  -52.2670   40.8780 C.2    79  PHE79       0.2290
     52  O        -66.4990  -53.3110   41.4860 O.2    79  PHE79      -0.2864
     53  CB       -66.4780  -49.9830   41.8720 C.3    79  PHE79       0.0560
     54  CG       -67.4550  -50.3000   42.9660 C.ar   79  PHE79      -0.0200
     55  CD1      -67.0930  -50.1740   44.2920 C.ar   79  PHE79      -0.0042
     56  CD2      -68.7370  -50.7170   42.6690 C.ar   79  PHE79      -0.0042
     57  CE1      -67.9880  -50.4630   45.2960 C.ar   79  PHE79      -0.0003
     58  CE2      -69.6340  -51.0070   43.6720 C.ar   79  PHE79      -0.0003
     59  CZ       -69.2590  -50.8790   44.9840 C.ar   79  PHE79      -0.0000
     60  N        -59.7250  -45.1810   44.6240 N.3    99  HIS99      -0.1241
     61  CA       -59.6510  -43.9270   45.3580 C.3    99  HIS99       0.1621
     62  C        -60.9920  -43.4650   45.9160 C.2    99  HIS99       0.2264
     63  O        -62.0460  -43.9990   45.5830 O.2    99  HIS99      -0.2867
     64  CB       -59.0510  -42.8260   44.4780 C.3    99  HIS99       0.0745
     65  CG       -59.8480  -42.5130   43.2500 C.ar   99  HIS99       0.0817
     66  ND1      -59.3010  -41.8710   42.1600 N.ar   99  HIS99      -0.2268
     67  CD2      -61.1440  -42.7450   42.9370 C.ar   99  HIS99       0.1154
     68  CE1      -60.2250  -41.7220   41.2300 C.ar   99  HIS99       0.1986
     69  NE2      -61.3530  -42.2400   41.6780 N.ar   99  HIS99      -0.2212
     70  N        -64.2610  -41.0390   46.5370 N.3   101  PRO101     -0.2102
     71  CA       -65.1710  -40.3710   45.5950 C.3   101  PRO101      0.1504
     72  C        -64.8720  -38.8880   45.3700 C.2   101  PRO101      0.2576
     73  O        -64.2690  -38.2530   46.2300 O.2   101  PRO101     -0.2718
     74  CB       -66.5380  -40.5360   46.2620 C.3   101  PRO101      0.0282
     75  CG       -66.4010  -41.7090   47.1270 C.3   101  PRO101      0.0208
     76  CD       -65.0030  -41.6830   47.6320 C.3   101  PRO101      0.0893
     77  N        -65.2920  -38.3550   44.2240 N.am  102  LEU102     -0.1966
     78  CA       -65.0980  -36.9400   43.9050 C.3   102  LEU102      0.1728
     79  C        -66.4030  -36.2710   43.4910 C.2   102  LEU102      0.2617
     80  O        -66.9500  -36.5670   42.4330 O.2   102  LEU102     -0.2715
     81  CB       -64.0770  -36.7760   42.7800 C.3   102  LEU102      0.0311
     82  CG       -62.7010  -37.4000   42.9830 C.3   102  LEU102      0.0022
     83  CD1      -62.5480  -38.6370   42.1180 C.3   102  LEU102      0.0001
     84  CD2      -61.6190  -36.3880   42.6730 C.3   102  LEU102      0.0001
     85  N        -66.8870  -35.3540   44.3190 N.am  103  GLY103     -0.1940
     86  CA       -68.1050  -34.6180   44.0300 C.3   103  GLY103      0.2014
     87  C        -67.8500  -33.1590   43.7170 C.2   103  GLY103      0.2639
     88  O        -66.7620  -32.7830   43.2880 O.2   103  GLY103     -0.2714
     89  N        -68.8720  -32.3410   43.9370 N.am  104  GLY104     -0.1954
     90  CA       -68.7500  -30.8980   43.8540 C.3   104  GLY104      0.1869
     91  C        -69.8770  -30.2550   44.6370 C.2   104  GLY104      0.2309
     92  O        -70.9170  -30.8790   44.8410 O.2   104  GLY104     -0.2863
     93  N        -74.9190  -36.1470   51.9310 N.3   118  GLN118     -0.1231
     94  CA       -74.8980  -37.2620   50.9950 C.3   118  GLN118      0.1698
     95  C        -73.4890  -37.8010   50.7860 C.2   118  GLN118      0.2592
     96  O        -73.2990  -39.0060   50.6460 O.2   118  GLN118     -0.2718
     97  CB       -75.4950  -36.8380   49.6550 C.3   118  GLN118      0.0381
     98  CG       -76.9720  -36.5160   49.7220 C.3   118  GLN118      0.0905
     99  CD       -77.7970  -37.6870   50.2040 C.2   118  GLN118      0.2608
    100  OE1      -77.8360  -38.7410   49.5670 O.2   118  GLN118     -0.2717
    101  NE2      -78.4550  -37.5130   51.3430 N.am  118  GLN118     -0.0878
    102  N        -72.5060  -36.9060   50.7650 N.am  119  PHE119     -0.1976
    103  CA       -71.1160  -37.3100   50.5850 C.3   119  PHE119      0.1639
    104  C        -70.7130  -38.3610   51.6110 C.2   119  PHE119      0.2290
    105  O        -70.0290  -39.3280   51.2830 O.2   119  PHE119     -0.2864
    106  CB       -70.1760  -36.1020   50.6900 C.3   119  PHE119      0.0560
    107  CG       -70.3470  -35.0880   49.5880 C.ar  119  PHE119     -0.0200
    108  CD1      -71.0600  -35.3910   48.4390 C.ar  119  PHE119     -0.0042
    109  CD2      -69.7650  -33.8370   49.6920 C.ar  119  PHE119     -0.0042
    110  CE1      -71.2060  -34.4610   47.4300 C.ar  119  PHE119     -0.0003
    111  CE2      -69.9060  -32.9060   48.6840 C.ar  119  PHE119     -0.0003
    112  CZ       -70.6260  -33.2200   47.5510 C.ar  119  PHE119     -0.0000
    113  N        -72.6520  -41.8660   50.6950 N.3   122  ILE122     -0.1245
    114  CA       -72.0640  -42.5860   49.5770 C.3   122  ILE122      0.1561
    115  C        -70.6910  -43.1280   49.9420 C.2   122  ILE122      0.2260
    116  O        -70.4110  -44.3060   49.7430 O.2   122  ILE122     -0.2867
    117  CB       -71.9520  -41.6840   48.3290 C.3   122  ILE122      0.0252
    118  CG1      -73.2990  -41.5920   47.6130 C.3   122  ILE122      0.0019
    119  CG2      -70.9110  -42.2110   47.3510 C.3   122  ILE122      0.0019
    120  CD1      -74.2940  -40.6920   48.2840 C.3   122  ILE122      0.0001
    121  N        -66.9430  -47.5420   50.3250 N.3   126  PHE126     -0.1241
    122  CA       -65.8680  -48.1870   51.0660 C.3   126  PHE126      0.1605
    123  C        -66.3190  -49.5310   51.6250 C.2   126  PHE126      0.2264
    124  O        -65.5310  -50.4720   51.7010 O.2   126  PHE126     -0.2867
    125  CB       -65.3750  -47.2890   52.2050 C.3   126  PHE126      0.0534
    126  CG       -64.6370  -46.0540   51.7490 C.ar  126  PHE126     -0.0203
    127  CD1      -64.1360  -45.9470   50.4640 C.ar  126  PHE126     -0.0042
    128  CD2      -64.4290  -45.0030   52.6250 C.ar  126  PHE126     -0.0042
    129  CE1      -63.4560  -44.8150   50.0630 C.ar  126  PHE126     -0.0003
    130  CE2      -63.7500  -43.8720   52.2260 C.ar  126  PHE126     -0.0003
    131  CZ       -63.2620  -43.7780   50.9450 C.ar  126  PHE126     -0.0000
    132  N        -66.3890  -52.0110   48.6260 N.3   129  ASN129     -0.1240
    133  CA       -65.0230  -52.2500   48.1770 C.3   129  ASN129      0.1653
    134  C        -64.2940  -53.1150   49.1890 C.2   129  ASN129      0.2266
    135  O        -63.4510  -53.9370   48.8320 O.2   129  ASN129     -0.2867
    136  CB       -64.2670  -50.9340   47.9710 C.3   129  ASN129      0.1155
    137  CG       -64.0400  -50.6060   46.5040 C.2   129  ASN129      0.2627
    138  OD1      -63.9170  -51.4950   45.6640 O.2   129  ASN129     -0.2716
    139  ND2      -63.9560  -49.3170   46.1980 N.am  129  ASN129     -0.0877
@<TRIPOS>BOND
     1     1     2    1
     2     8     7   ar
     3     6     7    1
     4     6     5    1
     5     4     3    2
     6     7     9   ar
     7     2     5    1
     8     2     3    1
     9    11    10    1
    10    11    12    1
    11    14    12   am
    12    14    15    1
    13    19    18    1
    14    12    13    2
    15    18    15    1
    16    15    16    1
    17    17    16    2
    18    40    41    1
    19    16    20   am
    20    33    32    1
    21    30    31    2
    22    30    29    1
    23    39    38    1
    24    38    35    1
    25    34    35    1
    26    41    42    1
    27    41    44    1
    28    36    35    1
    29    36    37    2
    30    20    21    1
    31    32    29    1
    32    29    28    1
    33    42    49   am
    34    42    43    2
    35    28    22   am
    36    44    45    1
    37    23    22    2
    38    22    21    1
    39    49    50    1
    40    21    24    1
    41    51    52    2
    42    51    50    1
    43    68    69   ar
    44    68    66   ar
    45    50    53    1
    46    69    67   ar
    47    45    46    1
    48    53    54    1
    49    83    82    1
    50    66    65   ar
    51    24    25    1
    52    24    26    1
    53    80    79    2
    54    25    27    1
    55    56    54   ar
    56    56    58   ar
    57    84    82    1
    58    81    82    1
    59    81    78    1
    60    46    47   ar
    61    46    48   ar
    62    67    65   ar
    63    54    55   ar
    64    65    64    1
    65    88    87    2
    66    79    78    1
    67    79    85   am
    68    58    59   ar
    69    87    89   am
    70    87    86    1
    71    90    89    1
    72    90    91    1
    73    78    77    1
    74    86    85    1
    75    77    72   am
    76    55    57   ar
    77    64    61    1
    78    60    61    1
    79    91    92    2
    80    59    57   ar
    81    61    62    1
    82    72    71    1
    83    72    73    2
    84    63    62    2
    85    71    74    1
    86    71    70    1
    87   138   137    2
    88   139   137   am
    89    74    75    1
    90   137   136    1
    91    70    76    1
    92    75    76    1
    93   119   117    1
    94   110   112   ar
    95   110   108   ar
    96   112   111   ar
    97   118   120    1
    98   118   117    1
    99   136   133    1
   100   133   132    1
   101   133   134    1
   102   117   114    1
   103   108   107   ar
   104   111   109   ar
   105   135   134    2
   106   100    99    2
   107   114   115    1
   108   114   113    1
   109   107   109   ar
   110   107   106    1
   111    97    98    1
   112    97    94    1
   113    98    99    1
   114   116   115    2
   115   129   127   ar
   116   129   131   ar
   117    99   101   am
   118   121   122    1
   119   127   126   ar
   120   103   106    1
   121   103   102    1
   122   103   104    1
   123    96    95    2
   124   102    95   am
   125    95    94    1
   126   131   130   ar
   127    94    93    1
   128   122   123    1
   129   122   125    1
   130   105   104    2
   131   123   124    2
   132   126   125    1
   133   126   128   ar
   134   130   128   ar
