@<TRIPOS>MOLECULE
tmp/4u0iA00.pdb
 220 209 0 0 0
SMALL
GASTEIGER

@<TRIPOS>ATOM
      1  N         41.3180   11.4290   34.2020 N.3    31  LEU31      -0.1245
      2  CA        41.4020   12.5360   35.1510 C.3    31  LEU31       0.1561
      3  C         42.4430   12.2630   36.2280 C.2    31  LEU31       0.2260
      4  O         43.0160   13.1970   36.7860 O.2    31  LEU31      -0.2867
      5  CB        40.0340   12.7940   35.8030 C.3    31  LEU31       0.0270
      6  CG        38.9420   13.0620   34.7560 C.3    31  LEU31       0.0019
      7  CD1       37.5790   13.2300   35.3730 C.3    31  LEU31       0.0001
      8  CD2       39.3380   14.2870   33.9960 C.3    31  LEU31       0.0001
      9  N         40.5820    7.2780   37.1620 N.3    39  VAL39      -0.1245
     10  CA        39.3240    7.9780   37.0200 C.3    39  VAL39       0.1561
     11  C         39.3210    8.6770   35.6710 C.2    39  VAL39       0.2260
     12  O         40.2360    9.4380   35.3520 O.2    39  VAL39      -0.2867
     13  CB        39.1270    9.0260   38.1250 C.3    39  VAL39       0.0252
     14  CG1       37.9430    9.9400   37.7690 C.3    39  VAL39       0.0019
     15  CG2       38.8680    8.3210   39.4680 C.3    39  VAL39       0.0019
     16  N         31.8140   10.9670   35.5640 N.3    54  ALA54      -0.1231
     17  CA        33.1660   10.4550   35.8250 C.3    54  ALA54       0.1694
     18  C         33.0910    8.9760   36.2010 C.2    54  ALA54       0.2592
     19  O         32.1030    8.5320   36.7770 O.2    54  ALA54      -0.2718
     20  CB        33.8330   11.2420   36.9590 C.3    54  ALA54       0.0304
     21  N         34.1410    8.2250   35.8820 N.am   55  VAL55      -0.1966
     22  CA        34.1660    6.7800   36.0870 C.3    55  VAL55       0.1727
     23  C         35.4730    6.3850   36.7750 C.2    55  VAL55       0.2616
     24  O         36.5620    6.8060   36.3690 O.2    55  VAL55      -0.2715
     25  CB        34.0470    6.0300   34.7250 C.3    55  VAL55       0.0290
     26  CG1       34.2160    4.5680   34.9400 C.3    55  VAL55       0.0023
     27  CG2       32.6720    6.3230   34.0580 C.3    55  VAL55       0.0023
     28  N         35.3620    5.6100   37.8430 N.am   56  LYS56      -0.1977
     29  CA        36.5460    5.0160   38.4520 C.3    56  LYS56       0.1596
     30  C         36.5220    3.5280   38.1290 C.2    56  LYS56       0.2287
     31  O         35.6460    2.7930   38.5830 O.2    56  LYS56      -0.2864
     32  CB        36.5690    5.2200   39.9750 C.3    56  LYS56       0.0298
     33  CG        37.8240    4.6660   40.6540 C.3    56  LYS56       0.0038
     34  CD        37.6970    4.6050   42.2000 C.3    56  LYS56       0.0206
     35  CE        37.6570    5.9970   42.8330 C.3    56  LYS56       0.1093
     36  NZ        37.9590    6.0330   44.3120 N.3    56  LYS56      -0.1314
     37  N         33.7100    0.3760   48.0950 N.3    73  GLU73      -0.1245
     38  CA        33.5310    1.7980   47.8170 C.3    73  GLU73       0.1567
     39  C         32.1220    2.0830   47.2960 C.2    73  GLU73       0.2260
     40  O         31.4380    2.9960   47.7540 O.2    73  GLU73      -0.2867
     41  CB        34.5420    2.2460   46.7660 C.3    73  GLU73       0.0388
     42  CG        34.3660    3.6780   46.3090 C.3    73  GLU73       0.1160
     43  CD        35.5670    4.1860   45.5270 C.2    73  GLU73       0.3649
     44  OE1       35.5580    5.3660   45.1190 O.co2  73  GLU73      -0.2457
     45  OE2       36.5190    3.4020   45.3220 O.co2  73  GLU73      -0.2457
     46  N         29.6300    1.7840   50.1030 N.3    76  VAL76      -0.1231
     47  CA        29.6490    2.9560   50.9750 C.3    76  VAL76       0.1692
     48  C         28.9380    4.1700   50.3650 C.2    76  VAL76       0.2591
     49  O         28.1250    4.7850   51.0290 O.2    76  VAL76      -0.2718
     50  CB        31.0910    3.3090   51.3610 C.3    76  VAL76       0.0266
     51  CG1       31.1680    4.7120   51.9300 C.3    76  VAL76       0.0020
     52  CG2       31.5840    2.2940   52.3830 C.3    76  VAL76       0.0020
     53  N         29.2270    4.4880   49.1040 N.am   77  LEU77      -0.1980
     54  CA        28.5330    5.5650   48.4120 C.3    77  LEU77       0.1596
     55  C         27.0230    5.3180   48.3900 C.2    77  LEU77       0.2287
     56  O         26.2340    6.2470   48.6090 O.2    77  LEU77      -0.2864
     57  CB        29.0840    5.7160   46.9810 C.3    77  LEU77       0.0297
     58  CG        30.5400    6.2050   46.9080 C.3    77  LEU77       0.0022
     59  CD1       31.0590    6.2620   45.4580 C.3    77  LEU77       0.0001
     60  CD2       30.6170    7.5810   47.5260 C.3    77  LEU77       0.0001
     61  N         25.8000    6.0230   51.8020 N.3    80  LEU80      -0.1245
     62  CA        25.8200    7.4530   52.1260 C.3    80  LEU80       0.1561
     63  C         24.6520    8.2130   51.4900 C.2    80  LEU80       0.2260
     64  O         24.0970    9.1100   52.1190 O.2    80  LEU80      -0.2867
     65  CB        27.1540    8.1150   51.7020 C.3    80  LEU80       0.0270
     66  CG        28.3780    7.8360   52.5900 C.3    80  LEU80       0.0019
     67  CD1       29.5820    8.5590   52.0410 C.3    80  LEU80       0.0001
     68  CD2       28.1060    8.2950   54.0280 C.3    80  LEU80       0.0001
     69  N         28.7230   16.0940   48.7710 N.3    86  ILE86      -0.1231
     70  CA        29.4930   14.8610   48.6010 C.3    86  ILE86       0.1692
     71  C         29.2970   14.3720   47.1500 C.2    86  ILE86       0.2591
     72  O         28.2360   14.5730   46.5640 O.2    86  ILE86      -0.2718
     73  CB        28.9910   13.8070   49.6060 C.3    86  ILE86       0.0266
     74  CG1       29.1840   14.3600   51.0370 C.3    86  ILE86       0.0019
     75  CG2       29.7130   12.4950   49.4050 C.3    86  ILE86       0.0020
     76  CD1       28.2120   13.8210   52.0690 C.3    86  ILE86       0.0001
     77  N         30.3290   13.7730   46.5680 N.am   87  VAL87      -0.1980
     78  CA        30.2480   13.3070   45.1870 C.3    87  VAL87       0.1595
     79  C         29.0850   12.3040   45.1230 C.2    87  VAL87       0.2287
     80  O         28.8770   11.5250   46.0550 O.2    87  VAL87      -0.2864
     81  CB        31.5980   12.6740   44.7170 C.3    87  VAL87       0.0276
     82  CG1       32.0070   11.5170   45.6370 C.3    87  VAL87       0.0022
     83  CG2       31.4800   12.2160   43.2570 C.3    87  VAL87       0.0022
     84  N         32.9260    2.3860   38.7770 N.3   101  VAL101     -0.1245
     85  CA        31.9360    3.1350   39.5420 C.3   101  VAL101      0.1561
     86  C         31.6460    4.4650   38.8300 C.2   101  VAL101      0.2260
     87  O         32.5610    5.1680   38.4230 O.2   101  VAL101     -0.2867
     88  CB        32.4380    3.3980   40.9930 C.3   101  VAL101      0.0252
     89  CG1       31.4900    4.3500   41.7180 C.3   101  VAL101      0.0019
     90  CG2       32.5220    2.0840   41.7480 C.3   101  VAL101      0.0019
     91  N         29.9850    8.2140   38.8220 N.3   103  THR103     -0.1203
     92  CA        29.5310    9.3580   39.6160 C.3   103  THR103      0.1994
     93  C         29.2730   10.5620   38.7160 C.2   103  THR103      0.2618
     94  O         29.5860   10.5520   37.5220 O.2   103  THR103     -0.2717
     95  CB        30.5830    9.8210   40.6720 C.3   103  THR103      0.1784
     96  OG1       31.7130   10.4090   40.0150 O.3   103  THR103     -0.2211
     97  CG2       31.0600    8.6450   41.5180 C.3   103  THR103      0.0376
     98  N         28.7120   11.6040   39.3080 N.am  104  GLU104     -0.1965
     99  CA        28.5660   12.8840   38.6330 C.3   104  GLU104      0.1733
    100  C         29.9500   13.3870   38.1950 C.2   104  GLU104      0.2616
    101  O         30.9430   13.0360   38.7950 O.2   104  GLU104     -0.2715
    102  CB        27.9200   13.8800   39.6030 C.3   104  GLU104      0.0429
    103  CG        28.7790   14.2270   40.8380 C.3   104  GLU104      0.1163
    104  CD        28.0690   15.2290   41.7520 C.2   104  GLU104      0.3649
    105  OE1       28.0410   15.0020   42.9760 O.co2 104  GLU104     -0.2457
    106  OE2       27.5250   16.2390   41.2310 O.co2 104  GLU104     -0.2457
    107  N         30.0110   14.1870   37.1460 N.am  105  TYR105     -0.1960
    108  CA        31.2480   14.8780   36.7810 C.3   105  TYR105      0.1771
    109  C         31.2770   16.2640   37.4260 C.2   105  TYR105      0.2619
    110  O         30.3230   17.0090   37.2910 O.2   105  TYR105     -0.2715
    111  CB        31.3430   15.0450   35.2570 C.3   105  TYR105      0.0574
    112  CG        32.5710   15.8140   34.7980 C.ar  105  TYR105     -0.0198
    113  CD1       32.4640   17.0820   34.2450 C.ar  105  TYR105     -0.0009
    114  CD2       33.8340   15.2570   34.9050 C.ar  105  TYR105     -0.0009
    115  CE1       33.5810   17.7680   33.8070 C.ar  105  TYR105      0.0417
    116  CE2       34.9560   15.9310   34.4710 C.ar  105  TYR105      0.0417
    117  CZ        34.8310   17.1830   33.9210 C.ar  105  TYR105      0.1957
    118  OH        35.9650   17.8290   33.4840 O.3   105  TYR105     -0.2866
    119  N         32.3710   16.6130   38.1040 N.am  106  CYS106     -0.1968
    120  CA        32.5090   17.9510   38.6950 C.3   106  CYS106      0.1712
    121  C         33.3490   18.8790   37.8090 C.2   106  CYS106      0.2296
    122  O         34.5350   18.6770   37.6530 O.2   106  CYS106     -0.2864
    123  CB        33.1150   17.8390   40.1010 C.3   106  CYS106      0.0983
    124  SG        32.0920   16.8370   41.1990 S.3   106  CYS106     -0.0798
    125  N         36.9140   20.4500   38.5670 N.3   109  GLY109     -0.1210
    126  CA        38.0210   19.5930   38.9320 C.3   109  GLY109      0.1956
    127  C         38.2710   19.5860   40.4340 C.2   109  GLY109      0.2611
    128  O         37.3930   19.9520   41.2130 O.2   109  GLY109     -0.2717
    129  N         39.4650   19.1800   40.8590 N.am  110  ASP110     -0.1973
    130  CA        39.7110   19.0830   42.2900 C.3   110  ASP110      0.1709
    131  C         40.1250   20.4470   42.8500 C.2   110  ASP110      0.2293
    132  O         40.6920   21.2910   42.1360 O.2   110  ASP110     -0.2864
    133  CB        40.7840   18.0330   42.5860 C.3   110  ASP110      0.1436
    134  CG        42.1630   18.5790   42.4260 C.2   110  ASP110      0.3671
    135  OD1       42.6630   18.5910   41.2860 O.co2 110  ASP110     -0.2456
    136  OD2       42.7420   19.0190   43.4370 O.co2 110  ASP110     -0.2456
    137  N         28.9940   13.0300   56.8400 N.3   147  LEU147     -0.1245
    138  CA        29.7840   11.8140   56.9390 C.3   147  LEU147      0.1561
    139  C         29.8570   11.3370   58.3890 C.2   147  LEU147      0.2260
    140  O         29.6070   10.1650   58.6720 O.2   147  LEU147     -0.2867
    141  CB        31.1780   12.0570   56.3890 C.3   147  LEU147      0.0270
    142  CG        31.4770   11.3860   55.0510 C.3   147  LEU147      0.0019
    143  CD1       30.3720   11.6240   54.0590 C.3   147  LEU147      0.0001
    144  CD2       32.8050   11.9020   54.5370 C.3   147  LEU147      0.0001
    145  N         30.8360    7.6040   59.2430 N.3   152  CYS152     -0.1221
    146  CA        31.8240    7.3660   58.2130 C.3   152  CYS152      0.1808
    147  C         33.0330    8.2620   58.5060 C.2   152  CYS152      0.2601
    148  O         32.8910    9.4890   58.6660 O.2   152  CYS152     -0.2717
    149  CB        31.2290    7.7050   56.8510 C.3   152  CYS152      0.0970
    150  SG        32.3580    7.4890   55.4700 S.3   152  CYS152     -0.0800
    151  N         34.2040    7.6350   58.6020 N.am  153  ILE153     -0.1965
    152  CA        35.4520    8.3370   58.8110 C.3   153  ILE153      0.1727
    153  C         36.2100    8.3870   57.4920 C.2   153  ILE153      0.2616
    154  O         36.4050    7.3580   56.8450 O.2   153  ILE153     -0.2715
    155  CB        36.3060    7.6220   59.8780 C.3   153  ILE153      0.0290
    156  CG1       35.6050    7.6900   61.2270 C.3   153  ILE153      0.0022
    157  CG2       37.6610    8.2880   60.0060 C.3   153  ILE153      0.0023
    158  CD1       36.3020    6.8340   62.2860 C.3   153  ILE153      0.0001
    159  N         36.6180    9.5850   57.0900 N.am  154  HIS154     -0.1959
    160  CA        37.2610    9.7640   55.7950 C.3   154  HIS154      0.1787
    161  C         38.7050    9.2630   55.7460 C.2   154  HIS154      0.2620
    162  O         39.0520    8.4800   54.8750 O.2   154  HIS154     -0.2715
    163  CB        37.2310   11.2310   55.3790 C.3   154  HIS154      0.0785
    164  CG        37.5860   11.4470   53.9420 C.ar  154  HIS154      0.0821
    165  ND1       38.8710   11.2970   53.4650 N.ar  154  HIS154     -0.2267
    166  CD2       36.8260   11.7840   52.8760 C.ar  154  HIS154      0.1154
    167  CE1       38.8860   11.5390   52.1650 C.ar  154  HIS154      0.1986
    168  NE2       37.6580   11.8380   51.7820 N.ar  154  HIS154     -0.2212
    169  N         39.5470    9.7290   56.6680 N.am  155  ARG155     -0.1977
    170  CA        40.9700    9.3400   56.6990 C.3   155  ARG155      0.1597
    171  C         41.9380   10.0180   55.7320 C.2   155  ARG155      0.2287
    172  O         43.1410    9.9880   55.9630 O.2   155  ARG155     -0.2864
    173  CB        41.1260    7.8360   56.5250 C.3   155  ARG155      0.0334
    174  CG        40.3410    7.0610   57.5470 C.3   155  ARG155      0.0492
    175  CD        40.7580    5.6170   57.5400 C.3   155  ARG155      0.2205
    176  NE        40.0230    4.8830   58.5610 N.pl3 155  ARG155     -0.0865
    177  CZ        40.4430    3.7510   59.1070 C.cat 155  ARG155      0.5346
    178  NH1       41.6070    3.2260   58.7140 N.pl3 155  ARG155      0.1354
    179  NH2       39.7060    3.1560   60.0550 N.pl3 155  ARG155      0.1354
    180  N         36.2990   18.0100   45.2430 N.3   163  LEU163     -0.1245
    181  CA        36.0470   18.4500   43.8720 C.3   163  LEU163      0.1561
    182  C         35.1680   19.6860   43.9010 C.2   163  LEU163      0.2260
    183  O         34.4690   19.9230   44.8850 O.2   163  LEU163     -0.2867
    184  CB        35.3320   17.3580   43.0800 C.3   163  LEU163      0.0270
    185  CG        36.0690   16.0340   43.0790 C.3   163  LEU163      0.0019
    186  CD1       35.2340   15.0140   42.3320 C.3   163  LEU163      0.0001
    187  CD2       37.4340   16.2210   42.4220 C.3   163  LEU163      0.0001
    188  N         33.0430   16.5860   48.5510 N.3   172  ILE172     -0.1231
    189  CA        34.0150   15.7110   49.1660 C.3   172  ILE172      0.1692
    190  C         34.0710   14.4200   48.3740 C.2   172  ILE172      0.2592
    191  O         33.0440   13.8730   47.9740 O.2   172  ILE172     -0.2718
    192  CB        33.6350   15.4040   50.6390 C.3   172  ILE172      0.0266
    193  CG1       33.6720   16.6970   51.4640 C.3   172  ILE172      0.0019
    194  CG2       34.5700   14.3720   51.1990 C.3   172  ILE172      0.0020
    195  CD1       32.9460   16.6010   52.7900 C.3   172  ILE172      0.0001
    196  N         35.2890   13.9500   48.1380 N.am  173  CYS173     -0.1956
    197  CA        35.5210   12.6830   47.4580 C.3   173  CYS173      0.1843
    198  C         36.7730   12.0070   48.0410 C.2   173  CYS173      0.2625
    199  O         37.3210   12.4630   49.0450 O.2   173  CYS173     -0.2714
    200  CB        35.6960   12.9070   45.9480 C.3   173  CYS173      0.0997
    201  SG        37.2780   13.6930   45.4730 S.3   173  CYS173     -0.0797
    202  N         37.1660   10.8920   47.4210 N.am  174  ASP174     -0.1957
    203  CA        38.3750   10.1630   47.7710 C.3   174  ASP174      0.1840
    204  C         38.7970    9.4010   46.5380 C.2   174  ASP174      0.2622
    205  O         38.0790    8.5300   46.0750 O.2   174  ASP174     -0.2715
    206  CB        38.1210    9.1600   48.8920 C.3   174  ASP174      0.1450
    207  CG        39.4010    8.6840   49.5460 C.2   174  ASP174      0.3671
    208  OD1       40.4950    9.0950   49.1150 O.co2 174  ASP174     -0.2456
    209  OD2       39.3250    7.9030   50.5030 O.co2 174  ASP174     -0.2456
    210  N         39.9590    9.7460   46.0100 N.am  175  PHE175     -0.1974
    211  CA        40.4500    9.1080   44.8010 C.3   175  PHE175      0.1639
    212  C         41.0190    7.7230   45.0130 C.2   175  PHE175      0.2290
    213  O         41.0240    6.9110   44.0870 O.2   175  PHE175     -0.2864
    214  CB        41.4980    9.9810   44.1450 C.3   175  PHE175      0.0560
    215  CG        40.9230   11.1700   43.4560 C.ar  175  PHE175     -0.0200
    216  CD1       40.5350   11.0880   42.1230 C.ar  175  PHE175     -0.0042
    217  CD2       40.7820   12.3760   44.1250 C.ar  175  PHE175     -0.0042
    218  CE1       40.0160   12.2030   41.4630 C.ar  175  PHE175     -0.0003
    219  CE2       40.2670   13.4900   43.4760 C.ar  175  PHE175     -0.0003
    220  CZ        39.8860   13.4060   42.1490 C.ar  175  PHE175     -0.0000
@<TRIPOS>BOND
     1   118   117    1
     2   115   117   ar
     3   115   113   ar
     4   117   116   ar
     5     8     6    1
     6    27    25    1
     7     1     2    1
     8   113   112   ar
     9   116   114   ar
    10    25    26    1
    11    25    22    1
    12     6     7    1
    13     6     5    1
    14   112   114   ar
    15   112   111    1
    16     2     5    1
    17     2     3    1
    18   111   108    1
    19    12    11    2
    20    16    17    1
    21    11    10    1
    22    17    18    1
    23    17    20    1
    24    21    22    1
    25    21    18   am
    26    22    23    1
    27    18    19    2
    28     3     4    2
    29    24    23    2
    30    23    28   am
    31   108   107    1
    32   108   109    1
    33    10     9    1
    34    10    13    1
    35   107   100   am
    36   110   109    2
    37   109   119   am
    38    94    93    2
    39   122   121    2
    40    14    13    1
    41   121   120    1
    42    28    29    1
    43   119   120    1
    44    13    15    1
    45    30    29    1
    46    30    31    2
    47   100    99    1
    48   100   101    2
    49    87    86    2
    50    29    32    1
    51   125   126    1
    52    99    98    1
    53    99   102    1
    54   120   123    1
    55    93    98   am
    56    93    92    1
    57    84    85    1
    58    91    92    1
    59    86    85    1
    60   126   127    1
    61    85    88    1
    62   102   103    1
    63    92    95    1
    64    32    33    1
    65    96    95    1
    66   123   124    1
    67   127   129   am
    68   127   128    2
    69    33    34    1
    70    95    97    1
    71   103   104    1
    72   129   130    1
    73    88    89    1
    74    88    90    1
    75   106   104   ar
    76   135   134   ar
    77   218   216   ar
    78   218   220   ar
    79   104   105   ar
    80   216   215   ar
    81   132   131    2
    82   220   219   ar
    83    34    35    1
    84   130   133    1
    85   130   131    1
    86   186   185    1
    87   187   185    1
    88   134   133    1
    89   134   136   ar
    90    35    36    1
    91   185   184    1
    92   184   181    1
    93    83    81    1
    94   215   217   ar
    95   215   214    1
    96   219   217   ar
    97   181   182    1
    98   181   180    1
    99   182   183    2
   100   213   212    2
   101   214   211    1
   102    81    78    1
   103    81    82    1
   104   211   212    1
   105   211   210    1
   106    44    43   ar
   107    79    78    1
   108    79    80    2
   109    78    77    1
   110    45    43   ar
   111    59    58    1
   112   201   200    1
   113    43    42    1
   114   200   197    1
   115   210   204   am
   116   205   204    2
   117    42    41    1
   118   204   203    1
   119    72    71    2
   120    77    71   am
   121    41    38    1
   122    58    57    1
   123    58    60    1
   124    57    54    1
   125    71    70    1
   126    39    40    2
   127    39    38    1
   128   202   203    1
   129   202   198   am
   130   197   198    1
   131   197   196    1
   132   203   206    1
   133    38    37    1
   134   191   190    2
   135   198   199    2
   136   196   190   am
   137   190   189    1
   138    55    54    1
   139    55    56    2
   140    54    53    1
   141   188   189    1
   142    70    69    1
   143    70    73    1
   144   206   207    1
   145    53    48   am
   146   208   207   ar
   147   189   192    1
   148    75    73    1
   149   207   209   ar
   150    73    74    1
   151    46    47    1
   152    48    47    1
   153    48    49    2
   154   192   194    1
   155   192   193    1
   156    47    50    1
   157    74    76    1
   158    50    51    1
   159    50    52    1
   160   193   195    1
   161    63    64    2
   162    63    62    1
   163    65    62    1
   164    65    66    1
   165   168   167   ar
   166   168   166   ar
   167    61    62    1
   168    67    66    1
   169   167   165   ar
   170    66    68    1
   171   166   164   ar
   172   165   164   ar
   173   164   163    1
   174   143   142    1
   175   144   142    1
   176   162   161    2
   177   142   141    1
   178   163   160    1
   179   150   149    1
   180   171   172    2
   181   171   170    1
   182   161   160    1
   183   161   169   am
   184   160   159    1
   185   141   138    1
   186   173   170    1
   187   173   174    1
   188   169   170    1
   189   137   138    1
   190   154   153    2
   191   149   146    1
   192   138   139    1
   193   159   153   am
   194   153   152    1
   195   175   174    1
   196   175   176    1
   197   146   147    1
   198   146   145    1
   199   139   140    2
   200   147   151   am
   201   147   148    2
   202   176   177    2
   203   151   152    1
   204   178   177    1
   205   152   155    1
   206   177   179    1
   207   155   157    1
   208   155   156    1
   209   156   158    1
