@<TRIPOS>MOLECULE
tmp/4u0oA01.pdb
 163 155 0 0 0
SMALL
GASTEIGER

@<TRIPOS>ATOM
      1  N          8.4030   51.5020   20.4210 N.3    21  ILE21      -0.1245
      2  CA         8.0150   52.8940   20.6390 C.3    21  ILE21       0.1561
      3  C          8.0880   53.4590   19.2280 C.2    21  ILE21       0.2260
      4  O          7.4040   54.4360   18.9080 O.2    21  ILE21      -0.2867
      5  CB         8.9240   53.6290   21.6660 C.3    21  ILE21       0.0252
      6  CG1        8.3530   55.0110   21.9900 C.3    21  ILE21       0.0019
      7  CG2       10.3120   53.7880   21.0950 C.3    21  ILE21       0.0019
      8  CD1        6.9380   54.9960   22.5450 C.3    21  ILE21       0.0001
      9  N         13.6600   50.1970   18.5200 N.3    40  THR40      -0.1218
     10  CA        13.4140   50.4510   19.9420 C.3    40  THR40       0.1862
     11  C         12.1260   49.8240   20.4710 C.2    40  THR40       0.2287
     12  O         11.0220   50.1850   20.0770 O.2    40  THR40      -0.2866
     13  CB        13.3810   51.9470   20.2090 C.3    40  THR40       0.1770
     14  OG1       14.6030   52.4990   19.7290 O.3    40  THR40      -0.2211
     15  CG2       13.2930   52.2400   21.7190 C.3    40  THR40       0.0375
     16  N          4.0880   65.7650   25.5720 N.3    54  PHE54      -0.1227
     17  CA         4.7240   65.5990   24.2670 C.3    54  PHE54       0.1736
     18  C          4.6050   64.1930   23.7000 C.2    54  PHE54       0.2596
     19  O          4.8620   63.9580   22.5190 O.2    54  PHE54      -0.2718
     20  CB         6.2080   65.9650   24.3850 C.3    54  PHE54       0.0547
     21  CG         7.0100   65.0020   25.2110 C.ar   54  PHE54      -0.0202
     22  CD1        7.5240   63.8440   24.6480 C.ar   54  PHE54      -0.0042
     23  CD2        7.2620   65.2580   26.5560 C.ar   54  PHE54      -0.0042
     24  CE1        8.2560   62.9540   25.4330 C.ar   54  PHE54      -0.0003
     25  CE2        7.9910   64.4030   27.3100 C.ar   54  PHE54      -0.0003
     26  CZ         8.4880   63.2290   26.7450 C.ar   54  PHE54      -0.0000
     27  N          4.2170   63.2440   24.5520 N.am   55  CYS55      -0.1956
     28  CA         4.3850   61.8290   24.2200 C.3    55  CYS55       0.1843
     29  C          3.1450   61.1740   23.6140 C.2    55  CYS55       0.2625
     30  O          2.0240   61.3340   24.1100 O.2    55  CYS55      -0.2714
     31  CB         4.7830   61.1130   25.4820 C.3    55  CYS55       0.0997
     32  SG         5.0650   59.3310   25.2750 S.3    55  CYS55      -0.0797
     33  N          3.3640   60.4000   22.5590 N.am   56  GLN56      -0.1977
     34  CA         2.2690   59.8250   21.7840 C.3    56  GLN56       0.1601
     35  C          1.8690   58.4280   22.2530 C.2    56  GLN56       0.2287
     36  O          0.9860   57.8090   21.6780 O.2    56  GLN56      -0.2864
     37  CB         2.6250   59.7890   20.2950 C.3    56  GLN56       0.0394
     38  CG         2.6200   61.1680   19.6290 C.3    56  GLN56       0.0908
     39  CD         2.5990   61.1030   18.0960 C.2    56  GLN56       0.2608
     40  OE1        2.0090   61.9650   17.4350 O.2    56  GLN56      -0.2717
     41  NE2        3.2550   60.0840   17.5290 N.am   56  GLN56      -0.0878
     42  N         13.2130   50.3860   25.8470 N.3    89  THR89      -0.1218
     43  CA        12.6280   51.4350   26.6830 C.3    89  THR89       0.1862
     44  C         11.3470   50.9200   27.3270 C.2    89  THR89       0.2287
     45  O         10.9580   49.7730   27.1280 O.2    89  THR89      -0.2866
     46  CB        12.4210   52.7540   25.8870 C.3    89  THR89       0.1770
     47  OG1       12.1920   53.8210   26.8210 O.3    89  THR89      -0.2211
     48  CG2       11.2590   52.6610   24.9090 C.3    89  THR89       0.0375
     49  N         16.9420   52.8500   27.4050 N.3   123  LEU123     -0.1245
     50  CA        16.3860   54.1920   27.6270 C.3   123  LEU123      0.1561
     51  C         15.3920   54.0490   28.7650 C.2   123  LEU123      0.2260
     52  O         14.2830   53.5410   28.5720 O.2   123  LEU123     -0.2867
     53  CB        15.7030   54.7060   26.3580 C.3   123  LEU123      0.0270
     54  CG        14.8550   56.0050   26.5180 C.3   123  LEU123      0.0019
     55  CD1       15.6320   57.1180   27.1510 C.3   123  LEU123      0.0001
     56  CD2       14.2910   56.4070   25.2170 C.3   123  LEU123      0.0001
     57  N         16.4970   60.5810   29.1720 N.3   154  ASN154     -0.1240
     58  CA        16.3050   61.8860   28.5530 C.3   154  ASN154      0.1653
     59  C         15.7850   62.9310   29.5200 C.2   154  ASN154      0.2266
     60  O         14.7790   62.7710   30.1930 O.2   154  ASN154     -0.2867
     61  CB        15.4000   61.7710   27.3520 C.3   154  ASN154      0.1155
     62  CG        16.0360   60.9910   26.2250 C.2   154  ASN154      0.2627
     63  OD1       17.2590   61.0010   26.0790 O.2   154  ASN154     -0.2716
     64  ND2       15.2240   60.3530   25.4040 N.am  154  ASN154     -0.0877
     65  N         14.8630   65.8810   28.2330 N.3   156  GLU156     -0.1245
     66  CA        13.7540   66.3510   27.3950 C.3   156  GLU156      0.1567
     67  C         13.7050   67.8640   27.1910 C.2   156  GLU156      0.2260
     68  O         13.6020   68.2790   26.0520 O.2   156  GLU156     -0.2867
     69  CB        12.3900   65.9320   27.8770 C.3   156  GLU156      0.0388
     70  CG        12.3030   64.4080   28.1390 C.3   156  GLU156      0.1160
     71  CD        12.3540   63.5460   26.9080 C.2   156  GLU156      0.3649
     72  OE1       12.0470   62.3030   27.0450 O.co2 156  GLU156     -0.2457
     73  OE2       12.7410   64.0200   25.8340 O.co2 156  GLU156     -0.2457
     74  N         18.9240   63.1770   25.7600 N.3   193  GLY193     -0.1210
     75  CA        18.4390   63.9790   24.6470 C.3   193  GLY193      0.1956
     76  C         17.5400   65.0900   25.1170 C.2   193  GLY193      0.2612
     77  O         16.9100   65.0130   26.1750 O.2   193  GLY193     -0.2717
     78  N         17.5010   66.1620   24.3210 N.am  194  LEU194     -0.1965
     79  CA        16.5430   67.2420   24.5060 C.3   194  LEU194      0.1728
     80  C         15.7090   67.3790   23.2120 C.2   194  LEU194      0.2616
     81  O         16.1670   67.0420   22.0850 O.2   194  LEU194     -0.2715
     82  CB        17.2440   68.5890   24.7880 C.3   194  LEU194      0.0311
     83  CG        18.2630   68.6820   25.8970 C.3   194  LEU194      0.0022
     84  CD1       18.9110   70.0750   25.8770 C.3   194  LEU194      0.0001
     85  CD2       17.5640   68.4160   27.2260 C.3   194  LEU194      0.0001
     86  N         14.4620   67.8200   23.3680 N.am  195  MET195     -0.1977
     87  CA        13.6190   68.2330   22.2500 C.3   195  MET195      0.1605
     88  C         13.6050   69.7780   22.2540 C.2   195  MET195      0.2287
     89  O         13.3400   70.3780   23.3040 O.2   195  MET195     -0.2864
     90  CB        12.1910   67.7290   22.4290 C.3   195  MET195      0.0413
     91  CG        12.0360   66.1840   22.4370 C.3   195  MET195      0.0598
     92  SD        10.3690   65.7310   22.9340 S.3   195  MET195     -0.1393
     93  CE        10.4260   66.1610   24.6640 C.3   195  MET195      0.0692
     94  N         16.8780   67.1260   18.9660 N.3   223  GLY223     -0.1210
     95  CA        15.9110   67.0070   17.9120 C.3   223  GLY223      0.1956
     96  C         14.7920   68.0190   18.0990 C.2   223  GLY223      0.2612
     97  O         14.7320   68.7270   19.1210 O.2   223  GLY223     -0.2717
     98  N         13.9270   68.1130   17.0970 N.am  224  GLN224     -0.1965
     99  CA        12.8380   69.0530   17.1100 C.3   224  GLN224      0.1733
    100  C         11.5980   68.4340   17.7080 C.2   224  GLN224      0.2616
    101  O         11.2110   67.3180   17.3160 O.2   224  GLN224     -0.2715
    102  CB        12.5580   69.5470   15.6740 C.3   224  GLN224      0.0408
    103  CG        11.2760   70.3440   15.5090 C.3   224  GLN224      0.0908
    104  CD        11.4410   71.8150   15.9640 C.2   224  GLN224      0.2608
    105  OE1       12.4620   72.4440   15.6890 O.2   224  GLN224     -0.2717
    106  NE2       10.4760   72.3060   16.7340 N.am  224  GLN224     -0.0878
    107  N         10.9980   69.1520   18.6630 N.am  225  TYR225     -0.1960
    108  CA         9.6620   68.8610   19.1510 C.3   225  TYR225      0.1771
    109  C          8.6170   68.9070   18.0430 C.2   225  TYR225      0.2619
    110  O          8.4280   69.9540   17.3860 O.2   225  TYR225     -0.2715
    111  CB         9.2470   69.8110   20.2730 C.3   225  TYR225      0.0574
    112  CG         7.8200   69.6370   20.7020 C.ar  225  TYR225     -0.0198
    113  CD1        7.3700   68.4070   21.1620 C.ar  225  TYR225     -0.0009
    114  CD2        6.8980   70.6800   20.6140 C.ar  225  TYR225     -0.0009
    115  CE1        6.0850   68.2260   21.5510 C.ar  225  TYR225      0.0417
    116  CE2        5.5850   70.5040   21.0070 C.ar  225  TYR225      0.0417
    117  CZ         5.1830   69.2390   21.4730 C.ar  225  TYR225      0.1957
    118  OH         3.8950   69.0000   21.8980 O.3   225  TYR225     -0.2866
    119  N          7.9110   67.7950   17.8530 N.am  226  LEU226     -0.1977
    120  CA         6.8030   67.7190   16.8880 C.3   226  LEU226      0.1596
    121  C          5.5180   67.4150   17.6410 C.2   226  LEU226      0.2287
    122  O          5.3380   66.3070   18.1340 O.2   226  LEU226     -0.2864
    123  CB         7.0620   66.6370   15.8420 C.3   226  LEU226      0.0297
    124  CG         8.3080   66.8520   14.9840 C.3   226  LEU226      0.0022
    125  CD1        8.5380   65.7120   14.0300 C.3   226  LEU226      0.0001
    126  CD2        8.2170   68.1750   14.2010 C.3   226  LEU226      0.0001
    127  N          2.1070   66.1110   18.9320 N.3   228  PRO228     -0.2116
    128  CA         1.0490   65.1660   18.5490 C.3   228  PRO228      0.1372
    129  C         -0.2560   65.8890   18.2580 C.2   228  PRO228      0.2244
    130  O         -0.5620   66.8870   18.9110 O.2   228  PRO228     -0.2868
    131  CB         0.8880   64.2870   19.7840 C.3   228  PRO228      0.0268
    132  CG         2.1850   64.4150   20.5290 C.3   228  PRO228      0.0207
    133  CD         2.6410   65.8220   20.2760 C.3   228  PRO228      0.0892
    134  N         16.0440   64.0390   14.6330 N.3   265  VAL265     -0.1231
    135  CA        16.7780   63.2280   15.6260 C.3   265  VAL265      0.1692
    136  C         15.9240   62.8960   16.8550 C.2   265  VAL265      0.2592
    137  O         15.0990   63.6900   17.3340 O.2   265  VAL265     -0.2718
    138  CB        18.1040   63.9270   16.0090 C.3   265  VAL265      0.0266
    139  CG1       18.8010   63.2570   17.1990 C.3   265  VAL265      0.0020
    140  CG2       19.0330   63.9800   14.8330 C.3   265  VAL265      0.0020
    141  N         16.1320   61.6700   17.3480 N.am  266  ARG266     -0.1966
    142  CA        15.5790   61.1950   18.6040 C.3   266  ARG266      0.1729
    143  C         16.7040   60.4600   19.3020 C.2   266  ARG266      0.2617
    144  O         17.7080   60.1360   18.6910 O.2   266  ARG266     -0.2715
    145  CB        14.4370   60.1900   18.3840 C.3   266  ARG266      0.0348
    146  CG        13.4290   60.5930   17.3020 C.3   266  ARG266      0.0492
    147  CD        12.0140   60.5900   17.8670 C.3   266  ARG266      0.2205
    148  NE        11.0550   61.2330   16.9650 N.pl3 266  ARG266     -0.0865
    149  CZ         9.7390   61.2510   17.1670 C.cat 266  ARG266      0.5346
    150  NH1        8.9400   61.8680   16.3040 N.pl3 266  ARG266      0.1354
    151  NH2        9.2230   60.6630   18.2400 N.pl3 266  ARG266      0.1354
    152  N         16.5580   60.2020   20.6010 N.am  267  SER267     -0.1936
    153  CA        17.7260   59.7360   21.3540 C.3   267  SER267      0.2055
    154  C         18.2080   58.3500   20.8930 C.2   267  SER267      0.2643
    155  O         19.3810   58.0580   21.0310 O.2   267  SER267     -0.2714
    156  CB        17.4940   59.7970   22.8910 C.3   267  SER267      0.2130
    157  OG        16.5230   58.8670   23.3030 O.3   267  SER267     -0.2179
    158  N         17.3130   57.5230   20.3510 N.am  268  SER268     -0.1949
    159  CA        17.6860   56.2220   19.7560 C.3   268  SER268      0.1924
    160  C         18.2840   56.2550   18.3250 C.2   268  SER268      0.2314
    161  O         18.7810   55.2340   17.8090 O.2   268  SER268     -0.2863
    162  CB        16.4550   55.2880   19.7840 C.3   268  SER268      0.2116
    163  OG        15.3460   55.9000   19.1050 O.3   268  SER268     -0.2180
@<TRIPOS>BOND
     1   125   124    1
     2   126   124    1
     3   134   135    1
     4   140   138    1
     5   124   123    1
     6   103   102    1
     7   103   104    1
     8   135   138    1
     9   135   136    1
    10   102    99    1
    11   105   104    2
    12   123   120    1
    13   104   106   am
    14   138   139    1
    15   150   149    1
    16   136   137    2
    17   136   141   am
    18   120   121    1
    19   120   119    1
    20   148   149    2
    21   148   147    1
    22    98    99    1
    23    98    96   am
    24    99   100    1
    25   149   151    1
    26   146   147    1
    27   146   145    1
    28   101   100    2
    29   141   142    1
    30   110   109    2
    31    40    39    2
    32    41    39   am
    33   121   122    2
    34   100   107   am
    35   161   160    2
    36   119   109   am
    37    95    96    1
    38    95    94    1
    39   109   108    1
    40    39    38    1
    41    96    97    2
    42   129   128    1
    43   129   130    2
    44   160   159    1
    45   145   142    1
    46     9    10    1
    47   128   127    1
    48   128   131    1
    49   142   143    1
    50   107   108    1
    51   144   143    2
    52     4     3    2
    53   127   133    1
    54   163   162    1
    55   108   111    1
    56     3     2    1
    57   143   152   am
    58    38    37    1
    59    14    13    1
    60   159   162    1
    61   159   158    1
    62   131   132    1
    63    10    13    1
    64    10    11    1
    65    12    11    2
    66    13    15    1
    67   111   112    1
    68   133   132    1
    69    37    34    1
    70   158   154   am
    71     1     2    1
    72   152   153    1
    73   114   112   ar
    74   114   116   ar
    75     2     5    1
    76   112   113   ar
    77   154   155    2
    78   154   153    1
    79   116   117   ar
    80     7     5    1
    81   113   115   ar
    82   153   156    1
    83   117   115   ar
    84   117   118    1
    85     5     6    1
    86    36    35    2
    87    34    35    1
    88    34    33    1
    89     6     8    1
    90    81    80    2
    91    87    88    1
    92    87    90    1
    93    87    86    1
    94    88    89    2
    95    90    91    1
    96    91    92    1
    97    19    18    2
    98    33    29   am
    99   156   157    1
   100    92    93    1
   101    80    86   am
   102    80    79    1
   103    29    30    2
   104    29    28    1
   105    18    17    1
   106    18    27   am
   107    28    27    1
   108    28    31    1
   109    17    20    1
   110    17    16    1
   111    78    79    1
   112    78    76   am
   113    20    21    1
   114    79    82    1
   115    75    76    1
   116    75    74    1
   117    22    21   ar
   118    22    24   ar
   119    82    83    1
   120    48    46    1
   121    76    77    2
   122    21    23   ar
   123    56    54    1
   124    32    31    1
   125    64    62   am
   126    24    26   ar
   127    73    71   ar
   128    42    43    1
   129    84    83    1
   130    46    43    1
   131    46    47    1
   132    83    85    1
   133    68    67    2
   134    63    62    2
   135    62    61    1
   136    53    54    1
   137    53    50    1
   138    54    55    1
   139    23    25   ar
   140    43    44    1
   141    26    25   ar
   142    71    72   ar
   143    71    70    1
   144    45    44    2
   145    67    66    1
   146    61    58    1
   147    66    69    1
   148    66    65    1
   149    49    50    1
   150    50    51    1
   151    69    70    1
   152    58    57    1
   153    58    59    1
   154    52    51    2
   155    59    60    2
