@<TRIPOS>MOLECULE
tmp/4u0oA00.pdb
 143 136 0 0 0
SMALL
GASTEIGER

@<TRIPOS>ATOM
      1  N          8.4030   51.5020   20.4210 N.3    21  ILE21      -0.1245
      2  CA         8.0150   52.8940   20.6390 C.3    21  ILE21       0.1561
      3  C          8.0880   53.4590   19.2280 C.2    21  ILE21       0.2260
      4  O          7.4040   54.4360   18.9080 O.2    21  ILE21      -0.2867
      5  CB         8.9240   53.6290   21.6660 C.3    21  ILE21       0.0252
      6  CG1        8.3530   55.0110   21.9900 C.3    21  ILE21       0.0019
      7  CG2       10.3120   53.7880   21.0950 C.3    21  ILE21       0.0019
      8  CD1        6.9380   54.9960   22.5450 C.3    21  ILE21       0.0001
      9  N          9.3170   48.7500   23.2620 N.3    42  LEU42      -0.1245
     10  CA         8.6390   49.3860   24.3850 C.3    42  LEU42       0.1561
     11  C          8.1380   48.3210   25.3230 C.2    42  LEU42       0.2260
     12  O          7.2570   47.5240   24.9490 O.2    42  LEU42      -0.2867
     13  CB         7.4370   50.2010   23.9140 C.3    42  LEU42       0.0270
     14  CG         6.6150   50.8860   25.0240 C.3    42  LEU42       0.0019
     15  CD1        7.3700   52.0720   25.5680 C.3    42  LEU42       0.0001
     16  CD2        5.2470   51.3210   24.4640 C.3    42  LEU42       0.0001
     17  N          1.3420   57.9410   33.0850 N.3    50  ARG50      -0.1245
     18  CA         1.8220   59.3080   33.2790 C.3    50  ARG50       0.1563
     19  C          1.2530   60.2130   32.2300 C.2    50  ARG50       0.2260
     20  O          0.5460   59.7730   31.3490 O.2    50  ARG50      -0.2867
     21  CB         3.3410   59.4090   33.2980 C.3    50  ARG50       0.0307
     22  CG         3.9710   58.8350   34.5650 C.3    50  ARG50       0.0489
     23  CD         5.3550   59.4140   34.7950 C.3    50  ARG50       0.2205
     24  NE         6.0210   58.7860   35.9330 N.pl3  50  ARG50      -0.0865
     25  CZ         7.2950   58.9800   36.2610 C.cat  50  ARG50       0.5346
     26  NH1        8.0620   59.8010   35.5400 N.pl3  50  ARG50       0.1354
     27  NH2        7.8050   58.3500   37.3040 N.pl3  50  ARG50       0.1354
     28  N          4.0880   65.7650   25.5720 N.3    54  PHE54      -0.1227
     29  CA         4.7240   65.5990   24.2670 C.3    54  PHE54       0.1736
     30  C          4.6050   64.1930   23.7000 C.2    54  PHE54       0.2595
     31  O          4.8620   63.9580   22.5190 O.2    54  PHE54      -0.2718
     32  CB         6.2080   65.9650   24.3850 C.3    54  PHE54       0.0547
     33  CG         7.0100   65.0020   25.2110 C.ar   54  PHE54      -0.0202
     34  CD1        7.5240   63.8440   24.6480 C.ar   54  PHE54      -0.0042
     35  CD2        7.2620   65.2580   26.5560 C.ar   54  PHE54      -0.0042
     36  CE1        8.2560   62.9540   25.4330 C.ar   54  PHE54      -0.0003
     37  CE2        7.9910   64.4030   27.3100 C.ar   54  PHE54      -0.0003
     38  CZ         8.4880   63.2290   26.7450 C.ar   54  PHE54      -0.0000
     39  N          4.2170   63.2440   24.5520 N.am   55  CYS55      -0.1970
     40  CA         4.3850   61.8290   24.2200 C.3    55  CYS55       0.1712
     41  C          3.1450   61.1740   23.6140 C.2    55  CYS55       0.2296
     42  O          2.0240   61.3340   24.1100 O.2    55  CYS55      -0.2864
     43  CB         4.7830   61.1130   25.4820 C.3    55  CYS55       0.0983
     44  SG         5.0650   59.3310   25.2750 S.3    55  CYS55      -0.0798
     45  N          2.4880   57.9270   23.3080 N.3    57  VAL57      -0.1245
     46  CA         2.0360   56.6500   23.8220 C.3    57  VAL57       0.1561
     47  C          0.5980   56.8290   24.3060 C.2    57  VAL57       0.2260
     48  O          0.2840   57.8270   24.9640 O.2    57  VAL57      -0.2867
     49  CB         2.9750   56.1310   24.9070 C.3    57  VAL57       0.0252
     50  CG1        2.3830   54.9370   25.5910 C.3    57  VAL57       0.0019
     51  CG2        4.3170   55.7820   24.2740 C.3    57  VAL57       0.0019
     52  N         13.2130   50.3860   25.8470 N.3    89  THR89      -0.1203
     53  CA        12.6280   51.4350   26.6830 C.3    89  THR89       0.1994
     54  C         11.3470   50.9200   27.3270 C.2    89  THR89       0.2619
     55  O         10.9580   49.7730   27.1280 O.2    89  THR89      -0.2717
     56  CB        12.4210   52.7540   25.8870 C.3    89  THR89       0.1784
     57  OG1       12.1920   53.8210   26.8210 O.3    89  THR89      -0.2211
     58  CG2       11.2590   52.6610   24.9090 C.3    89  THR89       0.0376
     59  N         10.6880   51.7590   28.1150 N.am   90  SER90      -0.1937
     60  CA         9.4350   51.3620   28.7220 C.3    90  SER90       0.2055
     61  C          8.5960   52.5810   29.0120 C.2    90  SER90       0.2643
     62  O          9.0640   53.7140   28.9690 O.2    90  SER90      -0.2714
     63  CB         9.6660   50.6070   30.0360 C.3    90  SER90       0.2130
     64  OG        10.1390   51.4500   31.0620 O.3    90  SER90      -0.2179
     65  N          7.3320   52.3210   29.2730 N.am   91  VAL91      -0.1963
     66  CA         6.4740   53.3390   29.8630 C.3    91  VAL91       0.1727
     67  C          6.8710   53.4270   31.3500 C.2    91  VAL91       0.2616
     68  O          7.5270   52.5210   31.8840 O.2    91  VAL91      -0.2715
     69  CB         4.9950   52.9610   29.7210 C.3    91  VAL91       0.0290
     70  CG1        4.6160   52.7980   28.2500 C.3    91  VAL91       0.0023
     71  CG2        4.6940   51.7080   30.5190 C.3    91  VAL91       0.0023
     72  N          6.4720   54.5060   32.0390 N.am   92  ALA92      -0.1977
     73  CA         6.7140   54.5860   33.5010 C.3    92  ALA92       0.1597
     74  C          5.7350   53.6550   34.1650 C.2    92  ALA92       0.2287
     75  O          4.5770   53.6180   33.7600 O.2    92  ALA92      -0.2864
     76  CB         6.4870   56.0080   34.0560 C.3    92  ALA92       0.0319
     77  N         16.9420   52.8500   27.4050 N.3   123  LEU123     -0.1231
     78  CA        16.3860   54.1920   27.6270 C.3   123  LEU123      0.1693
     79  C         15.3920   54.0490   28.7650 C.2   123  LEU123      0.2593
     80  O         14.2830   53.5410   28.5720 O.2   123  LEU123     -0.2718
     81  CB        15.7030   54.7060   26.3580 C.3   123  LEU123      0.0284
     82  CG        14.8550   56.0050   26.5180 C.3   123  LEU123      0.0019
     83  CD1       15.6320   57.1180   27.1510 C.3   123  LEU123      0.0001
     84  CD2       14.2910   56.4070   25.2170 C.3   123  LEU123      0.0001
     85  N         15.7890   54.4420   29.9760 N.am  124  SER124     -0.1939
     86  CA        14.9560   54.1240   31.1410 C.3   124  SER124      0.2040
     87  C         14.1090   55.3010   31.5660 C.2   124  SER124      0.2485
     88  O         14.4710   56.4450   31.3170 O.2   124  SER124     -0.2729
     89  CB        15.7560   53.6310   32.3520 C.3   124  SER124      0.2129
     90  OG        16.3150   54.6580   33.1330 O.3   124  SER124     -0.2179
     91  N         12.9900   54.9950   32.2300 N.am  125  PRO125     -0.2715
     92  CA        12.3350   56.0630   32.9900 C.3   125  PRO125      0.1536
     93  C         13.1800   56.4680   34.1690 C.2   125  PRO125      0.2598
     94  O         14.2870   55.9960   34.3990 O.2   125  PRO125     -0.2715
     95  CB        11.0290   55.4410   33.4910 C.3   125  PRO125      0.0310
     96  CG        11.0520   54.0290   33.0400 C.3   125  PRO125      0.0237
     97  CD        12.4130   53.6870   32.5300 C.3   125  PRO125      0.0939
     98  N         12.6570   57.4130   34.9390 N.am  126  ASP126     -0.1972
     99  CA        13.4200   57.9300   36.0350 C.3   126  ASP126      0.1709
    100  C         13.4080   57.0920   37.3290 C.2   126  ASP126      0.2293
    101  O         14.2760   57.2830   38.1530 O.2   126  ASP126     -0.2864
    102  CB        13.0030   59.3670   36.3070 C.3   126  ASP126      0.1436
    103  CG        11.5370   59.5210   36.6820 C.2   126  ASP126      0.3671
    104  OD1       10.9150   58.5680   37.1920 O.co2 126  ASP126     -0.2456
    105  OD2       11.0000   60.6520   36.4980 O.co2 126  ASP126     -0.2456
    106  N         18.9650   58.3270   29.4900 N.3   153  HIS153     -0.1226
    107  CA        17.7970   58.8380   30.1780 C.3   153  HIS153      0.1752
    108  C         17.6440   60.2860   29.7340 C.2   153  HIS153      0.2596
    109  O         18.5660   61.0480   29.8560 O.2   153  HIS153     -0.2718
    110  CB        17.9070   58.7470   31.7050 C.3   153  HIS153      0.0759
    111  CG        16.7420   59.3580   32.4060 C.ar  153  HIS153      0.0818
    112  ND1       15.4760   58.8010   32.3970 N.ar  153  HIS153     -0.2268
    113  CD2       16.6350   60.5220   33.0900 C.ar  153  HIS153      0.1154
    114  CE1       14.6430   59.6100   33.0350 C.ar  153  HIS153      0.1986
    115  NE2       15.3190   60.6650   33.4510 N.ar  153  HIS153     -0.2212
    116  N         16.4970   60.5810   29.1720 N.am  154  ASN154     -0.1974
    117  CA        16.3050   61.8860   28.5530 C.3   154  ASN154      0.1688
    118  C         15.7850   62.9310   29.5200 C.2   154  ASN154      0.2292
    119  O         14.7790   62.7710   30.1930 O.2   154  ASN154     -0.2864
    120  CB        15.4000   61.7710   27.3520 C.3   154  ASN154      0.1181
    121  CG        16.0360   60.9910   26.2250 C.2   154  ASN154      0.2629
    122  OD1       17.2590   61.0010   26.0790 O.2   154  ASN154     -0.2716
    123  ND2       15.2240   60.3530   25.4040 N.am  154  ASN154     -0.0877
    124  N         14.8630   65.8810   28.2330 N.3   156  GLU156     -0.1245
    125  CA        13.7540   66.3510   27.3950 C.3   156  GLU156      0.1567
    126  C         13.7050   67.8640   27.1910 C.2   156  GLU156      0.2260
    127  O         13.6020   68.2790   26.0520 O.2   156  GLU156     -0.2867
    128  CB        12.3900   65.9320   27.8770 C.3   156  GLU156      0.0388
    129  CG        12.3030   64.4080   28.1390 C.3   156  GLU156      0.1160
    130  CD        12.3540   63.5460   26.9080 C.2   156  GLU156      0.3649
    131  OE1       12.0470   62.3030   27.0450 O.co2 156  GLU156     -0.2457
    132  OE2       12.7410   64.0200   25.8340 O.co2 156  GLU156     -0.2457
    133  N          6.7370   67.8040   31.0560 N.3   166  ARG166     -0.1245
    134  CA         6.8580   66.4490   31.6430 C.3   166  ARG166      0.1563
    135  C          6.2370   66.4180   33.0140 C.2   166  ARG166      0.2260
    136  O          6.9180   66.0360   33.9770 O.2   166  ARG166     -0.2867
    137  CB         8.3160   66.1200   31.9220 C.3   166  ARG166      0.0307
    138  CG         9.3070   66.4970   30.9660 C.3   166  ARG166      0.0489
    139  CD        10.6550   66.3220   31.5730 C.3   166  ARG166      0.2205
    140  NE        11.0160   64.8920   31.6080 N.pl3 166  ARG166     -0.0865
    141  CZ        11.9960   64.3830   32.3370 C.cat 166  ARG166      0.5346
    142  NH1       12.7010   65.1230   33.1560 N.pl3 166  ARG166      0.1354
    143  NH2       12.2430   63.0620   32.2720 N.pl3 166  ARG166      0.1354
@<TRIPOS>BOND
     1     4     3    2
     2     3     2    1
     3     1     2    1
     4     2     5    1
     5     7     5    1
     6     5     6    1
     7     6     8    1
     8    31    30    2
     9     9    10    1
    10    45    46    1
    11    41    42    2
    12    41    40    1
    13    30    29    1
    14    30    39   am
    15    46    47    1
    16    46    49    1
    17    13    10    1
    18    13    14    1
    19    40    39    1
    20    40    43    1
    21    29    32    1
    22    29    28    1
    23    51    49    1
    24    47    48    2
    25    10    11    1
    26    32    33    1
    27    16    14    1
    28    34    33   ar
    29    34    36   ar
    30    49    50    1
    31    58    56    1
    32    12    11    2
    33    14    15    1
    34    33    35   ar
    35    84    82    1
    36    44    43    1
    37   123   121   am
    38    36    38   ar
    39   132   130   ar
    40    52    53    1
    41    56    53    1
    42    56    57    1
    43   127   126    2
    44   122   121    2
    45   121   120    1
    46    81    82    1
    47    81    78    1
    48    82    83    1
    49    35    37   ar
    50    53    54    1
    51    38    37   ar
    52   130   131   ar
    53   130   129    1
    54    55    54    2
    55   126   125    1
    56    54    59   am
    57   120   117    1
    58   125   128    1
    59   125   124    1
    60    77    78    1
    61    78    79    1
    62   128   129    1
    63    59    60    1
    64    70    69    1
    65   117   116    1
    66   117   118    1
    67    80    79    2
    68    60    61    1
    69    60    63    1
    70    79    85   am
    71    62    61    2
    72    61    65   am
    73   116   108   am
    74    65    66    1
    75   106   107    1
    76   118   119    2
    77    69    66    1
    78    69    71    1
    79   108   109    2
    80   108   107    1
    81    66    67    1
    82    85    86    1
    83    63    64    1
    84   107   110    1
    85   138   139    1
    86   138   137    1
    87   133   134    1
    88    86    87    1
    89    86    89    1
    90    88    87    2
    91    20    19    2
    92    67    68    2
    93    67    72   am
    94    87    91   am
    95   139   140    1
    96   140   141    2
    97   134   137    1
    98   134   135    1
    99   110   111    1
   100    72    73    1
   101    19    18    1
   102    91    97    1
   103    91    92    1
   104   143   141    1
   105   141   142    1
   106    89    90    1
   107   112   111   ar
   108   112   114   ar
   109   111   113   ar
   110    97    96    1
   111    92    95    1
   112    92    93    1
   113   135   136    2
   114   114   115   ar
   115    96    95    1
   116    17    18    1
   117   113   115   ar
   118    18    21    1
   119    21    22    1
   120    73    76    1
   121    73    74    1
   122    75    74    2
   123    93    94    2
   124    93    98   am
   125    22    23    1
   126    23    24    1
   127    98    99    1
   128    26    25    1
   129    24    25    2
   130    99   102    1
   131    99   100    1
   132    25    27    1
   133   102   103    1
   134   105   103   ar
   135   103   104   ar
   136   100   101    2
