@<TRIPOS>MOLECULE
tmp/4u0pA00.pdb
 155 146 0 0 0
SMALL
GASTEIGER

@<TRIPOS>ATOM
      1  N          9.2400   51.6270   19.0370 N.3    32  ILE32      -0.1245
      2  CA         9.0720   53.0790   18.9580 C.3    32  ILE32       0.1561
      3  C          9.0070   53.4940   17.4930 C.2    32  ILE32       0.2260
      4  O          8.2570   54.4370   17.1220 O.2    32  ILE32      -0.2867
      5  CB        10.2350   53.7660   19.6850 C.3    32  ILE32       0.0252
      6  CG1       10.1340   53.4480   21.1810 C.3    32  ILE32       0.0019
      7  CG2       10.2520   55.2720   19.3880 C.3    32  ILE32       0.0019
      8  CD1        8.9110   54.0070   21.8780 C.3    32  ILE32       0.0001
      9  N          9.8480   48.8350   22.4810 N.3    53  LEU53      -0.1245
     10  CA         9.1910   49.4080   23.6550 C.3    53  LEU53       0.1561
     11  C          8.6880   48.2820   24.5310 C.2    53  LEU53       0.2260
     12  O          7.7740   47.5480   24.1460 O.2    53  LEU53      -0.2867
     13  CB         8.0140   50.2800   23.2310 C.3    53  LEU53       0.0270
     14  CG         7.1800   50.9190   24.3280 C.3    53  LEU53       0.0019
     15  CD1        8.0360   51.8730   25.0170 C.3    53  LEU53       0.0001
     16  CD2        5.9320   51.5840   23.7180 C.3    53  LEU53       0.0001
     17  N          1.3270   54.2030   27.9850 N.3    59  CYS59      -0.1235
     18  CA         1.8650   54.7170   29.2370 C.3    59  CYS59       0.1677
     19  C          0.7780   55.5190   29.9360 C.2    59  CYS59       0.2270
     20  O         -0.0180   56.2070   29.2830 O.2    59  CYS59      -0.2867
     21  CB         3.1080   55.5840   29.0140 C.3    59  CYS59       0.0956
     22  SG         3.9080   56.1250   30.5400 S.3    59  CYS59      -0.0801
     23  N          1.4550   58.0190   32.1080 N.3    61  ARG61      -0.1245
     24  CA         1.9420   59.3330   32.5660 C.3    61  ARG61       0.1563
     25  C          1.5060   60.5180   31.7170 C.2    61  ARG61       0.2260
     26  O          1.3310   61.6230   32.2330 O.2    61  ARG61      -0.2867
     27  CB         3.4620   59.3450   32.6290 C.3    61  ARG61       0.0307
     28  CG         4.0460   58.4560   33.6900 C.3    61  ARG61       0.0489
     29  CD         4.5700   59.2810   34.8340 C.3    61  ARG61       0.2205
     30  NE         5.3340   58.4760   35.7810 N.pl3  61  ARG61      -0.0865
     31  CZ         6.6480   58.5380   35.9480 C.cat  61  ARG61       0.5346
     32  NH1        7.3860   59.3910   35.2420 N.pl3  61  ARG61       0.1354
     33  NH2        7.2280   57.7620   36.8510 N.pl3  61  ARG61       0.1354
     34  N          3.1440   62.4790   29.4400 N.3    63  CYS63      -0.1235
     35  CA         4.0520   63.6090   29.2780 C.3    63  CYS63       0.1677
     36  C          3.6720   64.3640   28.0300 C.2    63  CYS63       0.2270
     37  O          3.3410   63.7950   26.9970 O.2    63  CYS63      -0.2867
     38  CB         5.5170   63.1870   29.1720 C.3    63  CYS63       0.0956
     39  SG         6.1300   62.2170   30.6380 S.3    63  CYS63      -0.0801
     40  N          5.1220   65.9190   25.7760 N.3    65  PHE65      -0.1227
     41  CA         5.9150   65.8330   24.5350 C.3    65  PHE65       0.1736
     42  C          5.9150   64.4790   23.8790 C.2    65  PHE65       0.2595
     43  O          6.4130   64.3150   22.7660 O.2    65  PHE65      -0.2718
     44  CB         7.3760   66.1910   24.7980 C.3    65  PHE65       0.0547
     45  CG         8.1140   65.1540   25.5950 C.ar   65  PHE65      -0.0202
     46  CD1        8.1010   65.2160   26.9650 C.ar   65  PHE65      -0.0042
     47  CD2        8.7990   64.1330   24.9660 C.ar   65  PHE65      -0.0042
     48  CE1        8.7660   64.2460   27.7220 C.ar   65  PHE65      -0.0003
     49  CE2        9.4700   63.1680   25.7090 C.ar   65  PHE65      -0.0003
     50  CZ         9.4480   63.2410   27.0800 C.ar   65  PHE65      -0.0000
     51  N          5.3990   63.4800   24.5890 N.am   66  CYS66      -0.1970
     52  CA         5.6570   62.1020   24.2380 C.3    66  CYS66       0.1712
     53  C          4.6460   61.4900   23.2910 C.2    66  CYS66       0.2296
     54  O          3.4380   61.6700   23.4440 O.2    66  CYS66      -0.2864
     55  CB         5.7020   61.3010   25.5240 C.3    66  CYS66       0.0983
     56  SG         6.0870   59.5510   25.2900 S.3    66  CYS66      -0.0798
     57  N          4.0970   58.2160   22.8060 N.3    68  VAL68      -0.1245
     58  CA         3.5240   56.9340   23.2470 C.3    68  VAL68       0.1561
     59  C          2.0380   57.1190   23.5470 C.2    68  VAL68       0.2260
     60  O          1.6500   58.1420   24.1110 O.2    68  VAL68      -0.2867
     61  CB         4.2610   56.4400   24.4960 C.3    68  VAL68       0.0252
     62  CG1        3.5480   55.2090   25.1220 C.3    68  VAL68       0.0019
     63  CG2        5.6950   56.1240   24.1330 C.3    68  VAL68       0.0019
     64  N         13.7620   50.2000   25.2610 N.3   100  THR100     -0.1203
     65  CA        13.2330   51.2600   26.1300 C.3   100  THR100      0.1994
     66  C         11.9290   50.7760   26.7440 C.2   100  THR100      0.2619
     67  O         11.4700   49.6870   26.4360 O.2   100  THR100     -0.2717
     68  CB        13.0580   52.5830   25.3600 C.3   100  THR100      0.1784
     69  OG1       12.8370   53.6460   26.2900 O.3   100  THR100     -0.2211
     70  CG2       11.9030   52.5240   24.3940 C.3   100  THR100      0.0376
     71  N         11.3320   51.5490   27.6300 N.am  101  SER101     -0.1937
     72  CA        10.0720   51.1620   28.2080 C.3   101  SER101      0.2055
     73  C          9.2760   52.3760   28.5740 C.2   101  SER101      0.2643
     74  O          9.7850   53.4910   28.5280 O.2   101  SER101     -0.2714
     75  CB        10.3040   50.3280   29.4580 C.3   101  SER101      0.2130
     76  OG        10.7800   51.1170   30.4970 O.3   101  SER101     -0.2179
     77  N          8.0040   52.1550   28.8500 N.am  102  VAL102     -0.1963
     78  CA         7.1620   53.2020   29.4270 C.3   102  VAL102      0.1727
     79  C          7.4520   53.2350   30.9390 C.2   102  VAL102      0.2616
     80  O          8.0710   52.3240   31.4760 O.2   102  VAL102     -0.2715
     81  CB         5.6640   52.9330   29.1680 C.3   102  VAL102      0.0290
     82  CG1        5.3750   52.7020   27.7020 C.3   102  VAL102      0.0023
     83  CG2        5.2260   51.7030   29.8930 C.3   102  VAL102      0.0023
     84  N          7.0520   54.3020   31.6150 N.am  103  ALA103     -0.1977
     85  CA         7.2080   54.3360   33.0730 C.3   103  ALA103      0.1597
     86  C          6.2240   53.3560   33.6910 C.2   103  ALA103      0.2287
     87  O          5.0450   53.3450   33.3290 O.2   103  ALA103     -0.2864
     88  CB         6.9360   55.7050   33.5910 C.3   103  ALA103      0.0319
     89  N         17.6440   52.5340   26.7480 N.3   134  LEU134     -0.1231
     90  CA        17.1300   53.8750   26.9520 C.3   134  LEU134      0.1693
     91  C         16.1910   53.7970   28.1200 C.2   134  LEU134      0.2593
     92  O         15.0600   53.3010   28.0530 O.2   134  LEU134     -0.2718
     93  CB        16.3950   54.3330   25.7010 C.3   134  LEU134      0.0284
     94  CG        15.7470   55.7110   25.6920 C.3   134  LEU134      0.0019
     95  CD1       16.7040   56.8580   26.0970 C.3   134  LEU134      0.0001
     96  CD2       15.1890   55.9350   24.3370 C.3   134  LEU134      0.0001
     97  N         16.7310   54.2080   29.2430 N.am  135  SER135     -0.1939
     98  CA        16.1490   53.8940   30.5270 C.3   135  SER135      0.2040
     99  C         15.1290   54.9280   31.0280 C.2   135  SER135      0.2485
    100  O         15.3520   56.1110   30.8450 O.2   135  SER135     -0.2729
    101  CB        17.3370   53.8000   31.4880 C.3   135  SER135      0.2129
    102  OG        16.9340   53.8480   32.8050 O.3   135  SER135     -0.2179
    103  N         14.0410   54.4840   31.6920 N.am  136  PRO136     -0.2715
    104  CA        13.2590   55.3540   32.5980 C.3   136  PRO136      0.1536
    105  C         14.1500   55.8690   33.7230 C.2   136  PRO136      0.2598
    106  O         15.3040   55.4360   33.8660 O.2   136  PRO136     -0.2715
    107  CB        12.1850   54.4060   33.1720 C.3   136  PRO136      0.0310
    108  CG        12.2510   53.1570   32.2850 C.3   136  PRO136      0.0237
    109  CD        13.6450   53.0720   31.8550 C.3   136  PRO136      0.0939
    110  N         13.6450   56.8110   34.5140 N.am  137  ASP137     -0.1972
    111  CA        14.4620   57.3310   35.6130 C.3   137  ASP137      0.1709
    112  C         14.4080   56.4780   36.8680 C.2   137  ASP137      0.2293
    113  O         15.2750   56.6360   37.7410 O.2   137  ASP137     -0.2864
    114  CB        14.1310   58.7730   35.9760 C.3   137  ASP137      0.1436
    115  CG        12.6710   59.0160   36.2870 C.2   137  ASP137      0.3671
    116  OD1       11.9470   58.1210   36.7210 O.co2 137  ASP137     -0.2456
    117  OD2       12.2350   60.1920   36.1310 O.co2 137  ASP137     -0.2456
    118  N         19.9760   57.8120   29.0840 N.3   164  HIS164     -0.1226
    119  CA        18.8510   58.3550   29.8050 C.3   164  HIS164      0.1752
    120  C         18.7370   59.8190   29.4100 C.2   164  HIS164      0.2596
    121  O         19.6310   60.6380   29.6930 O.2   164  HIS164     -0.2718
    122  CB        18.9890   58.2390   31.3300 C.3   164  HIS164      0.0759
    123  CG        17.8550   58.8570   32.0550 C.ar  164  HIS164      0.0818
    124  ND1       16.5750   58.3570   32.0000 N.ar  164  HIS164     -0.2268
    125  CD2       17.7830   60.0050   32.7850 C.ar  164  HIS164      0.1154
    126  CE1       15.7690   59.1390   32.7000 C.ar  164  HIS164      0.1986
    127  NE2       16.4700   60.1700   33.1460 N.ar  164  HIS164     -0.2212
    128  N         17.6330   60.1310   28.7500 N.am  165  ASN165     -0.1974
    129  CA        17.4160   61.5000   28.2460 C.3   165  ASN165      0.1688
    130  C         16.9570   62.4970   29.2900 C.2   165  ASN165      0.2292
    131  O         16.0450   62.2640   30.0780 O.2   165  ASN165     -0.2864
    132  CB        16.3750   61.4590   27.1500 C.3   165  ASN165      0.1181
    133  CG        16.8280   60.7510   25.9870 C.2   165  ASN165      0.2629
    134  OD1       18.0380   60.6240   25.7400 O.2   165  ASN165     -0.2716
    135  ND2       15.8750   60.1930   25.2440 N.am  165  ASN165     -0.0877
    136  N         15.8300   65.4150   28.0820 N.3   167  GLU167     -0.1245
    137  CA        14.7460   65.8770   27.1960 C.3   167  GLU167      0.1567
    138  C         14.7730   67.3790   27.0280 C.2   167  GLU167      0.2260
    139  O         14.6360   67.8640   25.9110 O.2   167  GLU167     -0.2867
    140  CB        13.3460   65.4780   27.6580 C.3   167  GLU167      0.0388
    141  CG        13.1090   63.9670   27.8100 C.3   167  GLU167      0.1160
    142  CD        13.2320   63.1640   26.5350 C.2   167  GLU167      0.3649
    143  OE1       12.9930   61.9230   26.6070 O.co2 167  GLU167     -0.2457
    144  OE2       13.5840   63.7070   25.4730 O.co2 167  GLU167     -0.2457
    145  N          7.9020   67.3880   31.2470 N.3   177  ARG177     -0.1245
    146  CA         7.9700   65.9970   31.7250 C.3   177  ARG177      0.1563
    147  C          7.0490   65.8490   32.9280 C.2   177  ARG177      0.2260
    148  O          6.7710   66.8050   33.6100 O.2   177  ARG177     -0.2867
    149  CB         9.3890   65.6660   32.1450 C.3   177  ARG177      0.0307
    150  CG        10.4290   65.9500   31.1010 C.3   177  ARG177      0.0489
    151  CD        11.8410   65.7490   31.6120 C.3   177  ARG177      0.2205
    152  NE        12.2340   64.3420   31.5420 N.pl3 177  ARG177     -0.0865
    153  CZ        13.2860   63.8050   32.1520 C.cat 177  ARG177      0.5346
    154  NH1       14.0620   64.5130   32.9660 N.pl3 177  ARG177      0.1354
    155  NH2       13.5260   62.5000   31.9790 N.pl3 177  ARG177      0.1354
@<TRIPOS>BOND
     1     4     3    2
     2     3     2    1
     3     2     1    1
     4     2     5    1
     5     7     5    1
     6     5     6    1
     7     6     8    1
     8     9    10    1
     9    43    42    2
    10    57    58    1
    11    13    10    1
    12    13    14    1
    13    58    59    1
    14    58    61    1
    15    53    54    2
    16    53    52    1
    17    59    60    2
    18    10    11    1
    19    16    14    1
    20    42    41    1
    21    42    51   am
    22    63    61    1
    23    12    11    2
    24    52    51    1
    25    52    55    1
    26    14    15    1
    27    96    94    1
    28    70    68    1
    29    61    62    1
    30    41    44    1
    31    41    40    1
    32    44    45    1
    33    47    45   ar
    34    47    49   ar
    35   135   133   am
    36    64    65    1
    37    56    55    1
    38    68    65    1
    39    68    69    1
    40   144   142   ar
    41    45    46   ar
    42    94    93    1
    43    94    95    1
    44    93    90    1
    45    49    50   ar
    46   134   133    2
    47   139   138    2
    48   133   132    1
    49    65    66    1
    50    67    66    2
    51   142   143   ar
    52   142   141    1
    53    66    71   am
    54    89    90    1
    55    90    91    1
    56    46    48   ar
    57    37    36    2
    58   138   137    1
    59    50    48   ar
    60   132   129    1
    61   137   140    1
    62   137   136    1
    63    71    72    1
    64   140   141    1
    65    82    81    1
    66    17    18    1
    67    36    35    1
    68    92    91    2
    69    91    97   am
    70    72    73    1
    71    72    75    1
    72   129   128    1
    73   129   130    1
    74    74    73    2
    75    73    77   am
    76   128   120   am
    77    77    78    1
    78    21    18    1
    79    21    22    1
    80   118   119    1
    81    81    78    1
    82    81    83    1
    83    38    35    1
    84    38    39    1
    85    18    19    1
    86    97    98    1
    87    35    34    1
    88    20    19    2
    89   130   131    2
    90   120   121    2
    91   120   119    1
    92    78    79    1
    93    75    76    1
    94   119   122    1
    95    98    99    1
    96    98   101    1
    97   100    99    2
    98    79    80    2
    99    79    84   am
   100    99   103   am
   101   150   151    1
   102   150   149    1
   103   145   146    1
   104   122   123    1
   105   101   102    1
   106   152   151    1
   107   152   153    2
   108    84    85    1
   109   103   109    1
   110   103   104    1
   111    25    26    2
   112    25    24    1
   113   146   149    1
   114   146   147    1
   115   109   108    1
   116   155   153    1
   117   124   123   ar
   118   124   126   ar
   119   123   125   ar
   120    23    24    1
   121   153   154    1
   122   108   107    1
   123    24    27    1
   124   104   107    1
   125   104   105    1
   126    27    28    1
   127   126   127   ar
   128   125   127   ar
   129   147   148    2
   130    85    88    1
   131    85    86    1
   132    87    86    2
   133    28    29    1
   134   105   106    2
   135   105   110   am
   136   110   111    1
   137    29    30    1
   138    32    31    1
   139   111   114    1
   140   111   112    1
   141    30    31    2
   142    31    33    1
   143   114   115    1
   144   117   115   ar
   145   115   116   ar
   146   112   113    2
