@<TRIPOS>MOLECULE
tmp/4u0uA01.pdb
 184 181 0 0 0
SMALL
GASTEIGER

@<TRIPOS>ATOM
      1  N         85.7150   13.5510   15.6340 N.3   127  GLU127     -0.1245
      2  CA        87.1130   13.9030   15.4330 C.3   127  GLU127      0.1567
      3  C         88.0900   12.8190   15.9160 C.2   127  GLU127      0.2260
      4  O         89.2130   13.1210   16.3090 O.2   127  GLU127     -0.2867
      5  CB        87.4020   15.2680   16.0750 C.3   127  GLU127      0.0388
      6  CG        86.4880   16.3960   15.6040 C.3   127  GLU127      0.1160
      7  CD        86.4430   16.6970   14.1110 C.2   127  GLU127      0.3649
      8  OE1       87.3720   16.2850   13.3750 O.co2 127  GLU127     -0.2457
      9  OE2       85.4910   17.3920   13.6870 O.co2 127  GLU127     -0.2457
     10  N         93.4800   24.8750    8.1680 N.3   209  VAL209     -0.1231
     11  CA        92.4300   23.9250    8.5470 C.3   209  VAL209      0.1692
     12  C         91.8530   23.3290    7.2500 C.2   209  VAL209      0.2593
     13  O         90.9290   23.8730    6.6540 O.2   209  VAL209     -0.2718
     14  CB        91.3730   24.5970    9.4340 C.3   209  VAL209      0.0266
     15  CG1       90.6220   23.5510   10.2160 C.3   209  VAL209      0.0020
     16  CG2       92.0130   25.5920   10.3910 C.3   209  VAL209      0.0020
     17  N         92.4690   22.2490    6.7970 N.am  210  GLY210     -0.1942
     18  CA        92.1480   21.6210    5.5230 C.3   210  GLY210      0.2014
     19  C         92.7590   22.4340    4.4000 C.2   210  GLY210      0.2639
     20  O         93.9830   22.4200    4.2070 O.2   210  GLY210     -0.2714
     21  N         91.9050   23.1810    3.6910 N.am  211  HIS211     -0.1959
     22  CA        92.3010   24.0930    2.6370 C.3   211  HIS211      0.1787
     23  C         91.8650   25.4950    3.0270 C.2   211  HIS211      0.2620
     24  O         91.7860   26.3700    2.1710 O.2   211  HIS211     -0.2715
     25  CB        91.6500   23.6640    1.3220 C.3   211  HIS211      0.0785
     26  CG        92.2510   22.4190    0.7580 C.ar  211  HIS211      0.0821
     27  ND1       93.6340   22.1960    0.7880 N.ar  211  HIS211     -0.2267
     28  CD2       91.6510   21.3730    0.1440 C.ar  211  HIS211      0.1154
     29  CE1       93.8230   21.0230    0.2030 C.ar  211  HIS211      0.1986
     30  NE2       92.6700   20.5050   -0.2380 N.ar  211  HIS211     -0.2212
     31  N         91.6310   25.7310    4.3310 N.am  212  HIS212     -0.1973
     32  CA        91.1660   27.0110    4.8390 C.3   212  HIS212      0.1656
     33  C         92.1300   27.6550    5.8500 C.2   212  HIS212      0.2291
     34  O         92.4210   27.0800    6.8990 O.2   212  HIS212     -0.2864
     35  CB        89.8000   26.8100    5.4790 C.3   212  HIS212      0.0771
     36  CG        89.3320   27.9930    6.2510 C.ar  212  HIS212      0.0820
     37  ND1       89.2090   27.9380    7.6030 N.ar  212  HIS212     -0.2267
     38  CD2       89.0200   29.2390    5.8320 C.ar  212  HIS212      0.1154
     39  CE1       88.7670   29.1250    7.9740 C.ar  212  HIS212      0.1986
     40  NE2       88.6900   29.9550    6.9490 N.ar  212  HIS212     -0.2212
     41  N         78.7830   27.8850   11.6530 N.3   250  TYR250     -0.1241
     42  CA        79.7030   28.1720   10.5420 C.3   250  TYR250      0.1605
     43  C         80.6000   29.3900   10.7920 C.2   250  TYR250      0.2264
     44  O         81.8060   29.2710   10.6940 O.2   250  TYR250     -0.2867
     45  CB        78.9180   28.3660    9.2280 C.3   250  TYR250      0.0534
     46  CG        79.8320   28.7170    8.0800 C.ar  250  TYR250     -0.0201
     47  CD1       80.7990   27.8210    7.6400 C.ar  250  TYR250     -0.0009
     48  CD2       79.8240   29.9920    7.5200 C.ar  250  TYR250     -0.0009
     49  CE1       81.7080   28.1630    6.6450 C.ar  250  TYR250      0.0417
     50  CE2       80.7100   30.3390    6.5040 C.ar  250  TYR250      0.0417
     51  CZ        81.6600   29.4220    6.0760 C.ar  250  TYR250      0.1957
     52  OH        82.5870   29.7710    5.1200 O.3   250  TYR250     -0.2866
     53  N         83.3580   28.5830   13.2790 N.3   253  VAL253     -0.1231
     54  CA        84.2240   27.6380   12.6030 C.3   253  VAL253      0.1692
     55  C         85.1360   28.3540   11.5720 C.2   253  VAL253      0.2592
     56  O         86.3280   28.0180   11.4380 O.2   253  VAL253     -0.2718
     57  CB        83.3260   26.5990   11.9290 C.3   253  VAL253      0.0266
     58  CG1       83.9730   26.0070   10.7040 C.3   253  VAL253      0.0020
     59  CG2       82.9170   25.5340   12.9260 C.3   253  VAL253      0.0020
     60  N         84.5620   29.3000   10.8130 N.am  254  TYR254     -0.1976
     61  CA        85.3230   30.1010    9.8480 C.3   254  TYR254      0.1639
     62  C         86.3730   30.9720   10.5810 C.2   254  TYR254      0.2290
     63  O         87.4610   31.1700   10.0470 O.2   254  TYR254     -0.2864
     64  CB        84.3830   31.0020    9.0130 C.3   254  TYR254      0.0560
     65  CG        85.1030   31.7860    7.9380 C.ar  254  TYR254     -0.0198
     66  CD1       85.5490   31.1640    6.7740 C.ar  254  TYR254     -0.0009
     67  CD2       85.3900   33.1350    8.1080 C.ar  254  TYR254     -0.0009
     68  CE1       86.2370   31.8710    5.7940 C.ar  254  TYR254      0.0417
     69  CE2       86.0730   33.8560    7.1300 C.ar  254  TYR254      0.0417
     70  CZ        86.5170   33.2140    5.9830 C.ar  254  TYR254      0.1957
     71  OH        87.1830   33.8980    4.9930 O.3   254  TYR254     -0.2866
     72  N         87.6330   30.2860   13.5960 N.3   256  HIS256     -0.1241
     73  CA        88.5300   29.3120   14.2290 C.3   256  HIS256      0.1621
     74  C         89.3210   30.0070   15.3460 C.2   256  HIS256      0.2264
     75  O         90.5340   30.0960   15.2900 O.2   256  HIS256     -0.2867
     76  CB        89.4240   28.7520   13.1430 C.3   256  HIS256      0.0745
     77  CG        90.0410   27.4570   13.4890 C.ar  256  HIS256      0.0817
     78  ND1       91.3400   27.3830   13.9350 N.ar  256  HIS256     -0.2268
     79  CD2       89.5400   26.2100   13.3660 C.ar  256  HIS256      0.1154
     80  CE1       91.5860   26.0980   14.1180 C.ar  256  HIS256      0.1986
     81  NE2       90.5450   25.3490   13.7510 N.ar  256  HIS256     -0.2212
     82  N         92.9030   27.3720   19.3440 N.3   259  ILE259     -0.1231
     83  CA        93.8560   26.4400   18.7370 C.3   259  ILE259      0.1692
     84  C         93.2950   24.9940   18.6840 C.2   259  ILE259      0.2592
     85  O         93.7900   24.1730   17.9220 O.2   259  ILE259     -0.2718
     86  CB        95.2280   26.5400   19.4120 C.3   259  ILE259      0.0266
     87  CG1       96.3260   26.0250   18.4810 C.3   259  ILE259      0.0019
     88  CG2       95.2580   25.8420   20.7700 C.3   259  ILE259      0.0020
     89  CD1       96.7810   27.0250   17.2960 C.3   259  ILE259      0.0001
     90  N         92.2510   24.7070   19.4640 N.am  260  ASP260     -0.1960
     91  CA        91.5700   23.4080   19.4870 C.3   260  ASP260      0.1840
     92  C         90.1760   23.5870   20.0710 C.2   260  ASP260      0.2623
     93  O         89.8920   24.6070   20.6850 O.2   260  ASP260     -0.2715
     94  CB        92.3680   22.3830   20.3380 C.3   260  ASP260      0.1450
     95  CG        92.8660   21.1600   19.5970 C.2   260  ASP260      0.3671
     96  OD1       92.0710   20.5740   18.7960 O.co2 260  ASP260     -0.2456
     97  OD2       94.0180   20.7450   19.8580 O.co2 260  ASP260     -0.2456
     98  N         89.3410   22.5850   19.9320 N.am  261  GLY261     -0.1940
     99  CA        87.9930   22.6590   20.4890 C.3   261  GLY261      0.2014
    100  C         87.0500   23.6580   19.8450 C.2   261  GLY261      0.2639
    101  O         86.0910   24.0820   20.4930 O.2   261  GLY261     -0.2714
    102  N         87.3100   24.0680   18.5920 N.am  262  ASN262     -0.1958
    103  CA        86.4650   25.0350   17.8810 C.3   262  ASN262      0.1819
    104  C         85.1910   24.4030   17.4100 C.2   262  ASN262      0.2622
    105  O         84.1320   25.0180   17.5340 O.2   262  ASN262     -0.2715
    106  CB        87.1740   25.6390   16.6880 C.3   262  ASN262      0.1195
    107  CG        88.3270   26.4980   17.0710 C.2   262  ASN262      0.2630
    108  OD1       88.1380   27.6360   17.5200 O.2   262  ASN262     -0.2716
    109  ND2       89.5290   25.9530   16.9770 N.am  262  ASN262     -0.0877
    110  N         85.3020   23.2250   16.8100 N.am  263  GLY263     -0.1940
    111  CA        84.1400   22.4890   16.3360 C.3   263  GLY263      0.2014
    112  C         83.1610   22.1410   17.4510 C.2   263  GLY263      0.2638
    113  O         81.9480   22.2690   17.2740 O.2   263  GLY263     -0.2714
    114  N         83.6780   21.7490   18.6250 N.am  264  ARG264     -0.1977
    115  CA        82.8210   21.4260   19.7500 C.3   264  ARG264      0.1597
    116  C         82.1200   22.6430   20.3030 C.2   264  ARG264      0.2287
    117  O         80.9410   22.5410   20.6250 O.2   264  ARG264     -0.2864
    118  CB        83.6130   20.7240   20.8570 C.3   264  ARG264      0.0334
    119  CG        83.9650   19.3090   20.4450 C.3   264  ARG264      0.0492
    120  CD        84.9080   18.6480   21.4100 C.3   264  ARG264      0.2205
    121  NE        86.3140   18.9610   21.1070 N.pl3 264  ARG264     -0.0865
    122  CZ        87.2980   19.0680   21.9960 C.cat 264  ARG264      0.5346
    123  NH1       87.0550   18.9060   23.3000 N.pl3 264  ARG264      0.1354
    124  NH2       88.5300   19.3510   21.5970 N.pl3 264  ARG264      0.1354
    125  N         79.3350   23.5940   17.9230 N.3   267  ARG267     -0.1245
    126  CA        78.1850   22.7050   18.0870 C.3   267  ARG267      0.1563
    127  C         77.4260   23.0370   19.3650 C.2   267  ARG267      0.2260
    128  O         76.1950   23.0050   19.3420 O.2   267  ARG267     -0.2867
    129  CB        78.5810   21.2160   18.0020 C.3   267  ARG267      0.0307
    130  CG        79.0320   20.8180   16.5630 C.3   267  ARG267      0.0489
    131  CD        79.2890   19.3350   16.3470 C.3   267  ARG267      0.2205
    132  NE        80.6290   18.9270   16.7720 N.pl3 267  ARG267     -0.0865
    133  CZ        81.7510   19.1420   16.0960 C.cat 267  ARG267      0.5346
    134  NH1       81.7240   19.7860   14.9340 N.pl3 267  ARG267      0.1354
    135  NH2       82.9130   18.7270   16.5810 N.pl3 267  ARG267      0.1354
    136  N         79.3810   16.5900    6.4760 N.3   292  TYR292     -0.1227
    137  CA        79.6080   17.7870    7.2580 C.3   292  TYR292      0.1736
    138  C         80.7490   18.6670    6.6860 C.2   292  TYR292      0.2595
    139  O         80.6010   19.8890    6.5550 O.2   292  TYR292     -0.2718
    140  CB        79.8740   17.3870    8.7110 C.3   292  TYR292      0.0548
    141  CG        80.1890   18.5330    9.6480 C.ar  292  TYR292     -0.0200
    142  CD1       79.2620   19.5420    9.8880 C.ar  292  TYR292     -0.0009
    143  CD2       81.3700   18.5520   10.3790 C.ar  292  TYR292     -0.0009
    144  CE1       79.5330   20.5720   10.7800 C.ar  292  TYR292      0.0417
    145  CE2       81.6510   19.5760   11.2770 C.ar  292  TYR292      0.0417
    146  CZ        80.7270   20.5770   11.4820 C.ar  292  TYR292      0.1957
    147  OH        81.0940   21.6090   12.2980 O.3   292  TYR292     -0.2866
    148  N         81.8470   18.0350    6.2740 N.am  293  TYR293     -0.1976
    149  CA        82.9750   18.7590    5.7260 C.3   293  TYR293      0.1639
    150  C         82.7010   19.2420    4.2930 C.2   293  TYR293      0.2290
    151  O         83.1360   20.3290    3.9110 O.2   293  TYR293     -0.2864
    152  CB        84.2320   17.9020    5.8280 C.3   293  TYR293      0.0560
    153  CG        84.8680   18.0000    7.1930 C.ar  293  TYR293     -0.0198
    154  CD1       84.4500   17.1870    8.2380 C.ar  293  TYR293     -0.0009
    155  CD2       85.8040   18.9800    7.4730 C.ar  293  TYR293     -0.0009
    156  CE1       84.9610   17.3340    9.5220 C.ar  293  TYR293      0.0417
    157  CE2       86.3590   19.1060    8.7420 C.ar  293  TYR293      0.0417
    158  CZ        85.9350   18.2840    9.7700 C.ar  293  TYR293      0.1957
    159  OH        86.5060   18.4150   11.0220 O.3   293  TYR293     -0.2866
    160  N         80.6530   22.4220    4.6160 N.3   296  LEU296     -0.1231
    161  CA        81.5520   23.4760    5.1080 C.3   296  LEU296      0.1693
    162  C         82.4550   23.9450    3.9490 C.2   296  LEU296      0.2591
    163  O         82.7100   25.1460    3.8010 O.2   296  LEU296     -0.2718
    164  CB        82.4230   22.9760    6.2630 C.3   296  LEU296      0.0284
    165  CG        81.7410   22.8810    7.6130 C.3   296  LEU296      0.0019
    166  CD1       82.5560   22.0450    8.5920 C.3   296  LEU296      0.0001
    167  CD2       81.4820   24.2530    8.1760 C.3   296  LEU296      0.0001
    168  N         82.9240   23.0000    3.1120 N.am  297  GLU297     -0.1979
    169  CA        83.7360   23.3680    1.9510 C.3   297  GLU297      0.1602
    170  C         82.9040   24.1930    0.9770 C.2   297  GLU297      0.2287
    171  O         83.3270   25.2950    0.6400 O.2   297  GLU297     -0.2864
    172  CB        84.3990   22.1440    1.2910 C.3   297  GLU297      0.0415
    173  CG        85.6000   21.6630    2.1000 C.3   297  GLU297      0.1163
    174  CD        86.3260   20.4260    1.6050 C.2   297  GLU297      0.3649
    175  OE1       86.4460   20.2650    0.3670 O.co2 297  GLU297     -0.2457
    176  OE2       86.8400   19.6610    2.4600 O.co2 297  GLU297     -0.2457
    177  N         82.5070   27.6740    2.4940 N.3   300  ASN300     -0.1240
    178  CA        83.7290   28.4500    2.2660 C.3   300  ASN300      0.1653
    179  C         83.8110   28.9540    0.8140 C.2   300  ASN300      0.2266
    180  O         84.1600   30.1120    0.5770 O.2   300  ASN300     -0.2867
    181  CB        84.9420   27.6190    2.5800 C.3   300  ASN300      0.1155
    182  CG        85.1900   27.3450    4.0280 C.2   300  ASN300      0.2627
    183  OD1       84.6390   27.9830    4.9260 O.2   300  ASN300     -0.2716
    184  ND2       86.0740   26.4020    4.2770 N.am  300  ASN300     -0.0877
@<TRIPOS>BOND
     1    30    28   ar
     2    30    29   ar
     3    28    26   ar
     4    29    27   ar
     5   175   174   ar
     6   180   179    2
     7   171   170    2
     8    26    27   ar
     9    26    25    1
    10   179   178    1
    11   170   169    1
    12   172   169    1
    13   172   173    1
    14    25    22    1
    15   174   173    1
    16   174   176   ar
    17   169   168    1
    18    24    23    2
    19   178   177    1
    20   178   181    1
    21   181   182    1
    22    22    23    1
    23    22    21    1
    24    23    31   am
    25   168   162   am
    26    21    19   am
    27   163   162    2
    28   151   150    2
    29   162   161    1
    30   182   184   am
    31   182   183    2
    32    20    19    2
    33   150   149    1
    34    31    32    1
    35    19    18    1
    36   160   161    1
    37    32    35    1
    38    32    33    1
    39    71    70    1
    40   161   164    1
    41    52    51    1
    42    35    36    1
    43    18    17    1
    44   149   152    1
    45   149   148    1
    46    68    70   ar
    47    68    66   ar
    48   152   153    1
    49    38    36   ar
    50    38    40   ar
    51    33    34    2
    52    70    69   ar
    53    51    50   ar
    54    51    49   ar
    55    36    37   ar
    56   164   165    1
    57   148   138   am
    58   136   137    1
    59    50    48   ar
    60   139   138    2
    61    49    47   ar
    62    13    12    2
    63   138   137    1
    64    66    65   ar
    65    17    12   am
    66    40    39   ar
    67    69    67   ar
    68   153   155   ar
    69   153   154   ar
    70    12    11    1
    71   137   140    1
    72   155   157   ar
    73    48    46   ar
    74    37    39   ar
    75   165   167    1
    76   165   166    1
    77    47    46   ar
    78    65    67   ar
    79    65    64    1
    80    46    45    1
    81    10    11    1
    82   154   156   ar
    83    11    14    1
    84   140   141    1
    85   157   158   ar
    86    64    61    1
    87    45    42    1
    88    14    15    1
    89    14    16    1
    90   156   158   ar
    91   141   142   ar
    92   141   143   ar
    93   158   159    1
    94    61    62    1
    95    61    60    1
    96   142   144   ar
    97    63    62    2
    98   143   145   ar
    99    42    43    1
   100    42    41    1
   101    44    43    2
   102    58    57    1
   103   144   146   ar
   104    60    55   am
   105   145   146   ar
   106    56    55    2
   107   146   147    1
   108    55    54    1
   109    57    54    1
   110    57    59    1
   111    54    53    1
   112    76    77    1
   113    76    73    1
   114    79    77   ar
   115    79    81   ar
   116     8     7   ar
   117    77    78   ar
   118    72    73    1
   119     9     7   ar
   120    81    80   ar
   121    78    80   ar
   122     7     6    1
   123    73    74    1
   124   134   133    1
   125    75    74    2
   126     2     1    1
   127     2     3    1
   128     2     5    1
   129     6     5    1
   130     3     4    2
   131   133   135    1
   132   133   132    2
   133   111   110    1
   134   111   112    1
   135   131   130    1
   136   131   132    1
   137   130   129    1
   138   106   107    1
   139   106   103    1
   140   110   104   am
   141   109   107   am
   142   107   108    2
   143   113   112    2
   144    89    87    1
   145   104   105    2
   146   104   103    1
   147   112   114   am
   148   103   102    1
   149    85    84    2
   150   125   126    1
   151   129   126    1
   152   126   127    1
   153    87    86    1
   154   102   100   am
   155   114   115    1
   156    84    83    1
   157    84    90   am
   158    83    82    1
   159    83    86    1
   160    96    95   ar
   161   128   127    2
   162    86    88    1
   163    90    91    1
   164    91    92    1
   165    91    94    1
   166    95    97   ar
   167    95    94    1
   168   115   116    1
   169   115   118    1
   170   100    99    1
   171   100   101    2
   172    98    92   am
   173    98    99    1
   174    92    93    2
   175   116   117    2
   176   119   118    1
   177   119   120    1
   178   121   120    1
   179   121   122    2
   180   124   122    1
   181   122   123    1
