@<TRIPOS>MOLECULE
tmp/4u0vA00.pdb
 162 151 0 0 0
SMALL
GASTEIGER

@<TRIPOS>ATOM
      1  N        -17.2010    0.2700   31.3780 N.3    88  THR88      -0.1203
      2  CA       -16.1800    1.2060   30.9290 C.3    88  THR88       0.1994
      3  C        -16.3400    2.5710   31.5890 C.2    88  THR88       0.2619
      4  O        -17.3840    2.8780   32.1630 O.2    88  THR88      -0.2717
      5  CB       -16.2440    1.4260   29.4120 C.3    88  THR88       0.1784
      6  OG1      -17.4970    2.0360   29.0950 O.3    88  THR88      -0.2211
      7  CG2      -16.0930    0.1020   28.6370 C.3    88  THR88       0.0376
      8  N        -15.3080    3.3960   31.4640 N.am   89  SER89      -0.1937
      9  CA       -15.3800    4.7970   31.8610 C.3    89  SER89       0.2055
     10  C        -15.8180    5.6720   30.6950 C.2    89  SER89       0.2643
     11  O        -15.6870    5.2780   29.5240 O.2    89  SER89      -0.2714
     12  CB       -14.0210    5.2710   32.3690 C.3    89  SER89       0.2130
     13  OG       -13.1450    5.4250   31.2590 O.3    89  SER89      -0.2179
     14  N        -16.3310    6.8560   31.0260 N.am   90  PHE90      -0.1959
     15  CA       -16.6130    7.8960   30.0420 C.3    90  PHE90       0.1771
     16  C        -15.3870    8.1970   29.1940 C.2    90  PHE90       0.2620
     17  O        -15.4880    8.3690   27.9730 O.2    90  PHE90      -0.2715
     18  CB       -17.0830    9.1790   30.7350 C.3    90  PHE90       0.0574
     19  CG       -17.4910   10.2790   29.7770 C.ar   90  PHE90      -0.0200
     20  CD1      -18.7510   10.2830   29.1940 C.ar   90  PHE90      -0.0042
     21  CD2      -16.6180   11.3140   29.4800 C.ar   90  PHE90      -0.0042
     22  CE1      -19.1360   11.3000   28.3220 C.ar   90  PHE90      -0.0003
     23  CE2      -16.9900   12.3320   28.6080 C.ar   90  PHE90      -0.0003
     24  CZ       -18.2540   12.3230   28.0300 C.ar   90  PHE90      -0.0000
     25  N        -14.2350    8.2710   29.8590 N.am   91  THR91      -0.1951
     26  CA       -12.9680    8.5630   29.2010 C.3    91  THR91       0.1897
     27  C        -12.6470    7.4800   28.1680 C.2    91  THR91       0.2313
     28  O        -12.2930    7.7930   27.0300 O.2    91  THR91      -0.2863
     29  CB       -11.8040    8.6870   30.2230 C.3    91  THR91       0.1794
     30  OG1      -12.0460    9.8060   31.0790 O.3    91  THR91      -0.2208
     31  CG2      -10.4790    8.9330   29.5100 C.3    91  THR91       0.0378
     32  N        -14.9530    5.5020   26.8880 N.3    93  ASP93      -0.1239
     33  CA       -16.0540    5.5590   25.9220 C.3    93  ASP93       0.1674
     34  C        -15.7740    6.5740   24.8160 C.2    93  ASP93       0.2266
     35  O        -16.0290    6.3020   23.6390 O.2    93  ASP93      -0.2867
     36  CB       -17.3940    5.9140   26.5940 C.3    93  ASP93       0.1410
     37  CG       -17.9270    4.8080   27.5030 C.2    93  ASP93       0.3668
     38  OD1      -17.5010    3.6410   27.3670 O.co2  93  ASP93      -0.2456
     39  OD2      -18.8000    5.1070   28.3520 O.co2  93  ASP93      -0.2456
     40  N        -19.9240   16.0920   38.2400 N.3   134  ARG134     -0.1245
     41  CA       -19.2680   16.6370   37.0580 C.3   134  ARG134      0.1563
     42  C        -20.1900   16.6180   35.8560 C.2   134  ARG134      0.2260
     43  O        -21.0450   15.7360   35.7380 O.2   134  ARG134     -0.2867
     44  CB       -17.9880   15.8470   36.7240 C.3   134  ARG134      0.0307
     45  CG       -16.9340   15.7830   37.8320 C.3   134  ARG134      0.0489
     46  CD       -15.6790   14.9810   37.3700 C.3   134  ARG134      0.2205
     47  NE       -15.9610   13.5470   37.2390 N.pl3 134  ARG134     -0.0865
     48  CZ       -15.2020   12.6820   36.5660 C.cat 134  ARG134      0.5346
     49  NH1      -14.0930   13.0810   35.9480 N.pl3 134  ARG134      0.1354
     50  NH2      -15.5470   11.4090   36.5200 N.pl3 134  ARG134      0.1354
     51  N        -19.8830   15.8800   31.9450 N.3   136  ARG136     -0.1245
     52  CA       -18.9280   15.1820   31.1010 C.3   136  ARG136      0.1563
     53  C        -19.1040   15.6420   29.6580 C.2   136  ARG136      0.2260
     54  O        -20.2280   15.6490   29.1370 O.2   136  ARG136     -0.2867
     55  CB       -19.1120   13.6680   31.1970 C.3   136  ARG136      0.0307
     56  CG       -19.3670   13.1290   32.6000 C.3   136  ARG136      0.0489
     57  CD       -18.2460   13.4660   33.6090 C.3   136  ARG136      0.2205
     58  NE       -16.9000   13.1390   33.1440 N.pl3 136  ARG136     -0.0865
     59  CZ       -16.3410   11.9340   33.2380 C.cat 136  ARG136      0.5346
     60  NH1      -17.0220   10.9000   33.7390 N.pl3 136  ARG136      0.1354
     61  NH2      -15.1090   11.7510   32.8020 N.pl3 136  ARG136      0.1354
     62  N        -22.9150   13.6060   36.1330 N.3   146  GLU146     -0.1245
     63  CA       -22.6990   12.4300   36.9590 C.3   146  GLU146      0.1567
     64  C        -22.3110   12.8220   38.3680 C.2   146  GLU146      0.2260
     65  O        -21.4190   13.6520   38.5440 O.2   146  GLU146     -0.2867
     66  CB       -21.6010   11.5670   36.3680 C.3   146  GLU146      0.0388
     67  CG       -21.8240   11.2150   34.8880 C.3   146  GLU146      0.1160
     68  CD       -20.9470   10.0660   34.4460 C.2   146  GLU146      0.3649
     69  OE1      -19.7110   10.1930   34.5850 O.co2 146  GLU146     -0.2457
     70  OE2      -21.4920    9.0350   33.9910 O.co2 146  GLU146     -0.2457
     71  N        -20.8380   10.9850   41.5930 N.3   148  SER148     -0.1217
     72  CA       -20.2430    9.7310   42.0020 C.3   148  SER148      0.1889
     73  C        -19.8460    9.7950   43.4630 C.2   148  SER148      0.2288
     74  O        -19.0920   10.6820   43.8570 O.2   148  SER148     -0.2866
     75  CB       -19.0300    9.4150   41.1200 C.3   148  SER148      0.2089
     76  OG       -18.3460    8.2620   41.5930 O.3   148  SER148     -0.2183
     77  N         -9.6620   11.0000   34.3830 N.3   166  SER166     -0.1202
     78  CA       -10.4840    9.8050   34.5300 C.3   166  SER166      0.2020
     79  C        -10.4840    9.3040   35.9650 C.2   166  SER166      0.2619
     80  O         -9.4320    8.9820   36.5180 O.2   166  SER166     -0.2717
     81  CB       -10.0030    8.7020   33.5850 C.3   166  SER166      0.2103
     82  OG       -10.4850    7.4410   34.0100 O.3   166  SER166     -0.2182
     83  N        -11.6610    9.2590   36.5830 N.am  167  ILE167     -0.1965
     84  CA       -11.7480    8.8130   37.9750 C.3   167  ILE167      0.1727
     85  C        -11.4750    7.3130   38.0610 C.2   167  ILE167      0.2616
     86  O        -10.8170    6.8330   38.9980 O.2   167  ILE167     -0.2715
     87  CB       -13.1360    9.1560   38.5960 C.3   167  ILE167      0.0290
     88  CG1      -13.2520   10.6680   38.7850 C.3   167  ILE167      0.0022
     89  CG2      -13.3200    8.4710   39.9490 C.3   167  ILE167      0.0023
     90  CD1      -12.2610   11.2360   39.8460 C.3   167  ILE167      0.0001
     91  N        -11.9700    6.5710   37.0760 N.am  168  TYR168     -0.1974
     92  CA       -11.7490    5.1250   37.0500 C.3   168  TYR168      0.1639
     93  C        -10.2680    4.7930   36.9170 C.2   168  TYR168      0.2290
     94  O         -9.7820    3.8680   37.5720 O.2   168  TYR168     -0.2864
     95  CB       -12.5230    4.4710   35.9110 C.3   168  TYR168      0.0560
     96  CG       -13.9790    4.1940   36.2120 C.ar  168  TYR168     -0.0198
     97  CD1      -14.7090    3.3280   35.4060 C.ar  168  TYR168     -0.0009
     98  CD2      -14.6360    4.8120   37.2730 C.ar  168  TYR168     -0.0009
     99  CE1      -16.0430    3.0700   35.6450 C.ar  168  TYR168      0.0417
    100  CE2      -15.9880    4.5440   37.5430 C.ar  168  TYR168      0.0417
    101  CZ       -16.6810    3.6660   36.7060 C.ar  168  TYR168      0.1957
    102  OH       -18.0140    3.3820   36.9120 O.3   168  TYR168     -0.2866
    103  N        -26.4130   -1.6180   37.0970 N.3   184  GLN184     -0.1245
    104  CA       -27.0570   -0.3460   36.7540 C.3   184  GLN184      0.1566
    105  C        -28.5760   -0.4400   36.7640 C.2   184  GLN184      0.2260
    106  O        -29.1590   -1.4660   36.4010 O.2   184  GLN184     -0.2867
    107  CB       -26.5980    0.1750   35.3770 C.3   184  GLN184      0.0367
    108  CG       -25.2020    0.7320   35.3620 C.3   184  GLN184      0.0905
    109  CD       -24.8790    1.6020   34.1400 C.2   184  GLN184      0.2608
    110  OE1      -24.0590    2.5140   34.2350 O.2   184  GLN184     -0.2717
    111  NE2      -25.5000    1.3080   32.9910 N.am  184  GLN184     -0.0878
    112  N        -29.5530    7.1500   35.3340 N.3   210  ILE210     -0.1245
    113  CA       -28.8620    5.9030   35.5940 C.3   210  ILE210      0.1561
    114  C        -28.1900    5.8610   36.9670 C.2   210  ILE210      0.2260
    115  O        -27.3980    6.7500   37.2950 O.2   210  ILE210     -0.2867
    116  CB       -27.7780    5.6280   34.5400 C.3   210  ILE210      0.0252
    117  CG1      -28.3670    5.7380   33.1170 C.3   210  ILE210      0.0019
    118  CG2      -27.1410    4.2630   34.8080 C.3   210  ILE210      0.0019
    119  CD1      -27.4010    5.3130   32.0210 C.3   210  ILE210      0.0001
    120  N        -25.5600    3.5780   39.0910 N.3   212  ARG212     -0.1245
    121  CA       -24.5360    2.5700   38.9070 C.3   212  ARG212      0.1563
    122  C        -23.8730    2.2500   40.2360 C.2   212  ARG212      0.2260
    123  O        -23.4770    3.1540   40.9650 O.2   212  ARG212     -0.2867
    124  CB       -23.4920    3.0520   37.8950 C.3   212  ARG212      0.0307
    125  CG       -22.3410    2.0720   37.7340 C.3   212  ARG212      0.0489
    126  CD       -21.2830    2.5950   36.7990 C.3   212  ARG212      0.2205
    127  NE       -21.7360    2.5480   35.4140 N.pl3 212  ARG212     -0.0865
    128  CZ       -20.9370    2.6600   34.3580 C.cat 212  ARG212      0.5346
    129  NH1      -19.6250    2.8270   34.5140 N.pl3 212  ARG212      0.1354
    130  NH2      -21.4550    2.6200   33.1390 N.pl3 212  ARG212      0.1354
    131  N        -17.9560    2.6590   44.1700 N.3   223  GLU223     -0.1245
    132  CA       -18.7090    3.7750   43.6200 C.3   223  GLU223      0.1567
    133  C        -20.2080    3.5280   43.6720 C.2   223  GLU223      0.2260
    134  O        -20.6830    2.4380   43.3260 O.2   223  GLU223     -0.2867
    135  CB       -18.2870    4.0400   42.1610 C.3   223  GLU223      0.0388
    136  CG       -19.2080    5.0230   41.4300 C.3   223  GLU223      0.1160
    137  CD       -18.8820    5.1550   39.9600 C.2   223  GLU223      0.3649
    138  OE1      -18.6880    6.3010   39.5070 O.co2 223  GLU223     -0.2457
    139  OE2      -18.8240    4.1180   39.2510 O.co2 223  GLU223     -0.2457
    140  N        -23.0360    5.8630   41.8700 N.3   225  ALA225     -0.1245
    141  CA       -23.1550    7.0350   41.0070 C.3   225  ALA225      0.1562
    142  C        -24.5730    7.2290   40.4850 C.2   225  ALA225      0.2260
    143  O        -25.2560    6.2670   40.1470 O.2   225  ALA225     -0.2867
    144  CB       -22.1780    6.9270   39.8260 C.3   225  ALA225      0.0290
    145  N        -26.4810    9.4590   37.5090 N.3   227  SER227     -0.1217
    146  CA       -26.1750   10.2390   36.3140 C.3   227  SER227      0.1889
    147  C        -27.4210   10.4930   35.4840 C.2   227  SER227      0.2288
    148  O        -28.3480    9.6850   35.4990 O.2   227  SER227     -0.2866
    149  CB       -25.1440    9.5190   35.4370 C.3   227  SER227      0.2089
    150  OG       -24.1250    8.9500   36.2210 O.3   227  SER227     -0.2183
    151  N        -28.1470   11.2080   31.3880 N.3   229  TYR229     -0.1241
    152  CA       -27.6020   11.2380   30.0310 C.3   229  TYR229      0.1605
    153  C        -28.5850   11.8730   29.0580 C.2   229  TYR229      0.2264
    154  O        -29.7620   11.5470   29.0810 O.2   229  TYR229     -0.2867
    155  CB       -27.2490    9.8280   29.5830 C.3   229  TYR229      0.0534
    156  CG       -25.9850    9.3020   30.2030 C.ar  229  TYR229     -0.0201
    157  CD1      -24.8000    9.3060   29.4880 C.ar  229  TYR229     -0.0009
    158  CD2      -25.9660    8.8220   31.5130 C.ar  229  TYR229     -0.0009
    159  CE1      -23.6340    8.8460   30.0380 C.ar  229  TYR229      0.0417
    160  CE2      -24.7920    8.3500   32.0710 C.ar  229  TYR229      0.0417
    161  CZ       -23.6320    8.3770   31.3220 C.ar  229  TYR229      0.1957
    162  OH       -22.4560    7.9130   31.8480 O.3   229  TYR229     -0.2866
@<TRIPOS>BOND
     1    35    34    2
     2    34    33    1
     3    33    36    1
     4    33    32    1
     5    36    37    1
     6    28    27    2
     7    38    37   ar
     8    37    39   ar
     9    17    16    2
    10    24    22   ar
    11    24    23   ar
    12    27    26    1
    13    22    20   ar
    14    23    21   ar
    15     7     5    1
    16   153   154    2
    17   153   152    1
    18     6     5    1
    19    54    53    2
    20    20    19   ar
    21    16    25   am
    22    16    15    1
    23    26    25    1
    24    26    29    1
    25     5     2    1
    26    21    19   ar
    27   157   159   ar
    28   157   156   ar
    29    31    29    1
    30    11    10    2
    31   155   152    1
    32   155   156    1
    33    53    52    1
    34    19    18    1
    35   152   151    1
    36   159   161   ar
    37    15    18    1
    38    15    14    1
    39   156   158   ar
    40    29    30    1
    41    10    14   am
    42    10     9    1
    43     2     1    1
    44     2     3    1
    45    52    55    1
    46    52    51    1
    47    55    56    1
    48    13    12    1
    49   161   162    1
    50   161   160   ar
    51     8     3   am
    52     8     9    1
    53   158   160   ar
    54     3     4    2
    55     9    12    1
    56   119   117    1
    57    56    57    1
    58    61    59    1
    59   111   109   am
    60   117   116    1
    61   130   128    1
    62    58    59    2
    63    58    57    1
    64    59    60    1
    65    81    82    1
    66    81    78    1
    67    70    68   ar
    68   109   110    2
    69   109   108    1
    70   128   129    1
    71   128   127    2
    72    77    78    1
    73    68    69   ar
    74    68    67    1
    75    78    79    1
    76   116   118    1
    77   116   113    1
    78    67    66    1
    79   112   113    1
    80   108   107    1
    81   107   104    1
    82    97    99   ar
    83    97    96   ar
    84   127   126    1
    85   149   150    1
    86   149   146    1
    87   147   148    2
    88   147   146    1
    89   113   114    1
    90    99   101   ar
    91    43    42    2
    92    42    41    1
    93    95    96    1
    94    95    92    1
    95    49    48    1
    96    79    80    2
    97    79    83   am
    98    62    63    1
    99    96    98   ar
   100   146   145    1
   101    66    63    1
   102   106   105    2
   103    50    48    1
   104    48    47    2
   105    83    84    1
   106   101   102    1
   107   101   100   ar
   108    44    41    1
   109    44    45    1
   110   104   105    1
   111   104   103    1
   112   126   125    1
   113    93    92    1
   114    93    94    2
   115    63    64    1
   116   114   115    2
   117    92    91    1
   118    41    40    1
   119    91    85   am
   120    47    46    1
   121    98   100   ar
   122    46    45    1
   123   125   124    1
   124   124   121    1
   125    84    85    1
   126    84    87    1
   127    85    86    2
   128    64    65    2
   129    87    88    1
   130    87    89    1
   131    88    90    1
   132   121   120    1
   133   121   122    1
   134   139   137   ar
   135   138   137   ar
   136   144   141    1
   137   137   136    1
   138   143   142    2
   139   122   123    2
   140   142   141    1
   141   141   140    1
   142    75    76    1
   143    75    72    1
   144   136   135    1
   145    71    72    1
   146    72    73    1
   147   135   132    1
   148   134   133    2
   149    73    74    2
   150   132   133    1
   151   132   131    1
