@<TRIPOS>MOLECULE
tmp/4u0wA00.pdb
 162 151 0 0 0
SMALL
GASTEIGER

@<TRIPOS>ATOM
      1  N        -37.2090  -12.6820   27.5130 N.3    88  THR88      -0.1203
      2  CA       -38.4900  -13.1690   28.0160 C.3    88  THR88       0.1994
      3  C        -39.6480  -12.4710   27.3240 C.2    88  THR88       0.2619
      4  O        -39.4850  -11.3980   26.7390 O.2    88  THR88      -0.2717
      5  CB       -38.6500  -12.9400   29.5440 C.3    88  THR88       0.1784
      6  OG1      -38.5720  -11.5350   29.8150 O.3    88  THR88      -0.2211
      7  CG2      -37.5780  -13.6890   30.3560 C.3    88  THR88       0.0376
      8  N        -40.8230  -13.0810   27.4170 N.am   89  SER89      -0.1937
      9  CA       -42.0570  -12.4680   26.9570 C.3    89  SER89       0.2055
     10  C        -42.6950  -11.6680   28.0680 C.2    89  SER89       0.2643
     11  O        -42.3680  -11.8550   29.2530 O.2    89  SER89      -0.2714
     12  CB       -43.0410  -13.5410   26.4670 C.3    89  SER89       0.2130
     13  OG       -43.5020  -14.3470   27.5520 O.3    89  SER89      -0.2179
     14  N        -43.6270  -10.8000   27.6940 N.am   90  PHE90      -0.1959
     15  CA       -44.4230  -10.0700   28.6670 C.3    90  PHE90       0.1771
     16  C        -45.1380  -11.0600   29.5870 C.2    90  PHE90       0.2620
     17  O        -45.1690  -10.8790   30.8030 O.2    90  PHE90      -0.2715
     18  CB       -45.4360   -9.1530   27.9770 C.3    90  PHE90       0.0574
     19  CG       -46.2250   -8.2800   28.9350 C.ar   90  PHE90      -0.0200
     20  CD1      -45.6950   -7.0850   29.4090 C.ar   90  PHE90      -0.0042
     21  CD2      -47.4900   -8.6590   29.3590 C.ar   90  PHE90      -0.0042
     22  CE1      -46.4200   -6.2730   30.2940 C.ar   90  PHE90      -0.0003
     23  CE2      -48.2220   -7.8540   30.2330 C.ar   90  PHE90      -0.0003
     24  CZ       -47.6820   -6.6600   30.7030 C.ar   90  PHE90      -0.0000
     25  N        -45.7020  -12.1060   28.9880 N.am   91  THR91      -0.1951
     26  CA       -46.4260  -13.1360   29.7230 C.3    91  THR91       0.1897
     27  C        -45.5440  -13.7700   30.7870 C.2    91  THR91       0.2313
     28  O        -45.9310  -13.8350   31.9450 O.2    91  THR91      -0.2863
     29  CB       -46.9650  -14.2160   28.7690 C.3    91  THR91       0.1794
     30  OG1      -47.9430  -13.6220   27.9170 O.3    91  THR91      -0.2208
     31  CG2      -47.6270  -15.3580   29.5340 C.3    91  THR91       0.0378
     32  N        -42.8130  -12.4670   32.0720 N.3    93  ASP93      -0.1239
     33  CA       -42.4900  -11.4160   33.0500 C.3    93  ASP93       0.1674
     34  C        -43.5380  -11.3110   34.1600 C.2    93  ASP93       0.2266
     35  O        -43.2090  -11.2900   35.3490 O.2    93  ASP93      -0.2867
     36  CB       -42.3610  -10.0420   32.3820 C.3    93  ASP93       0.1410
     37  CG       -41.1530   -9.9340   31.4670 C.2    93  ASP93       0.3668
     38  OD1      -40.1920  -10.7180   31.6090 O.co2  93  ASP93      -0.2456
     39  OD2      -41.1570   -9.0280   30.6120 O.co2  93  ASP93      -0.2456
     40  N        -50.5670   -3.9820   20.5310 N.3   134  ARG134     -0.1245
     41  CA       -51.3440   -4.2560   21.7330 C.3   134  ARG134      0.1563
     42  C        -50.9390   -3.3740   22.9180 C.2   134  ARG134      0.2260
     43  O        -49.7650   -3.0340   23.0740 O.2   134  ARG134     -0.2867
     44  CB       -51.1860   -5.7250   22.1460 C.3   134  ARG134      0.0307
     45  CG       -51.5120   -6.7380   21.0570 C.3   134  ARG134      0.0489
     46  CD       -51.2950   -8.1450   21.5740 C.3   134  ARG134      0.2205
     47  NE       -49.8760   -8.4680   21.7070 N.pl3 134  ARG134     -0.0865
     48  CZ       -49.4090   -9.5540   22.3180 C.cat 134  ARG134      0.5346
     49  NH1      -48.1000   -9.7730   22.3820 N.pl3 134  ARG134      0.1354
     50  NH2      -50.2530  -10.4170   22.8710 N.pl3 134  ARG134      0.1354
     51  N        -50.2270   -3.8920   26.6620 N.3   136  ARG136     -0.1245
     52  CA       -49.9970   -5.0290   27.5500 C.3   136  ARG136      0.1563
     53  C        -50.3830   -4.6240   28.9780 C.2   136  ARG136      0.2260
     54  O        -50.0170   -3.5470   29.4400 O.2   136  ARG136     -0.2867
     55  CB       -48.5410   -5.5050   27.4930 C.3   136  ARG136      0.0307
     56  CG       -47.9910   -5.6560   26.0750 C.3   136  ARG136      0.0489
     57  CD       -48.8640   -6.5600   25.2240 C.3   136  ARG136      0.2205
     58  NE       -49.0650   -7.9200   25.7580 N.pl3 136  ARG136     -0.0865
     59  CZ       -48.1840   -8.9160   25.6500 C.cat 136  ARG136      0.5346
     60  NH1      -47.0040   -8.7050   25.0770 N.pl3 136  ARG136      0.1354
     61  NH2      -48.4680  -10.1280   26.1300 N.pl3 136  ARG136      0.1354
     62  N        -46.9690   -2.1680   22.6650 N.3   146  GLU146     -0.1245
     63  CA       -46.0260   -2.8740   21.8150 C.3   146  GLU146      0.1567
     64  C        -46.5620   -3.0200   20.3870 C.2   146  GLU146      0.2260
     65  O        -47.7320   -3.2990   20.1890 O.2   146  GLU146     -0.2867
     66  CB       -45.7160   -4.2490   22.4030 C.3   146  GLU146      0.0388
     67  CG       -45.1370   -4.1910   23.8230 C.3   146  GLU146      0.1160
     68  CD       -44.9760   -5.5660   24.4310 C.2   146  GLU146      0.3649
     69  OE1      -45.7050   -6.4810   23.9860 O.co2 146  GLU146     -0.2457
     70  OE2      -44.1270   -5.7330   25.3440 O.co2 146  GLU146     -0.2457
     71  N        -45.5570   -5.2230   17.2430 N.3   148  SER148     -0.1217
     72  CA       -44.6580   -6.2900   16.8160 C.3   148  SER148      0.1889
     73  C        -44.8220   -6.6050   15.3330 C.2   148  SER148      0.2288
     74  O        -45.9440   -6.7710   14.8710 O.2   148  SER148     -0.2866
     75  CB       -44.8970   -7.5630   17.6290 C.3   148  SER148      0.2089
     76  OG       -43.9650   -8.5620   17.2260 O.3   148  SER148     -0.2183
     77  N        -50.0390  -15.3860   24.5900 N.3   166  SER166     -0.1202
     78  CA       -48.6290  -15.0690   24.4040 C.3   166  SER166      0.2020
     79  C        -48.1800  -15.3190   22.9730 C.2   166  SER166      0.2619
     80  O        -48.2240  -16.4460   22.4850 O.2   166  SER166     -0.2717
     81  CB       -47.7680  -15.8850   25.3720 C.3   166  SER166      0.2103
     82  OG       -46.4180  -15.9290   24.9340 O.3   166  SER166     -0.2182
     83  N        -47.7400  -14.2610   22.3010 N.am  167  ILE167     -0.1965
     84  CA       -47.1960  -14.4050   20.9600 C.3   167  ILE167      0.1727
     85  C        -45.9040  -15.2390   20.9480 C.2   167  ILE167      0.2616
     86  O        -45.6960  -16.0410   20.0400 O.2   167  ILE167     -0.2715
     87  CB       -46.9450  -13.0100   20.3200 C.3   167  ILE167      0.0290
     88  CG1      -48.2820  -12.3190   20.0700 C.3   167  ILE167      0.0022
     89  CG2      -46.1710  -13.1280   19.0120 C.3   167  ILE167      0.0023
     90  CD1      -49.1390  -13.0620   19.0470 C.3   167  ILE167      0.0001
     91  N        -45.0440  -15.0790   21.9530 N.am  168  TYR168     -0.1974
     92  CA       -43.7850  -15.8370   21.9540 C.3   168  TYR168      0.1639
     93  C        -44.0570  -17.3470   22.0630 C.2   168  TYR168      0.2290
     94  O        -43.3790  -18.1590   21.4240 O.2   168  TYR168     -0.2864
     95  CB       -42.8590  -15.3770   23.0980 C.3   168  TYR168      0.0560
     96  CG       -42.0220  -14.1530   22.7680 C.ar  168  TYR168     -0.0198
     97  CD1      -42.2950  -13.3680   21.6430 C.ar  168  TYR168     -0.0009
     98  CD2      -40.9460  -13.7930   23.5710 C.ar  168  TYR168     -0.0009
     99  CE1      -41.5210  -12.2380   21.3460 C.ar  168  TYR168      0.0417
    100  CE2      -40.1700  -12.6710   23.2900 C.ar  168  TYR168      0.0417
    101  CZ       -40.4550  -11.8990   22.1760 C.ar  168  TYR168      0.1957
    102  OH       -39.6690  -10.7920   21.9130 O.3   168  TYR168     -0.2866
    103  N        -31.7660   -5.2190   21.5940 N.3   184  GLN184     -0.1245
    104  CA       -32.6910   -4.1410   21.9840 C.3   184  GLN184      0.1566
    105  C        -32.0080   -2.7740   21.9790 C.2   184  GLN184      0.2260
    106  O        -30.8420   -2.6650   22.3410 O.2   184  GLN184     -0.2867
    107  CB       -33.2970   -4.3910   23.3710 C.3   184  GLN184      0.0367
    108  CG       -34.6350   -5.0840   23.3330 C.3   184  GLN184      0.0905
    109  CD       -35.3450   -5.1500   24.6720 C.2   184  GLN184      0.2608
    110  OE1      -36.5090   -5.5410   24.7310 O.2   184  GLN184     -0.2717
    111  NE2      -34.6540   -4.7750   25.7610 N.am  184  GLN184     -0.0878
    112  N        -38.4950    1.3220   23.2150 N.3   210  ILE210     -0.1245
    113  CA       -37.7070    0.1210   23.0560 C.3   210  ILE210      0.1561
    114  C        -37.8850   -0.4310   21.6410 C.2   210  ILE210      0.2260
    115  O        -39.0030   -0.5730   21.1760 O.2   210  ILE210     -0.2867
    116  CB       -38.0880   -0.9580   24.0920 C.3   210  ILE210      0.0252
    117  CG1      -38.0240   -0.3670   25.5110 C.3   210  ILE210      0.0019
    118  CG2      -37.1490   -2.1500   23.9540 C.3   210  ILE210      0.0019
    119  CD1      -38.4400   -1.3400   26.6560 C.3   210  ILE210      0.0001
    120  N        -36.8630   -3.8510   19.5830 N.3   212  ARG212     -0.1245
    121  CA       -36.3420   -5.2110   19.7470 C.3   212  ARG212      0.1563
    122  C        -36.3480   -6.0400   18.4540 C.2   212  ARG212      0.2260
    123  O        -37.3680   -6.1380   17.7830 O.2   212  ARG212     -0.2867
    124  CB       -37.1510   -5.9630   20.8100 C.3   212  ARG212      0.0307
    125  CG       -36.7400   -7.4290   20.9430 C.3   212  ARG212      0.0489
    126  CD       -37.5860   -8.2030   21.9540 C.3   212  ARG212      0.2205
    127  NE       -37.3820   -7.7560   23.3380 N.pl3 212  ARG212     -0.0865
    128  CZ       -37.8410   -8.3990   24.4090 C.cat 212  ARG212      0.5346
    129  NH1      -38.5200   -9.5270   24.2650 N.pl3 212  ARG212      0.1354
    130  NH2      -37.6170   -7.9200   25.6340 N.pl3 212  ARG212      0.1354
    131  N        -39.0290  -11.3590   14.7030 N.3   223  GLU223     -0.1245
    132  CA       -39.7360  -10.2060   15.2550 C.3   223  GLU223      0.1567
    133  C        -38.8850   -8.9450   15.1790 C.2   223  GLU223      0.2260
    134  O        -37.6800   -8.9630   15.4480 O.2   223  GLU223     -0.2867
    135  CB       -40.1540  -10.4490   16.7170 C.3   223  GLU223      0.0388
    136  CG       -40.8560   -9.2480   17.3590 C.3   223  GLU223      0.1160
    137  CD       -41.1320   -9.4400   18.8390 C.2   223  GLU223      0.3649
    138  OE1      -42.2900   -9.1840   19.2700 O.co2 223  GLU223     -0.2457
    139  OE2      -40.1760   -9.8180   19.5660 O.co2 223  GLU223     -0.2457
    140  N        -39.8980   -5.3400   16.8930 N.3   225  ALA225     -0.1245
    141  CA       -40.9400   -4.6970   17.6780 C.3   225  ALA225      0.1562
    142  C        -40.4840   -3.3400   18.1950 C.2   225  ALA225      0.2260
    143  O        -39.3080   -3.1370   18.5060 O.2   225  ALA225     -0.2867
    144  CB       -41.3530   -5.5830   18.8320 C.3   225  ALA225      0.0290
    145  N        -41.7460   -0.4540   21.0830 N.3   227  SER227     -0.1217
    146  CA       -42.6140   -0.4120   22.2420 C.3   227  SER227      0.1889
    147  C        -42.3860    0.8460   23.0590 C.2   227  SER227      0.2288
    148  O        -41.3240    1.4710   22.9810 O.2   227  SER227     -0.2866
    149  CB       -42.3890   -1.6330   23.1420 C.3   227  SER227      0.2089
    150  OG       -42.3780   -2.8450   22.4080 O.3   227  SER227     -0.2183
    151  N        -42.7490    1.7390   27.1060 N.3   229  TYR229     -0.1241
    152  CA       -42.9470    1.2650   28.4780 C.3   229  TYR229      0.1605
    153  C        -43.0770    2.4300   29.4680 C.2   229  TYR229      0.2264
    154  O        -42.3000    3.3800   29.4250 O.2   229  TYR229     -0.2867
    155  CB       -41.7920    0.3490   28.8920 C.3   229  TYR229      0.0534
    156  CG       -42.0110   -1.0820   28.4980 C.ar  229  TYR229     -0.0201
    157  CD1      -42.0980   -1.4480   27.1500 C.ar  229  TYR229     -0.0009
    158  CD2      -42.1720   -2.0680   29.4650 C.ar  229  TYR229     -0.0009
    159  CE1      -42.3330   -2.7610   26.7840 C.ar  229  TYR229      0.0417
    160  CE2      -42.3920   -3.3870   29.1080 C.ar  229  TYR229      0.0417
    161  CZ       -42.4730   -3.7260   27.7600 C.ar  229  TYR229      0.1957
    162  OH       -42.6920   -5.0310   27.3960 O.3   229  TYR229     -0.2866
@<TRIPOS>BOND
     1   131   132    1
     2    74    73    2
     3   133   132    1
     4   133   134    2
     5   132   135    1
     6    73    72    1
     7   135   136    1
     8    72    71    1
     9    72    75    1
    10   140   141    1
    11    76    75    1
    12   136   137    1
    13   141   142    1
    14   141   144    1
    15   123   122    2
    16   142   143    2
    17   122   121    1
    18   137   138   ar
    19   137   139   ar
    20    89    87    1
    21    90    88    1
    22   120   121    1
    23   121   124    1
    24    86    85    2
    25    88    87    1
    26    65    64    2
    27    87    84    1
    28    64    63    1
    29    40    41    1
    30   124   125    1
    31   125   126    1
    32    85    84    1
    33    85    91   am
    34    84    83    1
    35    45    46    1
    36    45    44    1
    37   145   146    1
    38   115   114    2
    39    99    97   ar
    40    99   101   ar
    41    94    93    2
    42    46    47    1
    43   103   104    1
    44   114   113    1
    45    97    96   ar
    46    47    48    2
    47    41    44    1
    48    41    42    1
    49    63    66    1
    50    63    62    1
    51   102   101    1
    52    91    92    1
    53    92    93    1
    54    92    95    1
    55   126   127    1
    56   105   104    1
    57   105   106    2
    58   104   107    1
    59   101   100   ar
    60   146   147    1
    61   146   149    1
    62    83    79   am
    63    48    49    1
    64    48    50    1
    65    66    67    1
    66   150   149    1
    67    80    79    2
    68    96    95    1
    69    96    98   ar
    70    42    43    2
    71    79    78    1
    72   148   147    2
    73   113   112    1
    74   113   116    1
    75   100    98   ar
    76   108   107    1
    77   108   109    1
    78   127   128    2
    79    67    68    1
    80   118   116    1
    81    69    68   ar
    82   116   117    1
    83   129   128    1
    84    78    77    1
    85    78    81    1
    86   128   130    1
    87    68    70   ar
    88   109   110    2
    89   109   111   am
    90    82    81    1
    91    60    59    1
    92    57    58    1
    93    57    56    1
    94   117   119    1
    95    59    58    2
    96    59    61    1
    97    56    55    1
    98    12     9    1
    99    12    13    1
   100    51    52    1
   101     4     3    2
   102   159   157   ar
   103   159   161   ar
   104     9     8    1
   105     9    10    1
   106   151   152    1
   107   157   156   ar
   108     3     8   am
   109     3     2    1
   110   162   161    1
   111    55    52    1
   112     1     2    1
   113    52    53    1
   114    14    10   am
   115    14    15    1
   116   161   160   ar
   117    30    29    1
   118    18    15    1
   119    18    19    1
   120     2     5    1
   121    10    11    2
   122   152   155    1
   123   152   153    1
   124   156   155    1
   125   156   158   ar
   126    15    16    1
   127    29    31    1
   128    29    26    1
   129    19    21   ar
   130    19    20   ar
   131    53    54    2
   132    25    16   am
   133    25    26    1
   134   160   158   ar
   135    21    23   ar
   136    20    22   ar
   137   154   153    2
   138     5     6    1
   139     5     7    1
   140    16    17    2
   141    26    27    1
   142    23    24   ar
   143    22    24   ar
   144    39    37   ar
   145    27    28    2
   146    37    38   ar
   147    37    36    1
   148    32    33    1
   149    36    33    1
   150    33    34    1
   151    34    35    2
