@<TRIPOS>MOLECULE
tmp/4u0xD00.pdb
 138 128 0 0 0
SMALL
GASTEIGER

@<TRIPOS>ATOM
      1  N        -15.5420  -17.3280  -67.3170 N.3    62  SER62      -0.1217
      2  CA       -15.7310  -16.8790  -65.9250 C.3    62  SER62       0.1889
      3  C        -14.5610  -17.1370  -64.9950 C.2    62  SER62       0.2288
      4  O        -14.5410  -16.5770  -63.9050 O.2    62  SER62      -0.2866
      5  CB       -17.0150  -17.4810  -65.3150 C.3    62  SER62       0.2089
      6  OG       -18.1280  -16.8910  -65.9550 O.3    62  SER62      -0.2183
      7  N        -12.8360  -14.0730  -63.6510 N.3    65  LYS65      -0.1245
      8  CA       -13.2720  -13.3880  -62.4340 C.3    65  LYS65       0.1561
      9  C        -12.2370  -13.5430  -61.3480 C.2    65  LYS65       0.2260
     10  O        -12.1740  -12.7150  -60.4280 O.2    65  LYS65      -0.2867
     11  CB       -14.6080  -13.9100  -61.9590 C.3    65  LYS65       0.0271
     12  CG       -15.7280  -13.6500  -62.9250 C.3    65  LYS65       0.0035
     13  CD       -17.0330  -14.2210  -62.4390 C.3    65  LYS65       0.0206
     14  CE       -18.1800  -13.6290  -63.2660 C.3    65  LYS65       0.1093
     15  NZ       -18.1610  -14.1560  -64.6480 N.3    65  LYS65      -0.1314
     16  N        -27.4340  -11.9650  -64.2290 N.3   117  LEU117     -0.1231
     17  CA       -26.2350  -12.6020  -64.7540 C.3   117  LEU117      0.1693
     18  C        -25.5970  -11.8250  -65.9230 C.2   117  LEU117      0.2591
     19  O        -24.3820  -11.6540  -65.9310 O.2   117  LEU117     -0.2718
     20  CB       -26.5330  -14.0600  -65.1410 C.3   117  LEU117      0.0284
     21  CG       -25.3060  -14.8260  -65.6800 C.3   117  LEU117      0.0019
     22  CD1      -24.3480  -15.1550  -64.5490 C.3   117  LEU117      0.0001
     23  CD2      -25.7000  -16.0750  -66.4060 C.3   117  LEU117      0.0001
     24  N        -26.3890  -11.4050  -66.9070 N.am  118  GLN118     -0.1979
     25  CA       -25.8930  -10.5630  -68.0210 C.3   118  GLN118      0.1601
     26  C        -26.5380   -9.1700  -67.9450 C.2   118  GLN118      0.2287
     27  O        -27.5620   -8.9760  -67.2650 O.2   118  GLN118     -0.2864
     28  CB       -26.2190  -11.1480  -69.4120 C.3   118  GLN118      0.0394
     29  CG       -25.7780  -12.5950  -69.6840 C.3   118  GLN118      0.0908
     30  CD       -24.2610  -12.7590  -69.5990 C.2   118  GLN118      0.2608
     31  OE1      -23.5290  -11.7980  -69.4180 O.2   118  GLN118     -0.2717
     32  NE2      -23.7980  -13.9780  -69.7080 N.am  118  GLN118     -0.0878
     33  N        -25.3890  -14.6260  -58.8570 N.3   148  TYR148     -0.1241
     34  CA       -24.1750  -14.6460  -59.7090 C.3   148  TYR148      0.1605
     35  C        -24.3560  -13.6370  -60.8290 C.2   148  TYR148      0.2264
     36  O        -25.3640  -13.7070  -61.5970 O.2   148  TYR148     -0.2867
     37  CB       -23.9660  -16.0340  -60.2720 C.3   148  TYR148      0.0534
     38  CG       -22.6830  -16.2780  -61.0360 C.ar  148  TYR148     -0.0201
     39  CD1      -21.4320  -16.0780  -60.4520 C.ar  148  TYR148     -0.0009
     40  CD2      -22.7310  -16.7710  -62.3200 C.ar  148  TYR148     -0.0009
     41  CE1      -20.2630  -16.3240  -61.1500 C.ar  148  TYR148      0.0417
     42  CE2      -21.5940  -17.0310  -63.0350 C.ar  148  TYR148      0.0417
     43  CZ       -20.3620  -16.8050  -62.4660 C.ar  148  TYR148      0.1957
     44  OH       -19.2560  -17.0750  -63.2310 O.3   148  TYR148     -0.2866
     45  N        -22.3460  -11.0500  -63.8630 N.3   150  ASN150     -0.1240
     46  CA       -21.2940  -10.3480  -64.6240 C.3   150  ASN150      0.1653
     47  C        -21.2100   -8.8150  -64.4330 C.2   150  ASN150      0.2266
     48  O        -20.1190   -8.2820  -64.1760 O.2   150  ASN150     -0.2867
     49  CB       -21.4240  -10.7090  -66.1350 C.3   150  ASN150      0.1155
     50  CG       -21.0120  -12.1250  -66.4120 C.2   150  ASN150      0.2627
     51  OD1      -20.2170  -12.7010  -65.6720 O.2   150  ASN150     -0.2716
     52  ND2      -21.5920  -12.7180  -67.4220 N.am  150  ASN150     -0.0877
     53  N        -14.9130  -15.1210  -78.6400 N.3   210  VAL210     -0.1245
     54  CA       -15.7340  -14.3060  -77.7880 C.3   210  VAL210      0.1561
     55  C        -15.9560  -12.9370  -78.4150 C.2   210  VAL210      0.2260
     56  O        -15.0240  -12.3560  -78.9320 O.2   210  VAL210     -0.2867
     57  CB       -15.0900  -14.1410  -76.4020 C.3   210  VAL210      0.0252
     58  CG1      -13.9180  -13.1550  -76.4240 C.3   210  VAL210      0.0019
     59  CG2      -16.1410  -13.7300  -75.3880 C.3   210  VAL210      0.0019
     60  N        -15.4040  -12.0240  -68.0340 N.3   220  TYR220     -0.1241
     61  CA       -15.1500  -13.2900  -68.7240 C.3   220  TYR220      0.1605
     62  C        -14.1760  -13.1440  -69.8910 C.2   220  TYR220      0.2264
     63  O        -14.2120  -13.9300  -70.8120 O.2   220  TYR220     -0.2867
     64  CB       -16.4860  -13.8810  -69.2270 C.3   220  TYR220      0.0534
     65  CG       -17.2910  -12.8810  -70.0630 C.ar  220  TYR220     -0.0201
     66  CD1      -16.9450  -12.6380  -71.4010 C.ar  220  TYR220     -0.0009
     67  CD2      -18.3840  -12.1760  -69.5330 C.ar  220  TYR220     -0.0009
     68  CE1      -17.6590  -11.7320  -72.1920 C.ar  220  TYR220      0.0417
     69  CE2      -19.0970  -11.2500  -70.3140 C.ar  220  TYR220      0.0417
     70  CZ       -18.7450  -11.0390  -71.6360 C.ar  220  TYR220      0.1957
     71  OH       -19.4130  -10.1570  -72.4590 O.3   220  TYR220     -0.2866
     72  N        -26.4710  -20.9570  -59.4410 N.3   290  VAL290     -0.1245
     73  CA       -25.9160  -20.2000  -60.5670 C.3   290  VAL290      0.1561
     74  C        -26.8660  -19.1290  -61.1100 C.2   290  VAL290      0.2260
     75  O        -26.4350  -18.0310  -61.4650 O.2   290  VAL290     -0.2867
     76  CB       -25.5310  -21.1640  -61.7330 C.3   290  VAL290      0.0252
     77  CG1      -25.0690  -20.3790  -62.9480 C.3   290  VAL290      0.0019
     78  CG2      -24.4390  -22.1540  -61.3080 C.3   290  VAL290      0.0019
     79  N        -15.5380  -22.8060  -62.2940 N.3   309  THR309     -0.1203
     80  CA       -15.8760  -23.1420  -63.6980 C.3   309  THR309      0.1994
     81  C        -15.9770  -21.8330  -64.5040 C.2   309  THR309      0.2618
     82  O        -16.2460  -20.7270  -63.9750 O.2   309  THR309     -0.2717
     83  CB       -17.1980  -23.9000  -63.8600 C.3   309  THR309      0.1784
     84  OG1      -18.2520  -23.1010  -63.3020 O.3   309  THR309     -0.2211
     85  CG2      -17.1350  -25.3060  -63.1970 C.3   309  THR309      0.0376
     86  N        -15.7390  -21.9830  -65.7880 N.am  310  GLY310     -0.1942
     87  CA       -15.7080  -20.8490  -66.7050 C.3   310  GLY310      0.2014
     88  C        -16.1170  -21.3150  -68.0720 C.2   310  GLY310      0.2640
     89  O        -15.6960  -22.3910  -68.5100 O.2   310  GLY310     -0.2714
     90  N        -16.9150  -20.4980  -68.7560 N.am  311  SER311     -0.1935
     91  CA       -17.3320  -20.8180  -70.1020 C.3   311  SER311      0.2055
     92  C        -17.4090  -19.5570  -70.9340 C.2   311  SER311      0.2644
     93  O        -17.6690  -18.4940  -70.4280 O.2   311  SER311     -0.2714
     94  CB       -18.6900  -21.5160  -70.0910 C.3   311  SER311      0.2130
     95  OG       -18.5800  -22.8610  -69.6610 O.3   311  SER311     -0.2179
     96  N        -17.1290  -19.6980  -72.2120 N.am  312  THR312     -0.1936
     97  CA       -17.5750  -18.7240  -73.2160 C.3   312  THR312      0.2028
     98  C        -18.3900  -19.5810  -74.1630 C.2   312  THR312      0.2642
     99  O        -18.5590  -20.7910  -73.9100 O.2   312  THR312     -0.2714
    100  CB       -16.3940  -18.0200  -73.9270 C.3   312  THR312      0.1808
    101  OG1      -15.6180  -18.9670  -74.6480 O.3   312  THR312     -0.2208
    102  CG2      -15.5130  -17.2900  -72.9240 C.3   312  THR312      0.0379
    103  N        -18.8710  -18.9910  -75.2600 N.am  313  SER313     -0.1949
    104  CA       -19.7070  -19.7110  -76.2350 C.3   313  SER313      0.1924
    105  C        -18.9600  -20.8250  -76.9650 C.2   313  SER313      0.2314
    106  O        -19.5560  -21.6990  -77.6090 O.2   313  SER313     -0.2863
    107  CB       -20.2500  -18.7100  -77.2830 C.3   313  SER313      0.2116
    108  OG       -19.2470  -18.3440  -78.2270 O.3   313  SER313     -0.2180
    109  N        -17.5440  -26.0250  -75.3540 N.3   336  ARG336     -0.1245
    110  CA       -18.1610  -26.1250  -74.0260 C.3   336  ARG336      0.1563
    111  C        -18.4770  -27.6000  -73.7400 C.2   336  ARG336      0.2260
    112  O        -18.7610  -28.3360  -74.6560 O.2   336  ARG336     -0.2867
    113  CB       -19.4750  -25.3150  -73.9430 C.3   336  ARG336      0.0307
    114  CG       -19.3380  -23.9410  -73.3260 C.3   336  ARG336      0.0489
    115  CD       -20.6640  -23.3880  -72.8240 C.3   336  ARG336      0.2205
    116  NE       -21.4510  -22.6970  -73.8420 N.pl3 336  ARG336     -0.0865
    117  CZ       -22.1700  -21.5930  -73.6110 C.cat 336  ARG336      0.5346
    118  NH1      -22.1820  -21.0390  -72.4000 N.pl3 336  ARG336      0.1354
    119  NH2      -22.8600  -21.0310  -74.5930 N.pl3 336  ARG336      0.1354
    120  N        -20.5700  -28.7350  -67.0120 N.3   339  ASN339     -0.1240
    121  CA       -19.7900  -28.4820  -65.8310 C.3   339  ASN339      0.1653
    122  C        -19.6430  -29.7140  -64.9160 C.2   339  ASN339      0.2266
    123  O        -18.6400  -29.8790  -64.2510 O.2   339  ASN339     -0.2867
    124  CB       -20.4230  -27.3340  -65.0460 C.3   339  ASN339      0.1155
    125  CG       -20.2080  -25.9900  -65.7090 C.2   339  ASN339      0.2627
    126  OD1      -19.2300  -25.7800  -66.4100 O.2   339  ASN339     -0.2716
    127  ND2      -21.1370  -25.0690  -65.4940 N.am  339  ASN339     -0.0877
    128  N        -16.7230  -31.8190  -66.0920 N.3   342  ARG342     -0.1245
    129  CA       -15.4150  -31.2190  -65.8780 C.3   342  ARG342      0.1563
    130  C        -15.0050  -31.5040  -64.4170 C.2   342  ARG342      0.2260
    131  O        -13.9100  -31.9750  -64.1490 O.2   342  ARG342     -0.2867
    132  CB       -15.4140  -29.6980  -66.1030 C.3   342  ARG342      0.0307
    133  CG       -16.2240  -29.1740  -67.2690 C.3   342  ARG342      0.0489
    134  CD       -16.1980  -27.6610  -67.3260 C.3   342  ARG342      0.2205
    135  NE       -17.1050  -27.1910  -68.3760 N.pl3 342  ARG342     -0.0865
    136  CZ       -17.2700  -25.9150  -68.7100 C.cat 342  ARG342      0.5346
    137  NH1      -16.6400  -24.9430  -68.0630 N.pl3 342  ARG342      0.1354
    138  NH2      -18.1130  -25.5970  -69.6770 N.pl3 342  ARG342      0.1354
@<TRIPOS>BOND
     1    56    55    2
     2    53    54    1
     3    55    54    1
     4   108   107    1
     5    54    57    1
     6   106   105    2
     7   107   104    1
     8   105   104    1
     9    58    57    1
    10    57    59    1
    11   104   103    1
    12   109   110    1
    13   103    98   am
    14   112   111    2
    15   101   100    1
    16   119   117    1
    17    98    99    2
    18    98    97    1
    19   110   113    1
    20   110   111    1
    21   113   114    1
    22   100    97    1
    23   100   102    1
    24   116   117    2
    25   116   115    1
    26   117   118    1
    27   114   115    1
    28    97    96    1
    29    71    70    1
    30    96    92   am
    31    68    70   ar
    32    68    66   ar
    33    70    69   ar
    34    66    65   ar
    35    92    93    2
    36    92    91    1
    37    63    62    2
    38    69    67   ar
    39    91    94    1
    40    91    90    1
    41    94    95    1
    42    65    67   ar
    43    65    64    1
    44    62    61    1
    45    32    30   am
    46    29    30    1
    47    29    28    1
    48   138   136    1
    49    30    31    2
    50    28    25    1
    51    64    61    1
    52    90    88   am
    53    61    60    1
    54   136   135    2
    55   136   137    1
    56    89    88    2
    57   135   134    1
    58    88    87    1
    59    25    26    1
    60    25    24    1
    61    26    27    2
    62    52    50   am
    63   134   133    1
    64     1     2    1
    65   133   132    1
    66   120   121    1
    67    24    18   am
    68    87    86    1
    69    50    49    1
    70    50    51    2
    71   126   125    2
    72    23    21    1
    73    49    46    1
    74   132   129    1
    75   128   129    1
    76     6     5    1
    77    19    18    2
    78     2     5    1
    79     2     3    1
    80    18    17    1
    81   129   130    1
    82   121   124    1
    83   121   122    1
    84    86    81   am
    85   125   127   am
    86   125   124    1
    87    21    20    1
    88    21    22    1
    89    20    17    1
    90     3     4    2
    91   122   123    2
    92    17    16    1
    93    15    14    1
    94    46    47    1
    95    46    45    1
    96    81    82    2
    97    81    80    1
    98    47    48    2
    99   130   131    2
   100    83    80    1
   101    83    84    1
   102    83    85    1
   103    80    79    1
   104     7     8    1
   105    14    13    1
   106    44    43    1
   107    42    43   ar
   108    42    40   ar
   109    77    76    1
   110    12    13    1
   111    12    11    1
   112    43    41   ar
   113     8    11    1
   114     8     9    1
   115    40    38   ar
   116    76    78    1
   117    76    73    1
   118    36    35    2
   119    75    74    2
   120     9    10    2
   121    41    39   ar
   122    74    73    1
   123    38    39   ar
   124    38    37    1
   125    35    34    1
   126    73    72    1
   127    37    34    1
   128    34    33    1
