@<TRIPOS>MOLECULE
tmp/4u0xB00.pdb
 124 115 0 0 0
SMALL
GASTEIGER

@<TRIPOS>ATOM
      1  N         35.7060   -9.8280  -10.5730 N.3    61  SER61      -0.1217
      2  CA        35.3370  -11.2550  -10.6230 C.3    61  SER61       0.1889
      3  C         33.8440  -11.5360  -10.5650 C.2    61  SER61       0.2288
      4  O         33.4450  -12.6180  -10.9420 O.2    61  SER61      -0.2866
      5  CB        36.0900  -12.0880   -9.5930 C.3    61  SER61       0.2089
      6  OG        37.4620  -12.0220   -9.9730 O.3    61  SER61      -0.2183
      7  N         32.3540  -13.1500  -13.6100 N.3    64  LYS64      -0.1245
      8  CA        32.2760  -14.5980  -13.7690 C.3    64  LYS64       0.1561
      9  C         30.8250  -15.0750  -13.7070 C.2    64  LYS64       0.2260
     10  O         30.5380  -16.1310  -14.1830 O.2    64  LYS64      -0.2867
     11  CB        33.1280  -15.3430  -12.7690 C.3    64  LYS64       0.0271
     12  CG        34.6390  -15.0800  -12.8920 C.3    64  LYS64       0.0035
     13  CD        35.3550  -15.5870  -11.6250 C.3    64  LYS64       0.0206
     14  CE        36.8520  -15.7000  -11.9540 C.3    64  LYS64       0.1093
     15  NZ        37.5800  -14.4390  -11.7150 N.3    64  LYS64      -0.1314
     16  N         45.4970  -18.6790  -10.1030 N.3   116  LEU116     -0.1231
     17  CA        44.6950  -17.4500  -10.1490 C.3   116  LEU116      0.1693
     18  C         44.9070  -16.6690  -11.4110 C.2   116  LEU116      0.2591
     19  O         43.9710  -16.2760  -12.1130 O.2   116  LEU116     -0.2718
     20  CB        45.0190  -16.5910   -8.9420 C.3   116  LEU116      0.0284
     21  CG        44.1030  -15.3320   -8.8250 C.3   116  LEU116      0.0019
     22  CD1       42.6740  -15.6940   -8.4950 C.3   116  LEU116      0.0001
     23  CD2       44.6120  -14.3890   -7.7730 C.3   116  LEU116      0.0001
     24  N         46.1640  -16.4610  -11.7810 N.am  117  GLN117     -0.1979
     25  CA        46.4350  -15.7160  -13.0160 C.3   117  GLN117      0.1601
     26  C         47.3330  -16.4890  -13.9090 C.2   117  GLN117      0.2287
     27  O         48.2020  -17.2450  -13.4160 O.2   117  GLN117     -0.2864
     28  CB        47.1660  -14.3910  -12.6850 C.3   117  GLN117      0.0394
     29  CG        46.5020  -13.5290  -11.6320 C.3   117  GLN117      0.0908
     30  CD        45.2500  -12.8190  -12.0900 C.2   117  GLN117      0.2608
     31  OE1       44.7930  -12.9820  -13.2130 O.2   117  GLN117     -0.2717
     32  NE2       44.6720  -12.0100  -11.1730 N.am  117  GLN117     -0.0878
     33  N         40.9260  -21.6390   -7.1110 N.3   147  TYR147     -0.1241
     34  CA        40.3540  -20.4800   -7.8230 C.3   147  TYR147      0.1605
     35  C         41.2400  -19.8500   -8.9170 C.2   147  TYR147      0.2264
     36  O         42.4000  -19.4770   -8.6590 O.2   147  TYR147     -0.2867
     37  CB        39.9600  -19.4890   -6.7770 C.3   147  TYR147      0.0534
     38  CG        39.2010  -18.3170   -7.2540 C.ar  147  TYR147     -0.0201
     39  CD1       38.0090  -18.4650   -7.9620 C.ar  147  TYR147     -0.0009
     40  CD2       39.6560  -17.0280   -6.9750 C.ar  147  TYR147     -0.0009
     41  CE1       37.2670  -17.3480   -8.3520 C.ar  147  TYR147      0.0417
     42  CE2       38.9150  -15.9130   -7.3680 C.ar  147  TYR147      0.0417
     43  CZ        37.7110  -16.0730   -8.0400 C.ar  147  TYR147      0.1957
     44  OH        36.9930  -14.9290   -8.4410 O.3   147  TYR147     -0.2866
     45  N         41.4270  -17.6050  -12.9050 N.3   149  ASN149     -0.1240
     46  CA        41.0440  -16.8730  -14.0970 C.3   149  ASN149      0.1653
     47  C         41.2110  -17.6000  -15.4290 C.2   149  ASN149      0.2266
     48  O         40.3290  -17.5340  -16.3310 O.2   149  ASN149     -0.2867
     49  CB        41.7380  -15.4990  -14.1340 C.3   149  ASN149      0.1155
     50  CG        41.0820  -14.4670  -13.1980 C.2   149  ASN149      0.2627
     51  OD1       39.9340  -14.6120  -12.8010 O.2   149  ASN149     -0.2716
     52  ND2       41.8330  -13.4740  -12.7880 N.am  149  ASN149     -0.0877
     53  N         40.7480   -0.6060  -15.8580 N.3   209  VAL209     -0.1245
     54  CA        41.2360   -1.9370  -16.0100 C.3   209  VAL209      0.1561
     55  C         42.0800   -2.0090  -17.2880 C.2   209  VAL209      0.2260
     56  O         41.7430   -1.3940  -18.2710 O.2   209  VAL209     -0.2867
     57  CB        40.0810   -2.9660  -15.9570 C.3   209  VAL209      0.0252
     58  CG1       39.1260   -2.8030  -17.1520 C.3   209  VAL209      0.0019
     59  CG2       40.6520   -4.3820  -15.8730 C.3   209  VAL209      0.0019
     60  N         37.1080  -11.2440  -15.6210 N.3   219  TYR219     -0.1241
     61  CA        36.9490  -10.0540  -14.7990 C.3   219  TYR219      0.1605
     62  C         36.5640   -8.8040  -15.6070 C.2   219  TYR219      0.2264
     63  O         36.7940   -7.6970  -15.1580 O.2   219  TYR219     -0.2867
     64  CB        38.2170   -9.8000  -14.0010 C.3   219  TYR219      0.0534
     65  CG        39.4980   -9.7370  -14.8520 C.ar  219  TYR219     -0.0201
     66  CD1       39.8400   -8.5820  -15.5420 C.ar  219  TYR219     -0.0009
     67  CD2       40.3530  -10.8370  -14.9610 C.ar  219  TYR219     -0.0009
     68  CE1       40.9870   -8.5240  -16.3080 C.ar  219  TYR219      0.0417
     69  CE2       41.5130  -10.7880  -15.7420 C.ar  219  TYR219      0.0417
     70  CZ        41.8260   -9.6150  -16.3980 C.ar  219  TYR219      0.1957
     71  OH        42.9470   -9.5030  -17.1880 O.3   219  TYR219     -0.2866
     72  N         34.0710   -9.4300   -6.0350 N.3   311  GLY311     -0.1210
     73  CA        34.8940   -9.1860   -7.1990 C.3   311  GLY311      0.1956
     74  C         35.6920   -7.8920   -7.0990 C.2   311  GLY311      0.2613
     75  O         35.2650   -6.9760   -6.4310 O.2   311  GLY311     -0.2717
     76  N         36.8630   -7.8660   -7.7530 N.am  312  SER312     -0.1938
     77  CA        37.7810   -6.7440   -7.6710 C.3   312  SER312      0.2055
     78  C         38.4980   -6.5890   -8.9880 C.2   312  SER312      0.2644
     79  O         38.7470   -7.5770   -9.7080 O.2   312  SER312     -0.2714
     80  CB        38.8350   -6.9280   -6.5490 C.3   312  SER312      0.2130
     81  OG        38.3040   -6.8530   -5.2260 O.3   312  SER312     -0.2179
     82  N         38.7570   -5.3380   -9.3300 N.am  313  THR313     -0.1936
     83  CA        39.8610   -4.9540  -10.2540 C.3   313  THR313      0.2028
     84  C         40.8390   -4.1240   -9.4040 C.2   313  THR313      0.2642
     85  O         40.6320   -3.9720   -8.2280 O.2   313  THR313     -0.2714
     86  CB        39.4260   -4.1460  -11.4740 C.3   313  THR313      0.1808
     87  OG1       38.8240   -2.9030  -11.0630 O.3   313  THR313     -0.2208
     88  CG2       38.4640   -4.9160  -12.3410 C.3   313  THR313      0.0379
     89  N         41.9000   -3.6210  -10.0180 N.am  314  SER314     -0.1949
     90  CA        42.8870   -2.8140   -9.2880 C.3   314  SER314      0.1924
     91  C         42.2310   -1.5920   -8.6740 C.2   314  SER314      0.2314
     92  O         42.5510   -1.2140   -7.5740 O.2   314  SER314     -0.2863
     93  CB        44.0420   -2.4080  -10.2150 C.3   314  SER314      0.2116
     94  OG        44.8040   -3.5520  -10.5680 O.3   314  SER314     -0.2180
     95  N         39.0460   -0.5080   -4.0070 N.3   337  ARG337     -0.1245
     96  CA        38.9300   -1.7950   -3.2880 C.3   337  ARG337      0.1563
     97  C         38.8720   -1.5530   -1.8100 C.2   337  ARG337      0.2260
     98  O         39.5970   -0.7120   -1.3320 O.2   337  ARG337     -0.2867
     99  CB        40.1060   -2.7150   -3.5950 C.3   337  ARG337      0.0307
    100  CG        40.2560   -3.0390   -5.0540 C.3   337  ARG337      0.0489
    101  CD        41.2240   -4.1950   -5.2370 C.3   337  ARG337      0.2205
    102  NE        42.5760   -3.7740   -4.9240 N.pl3 337  ARG337     -0.0865
    103  CZ        43.6760   -4.4680   -5.1950 C.cat 337  ARG337      0.5346
    104  NH1       43.6170   -5.6660   -5.7950 N.pl3 337  ARG337      0.1354
    105  NH2       44.8530   -3.9440   -4.8630 N.pl3 337  ARG337      0.1354
    106  N         37.5440   -7.6120    1.3630 N.3   340  ASN340     -0.1240
    107  CA        36.4090   -8.4890    1.1720 C.3   340  ASN340      0.1653
    108  C         35.5840   -8.6460    2.4130 C.2   340  ASN340      0.2266
    109  O         34.3580   -8.6040    2.3350 O.2   340  ASN340     -0.2867
    110  CB        36.8770   -9.8080    0.5730 C.3   340  ASN340      0.1155
    111  CG        37.2220   -9.6790   -0.8470 C.2   340  ASN340      0.2627
    112  OD1       36.5490   -8.9560   -1.6250 O.2   340  ASN340     -0.2716
    113  ND2       38.2550  -10.4100   -1.2590 N.am  340  ASN340     -0.0877
    114  N         33.0130   -5.9410    3.1430 N.3   343  ARG343     -0.1245
    115  CA        31.8770   -5.9750    2.1780 C.3   343  ARG343      0.1563
    116  C         30.8530   -6.9720    2.6810 C.2   343  ARG343      0.2260
    117  O         29.6850   -6.6550    2.8810 O.2   343  ARG343     -0.2867
    118  CB        32.3830   -6.3740    0.8200 C.3   343  ARG343      0.0307
    119  CG        33.4130   -5.4350    0.1710 C.3   343  ARG343      0.0489
    120  CD        33.9680   -6.1330   -1.0250 C.3   343  ARG343      0.2205
    121  NE        35.2960   -5.7280   -1.4060 N.pl3 343  ARG343     -0.0865
    122  CZ        35.8870   -6.0270   -2.5420 C.cat 343  ARG343      0.5346
    123  NH1       35.2640   -6.6790   -3.5240 N.pl3 343  ARG343      0.1354
    124  NH2       37.1260   -5.6540   -2.7500 N.pl3 343  ARG343      0.1354
@<TRIPOS>BOND
     1    56    55    2
     2    55    54    1
     3    71    70    1
     4    58    57    1
     5    70    68   ar
     6    70    69   ar
     7    48    47    2
     8    68    66   ar
     9    54    57    1
    10    54    53    1
    11    57    59    1
    12    69    67   ar
    13    60    61    1
    14    62    63    2
    15    62    61    1
    16    66    65   ar
    17    47    46    1
    18    67    65   ar
    19    65    64    1
    20    61    64    1
    21    10     9    2
    22    49    46    1
    23    49    50    1
    24    46    45    1
    25    26    27    2
    26    26    25    1
    27     8     9    1
    28     8     7    1
    29     8    11    1
    30    31    30    2
    31    50    51    2
    32    50    52   am
    33    25    28    1
    34    25    24    1
    35    12    11    1
    36    12    13    1
    37    28    29    1
    38    88    86    1
    39    19    18    2
    40    30    29    1
    41    30    32   am
    42    14    15    1
    43    14    13    1
    44    24    18   am
    45    86    87    1
    46    86    83    1
    47    18    17    1
    48     4     3    2
    49     2     1    1
    50     2     3    1
    51     2     5    1
    52    94    93    1
    53    83    84    1
    54    83    82    1
    55    93    90    1
    56    17    16    1
    57    17    20    1
    58    89    84   am
    59    89    90    1
    60     6     5    1
    61    79    78    2
    62    84    85    2
    63    82    78   am
    64    90    91    1
    65    78    77    1
    66    20    21    1
    67    35    36    2
    68    35    34    1
    69    21    22    1
    70    21    23    1
    71    91    92    2
    72    44    43    1
    73    41    43   ar
    74    41    39   ar
    75    43    42   ar
    76    39    38   ar
    77    34    33    1
    78    34    37    1
    79    76    77    1
    80    76    74   am
    81    77    80    1
    82    42    40   ar
    83    38    40   ar
    84    38    37    1
    85    73    74    1
    86    73    72    1
    87    74    75    2
    88    80    81    1
    89   104   103    1
    90   101   100    1
    91   101   102    1
    92   103   102    2
    93   103   105    1
    94   100    99    1
    95    95    96    1
    96    99    96    1
    97   123   122    1
    98    96    97    1
    99   124   122    1
   100   122   121    2
   101    97    98    2
   102   112   111    2
   103   121   120    1
   104   113   111   am
   105   120   119    1
   106   111   110    1
   107   119   118    1
   108   110   107    1
   109   118   115    1
   110   107   106    1
   111   107   108    1
   112   115   116    1
   113   115   114    1
   114   109   108    2
   115   116   117    2
