@<TRIPOS>MOLECULE
tmp/4u0zC00.pdb
 207 204 0 0 0
SMALL
GASTEIGER

@<TRIPOS>ATOM
      1  N         50.9650  -39.3640   41.0350 N.3   129  ILE129     -0.1231
      2  CA        51.0690  -38.5320   39.8360 C.3   129  ILE129      0.1692
      3  C         52.4670  -37.8410   39.7100 C.2   129  ILE129      0.2591
      4  O         52.8960  -37.5100   38.6090 O.2   129  ILE129     -0.2718
      5  CB        49.8510  -37.5810   39.7060 C.3   129  ILE129      0.0266
      6  CG1       49.6160  -37.1860   38.2550 C.3   129  ILE129      0.0019
      7  CG2       49.9420  -36.3780   40.5960 C.3   129  ILE129      0.0020
      8  CD1       48.1780  -37.0570   37.8810 C.3   129  ILE129      0.0001
      9  N         53.1710  -37.7010   40.8340 N.am  130  GLU130     -0.1979
     10  CA        54.5130  -37.1380   40.9160 C.3   130  GLU130      0.1602
     11  C         55.6050  -38.1920   40.9280 C.2   130  GLU130      0.2287
     12  O         56.7890  -37.8410   40.9090 O.2   130  GLU130     -0.2864
     13  CB        54.6980  -36.2530   42.1830 C.3   130  GLU130      0.0415
     14  CG        53.8130  -34.9920   42.2080 C.3   130  GLU130      0.1163
     15  CD        54.3120  -33.8600   41.2910 C.2   130  GLU130      0.3649
     16  OE1       55.4350  -33.9390   40.7310 O.co2 130  GLU130     -0.2457
     17  OE2       53.5670  -32.8730   41.1370 O.co2 130  GLU130     -0.2457
     18  N         64.0480  -22.7850   36.8670 N.3   210  VAL210     -0.1231
     19  CA        63.7650  -24.1830   36.5330 C.3   210  VAL210      0.1692
     20  C         63.0840  -24.3570   35.1720 C.2   210  VAL210      0.2592
     21  O         62.6520  -23.3810   34.5640 O.2   210  VAL210     -0.2718
     22  CB        62.9370  -24.8490   37.6710 C.3   210  VAL210      0.0266
     23  CG1       63.7080  -24.8670   38.9800 C.3   210  VAL210      0.0020
     24  CG2       61.5890  -24.1710   37.8530 C.3   210  VAL210      0.0020
     25  N         62.9740  -25.6140   34.7260 N.am  211  LEU211     -0.1966
     26  CA        62.2720  -26.0370   33.5250 C.3   211  LEU211      0.1728
     27  C         61.2120  -27.0950   33.9380 C.2   211  LEU211      0.2616
     28  O         61.5020  -28.0160   34.7160 O.2   211  LEU211     -0.2715
     29  CB        63.2850  -26.6030   32.5080 C.3   211  LEU211      0.0311
     30  CG        62.7520  -27.1640   31.1910 C.3   211  LEU211      0.0022
     31  CD1       62.2160  -26.0570   30.2530 C.3   211  LEU211      0.0001
     32  CD2       63.8020  -27.9320   30.4940 C.3   211  LEU211      0.0001
     33  N         59.9750  -26.9330   33.4410 N.am  212  VAL212     -0.1963
     34  CA        58.8600  -27.8790   33.6590 C.3   212  VAL212      0.1727
     35  C         58.4940  -28.3660   32.2600 C.2   212  VAL212      0.2617
     36  O         57.7910  -27.6510   31.5390 O.2   212  VAL212     -0.2715
     37  CB        57.6230  -27.2250   34.3440 C.3   212  VAL212      0.0290
     38  CG1       56.8010  -28.2660   35.0870 C.3   212  VAL212      0.0023
     39  CG2       58.0170  -26.0850   35.2730 C.3   212  VAL212      0.0023
     40  N         59.0190  -29.5110   31.8460 N.am  213  GLY213     -0.1940
     41  CA        58.7980  -29.9790   30.4810 C.3   213  GLY213      0.2014
     42  C         59.4930  -29.0490   29.4940 C.2   213  GLY213      0.2639
     43  O         60.7200  -29.0190   29.4260 O.2   213  GLY213     -0.2714
     44  N         58.7190  -28.2470   28.7620 N.am  214  HIS214     -0.1959
     45  CA        59.2310  -27.2680   27.7900 C.3   214  HIS214      0.1787
     46  C         58.9030  -25.8460   28.2660 C.2   214  HIS214      0.2620
     47  O         59.1360  -24.8650   27.5340 O.2   214  HIS214     -0.2715
     48  CB        58.6280  -27.5030   26.3910 C.3   214  HIS214      0.0785
     49  CG        59.0240  -28.8080   25.7750 C.ar  214  HIS214      0.0821
     50  ND1       60.3560  -29.1900   25.6790 N.ar  214  HIS214     -0.2267
     51  CD2       58.2540  -29.7700   25.2230 C.ar  214  HIS214      0.1154
     52  CE1       60.3480  -30.3770   25.0950 C.ar  214  HIS214      0.1986
     53  NE2       59.1110  -30.7640   24.7990 N.ar  214  HIS214     -0.2212
     54  N         58.3740  -25.7470   29.5030 N.am  215  HIS215     -0.1973
     55  CA        57.9570  -24.5040   30.1030 C.3   215  HIS215      0.1656
     56  C         59.0110  -23.9140   31.0270 C.2   215  HIS215      0.2291
     57  O         59.4850  -24.5750   31.9630 O.2   215  HIS215     -0.2864
     58  CB        56.6170  -24.7050   30.8250 C.3   215  HIS215      0.0771
     59  CG        56.1300  -23.5180   31.5930 C.ar  215  HIS215      0.0820
     60  ND1       55.9600  -23.5780   32.9520 N.ar  215  HIS215     -0.2267
     61  CD2       55.8100  -22.2730   31.1650 C.ar  215  HIS215      0.1154
     62  CE1       55.5240  -22.3830   33.3070 C.ar  215  HIS215      0.1986
     63  NE2       55.4320  -21.5620   32.2670 N.ar  215  HIS215     -0.2212
     64  N         45.9030  -23.6100   36.9610 N.3   253  TYR253     -0.1241
     65  CA        46.8160  -23.3850   35.8490 C.3   253  TYR253      0.1605
     66  C         47.7570  -22.2230   36.1800 C.2   253  TYR253      0.2264
     67  O         48.9690  -22.4230   36.1880 O.2   253  TYR253     -0.2867
     68  CB        46.0820  -23.2050   34.4880 C.3   253  TYR253      0.0534
     69  CG        47.0340  -22.7680   33.3850 C.ar  253  TYR253     -0.0201
     70  CD1       47.9830  -23.6470   32.8670 C.ar  253  TYR253     -0.0009
     71  CD2       47.0660  -21.4430   32.9470 C.ar  253  TYR253     -0.0009
     72  CE1       48.9350  -23.2230   31.9460 C.ar  253  TYR253      0.0417
     73  CE2       47.9970  -21.0170   32.0040 C.ar  253  TYR253      0.0417
     74  CZ        48.9280  -21.9110   31.5070 C.ar  253  TYR253      0.1957
     75  OH        49.8590  -21.4930   30.5900 O.3   253  TYR253     -0.2866
     76  N         50.5580  -23.1240   38.8190 N.3   256  VAL256     -0.1231
     77  CA        51.4230  -24.0860   38.1410 C.3   256  VAL256      0.1692
     78  C         52.3020  -23.4180   37.0920 C.2   256  VAL256      0.2592
     79  O         53.4530  -23.7980   36.9230 O.2   256  VAL256     -0.2718
     80  CB        50.5290  -25.2240   37.5740 C.3   256  VAL256      0.0266
     81  CG1       51.0200  -25.7810   36.2450 C.3   256  VAL256      0.0020
     82  CG2       50.3370  -26.3270   38.5830 C.3   256  VAL256      0.0020
     83  N         51.7580  -22.4190   36.4040 N.am  257  TYR257     -0.1976
     84  CA        52.4580  -21.6340   35.3800 C.3   257  TYR257      0.1639
     85  C         53.5920  -20.8010   36.0220 C.2   257  TYR257      0.2290
     86  O         54.7080  -20.8230   35.5320 O.2   257  TYR257     -0.2864
     87  CB        51.4600  -20.7180   34.6080 C.3   257  TYR257      0.0560
     88  CG        52.1440  -19.8070   33.6110 C.ar  257  TYR257     -0.0198
     89  CD1       52.5250  -20.2740   32.3570 C.ar  257  TYR257     -0.0009
     90  CD2       52.4170  -18.4800   33.9230 C.ar  257  TYR257     -0.0009
     91  CE1       53.1700  -19.4480   31.4420 C.ar  257  TYR257      0.0417
     92  CE2       53.0620  -17.6430   33.0190 C.ar  257  TYR257      0.0417
     93  CZ        53.4560  -18.1350   31.7830 C.ar  257  TYR257      0.1957
     94  OH        54.1160  -17.3200   30.8860 O.3   257  TYR257     -0.2866
     95  N         54.9920  -21.3940   38.9010 N.3   259  HIS259     -0.1241
     96  CA        55.9180  -22.3710   39.4890 C.3   259  HIS259      0.1621
     97  C         56.7710  -21.6670   40.5630 C.2   259  HIS259      0.2264
     98  O         57.9710  -21.5030   40.3860 O.2   259  HIS259     -0.2867
     99  CB        56.7910  -23.0080   38.3990 C.3   259  HIS259      0.0745
    100  CG        56.8960  -24.5000   38.4670 C.ar  259  HIS259      0.0817
    101  ND1       55.8070  -25.3270   38.1380 N.ar  259  HIS259     -0.2268
    102  CD2       57.9710  -25.2720   38.7700 C.ar  259  HIS259      0.1154
    103  CE1       56.2500  -26.5590   38.2890 C.ar  259  HIS259      0.1986
    104  NE2       57.5550  -26.5760   38.6690 N.ar  259  HIS259     -0.2212
    105  N         60.4580  -24.7360   44.3780 N.3   262  ILE262     -0.1231
    106  CA        61.3960  -25.7190   43.8250 C.3   262  ILE262      0.1692
    107  C         60.6480  -27.0300   43.5830 C.2   262  ILE262      0.2592
    108  O         60.8000  -27.6280   42.5120 O.2   262  ILE262     -0.2718
    109  CB        62.6510  -25.9070   44.7200 C.3   262  ILE262      0.0266
    110  CG1       63.4280  -24.5820   44.8600 C.3   262  ILE262      0.0019
    111  CG2       63.5420  -27.0350   44.2330 C.3   262  ILE262      0.0020
    112  CD1       64.1360  -24.1740   43.5770 C.3   262  ILE262      0.0001
    113  N         59.7840  -27.4230   44.5530 N.am  263  ASP263     -0.1960
    114  CA        58.9680  -28.6420   44.5260 C.3   263  ASP263      0.1840
    115  C         57.5830  -28.4280   45.1410 C.2   263  ASP263      0.2623
    116  O         57.3770  -27.4640   45.8770 O.2   263  ASP263     -0.2715
    117  CB        59.6920  -29.7730   45.2690 C.3   263  ASP263      0.1450
    118  CG        60.1040  -30.9090   44.3650 C.2   263  ASP263      0.3671
    119  OD1       61.1500  -30.7680   43.6750 O.co2 263  ASP263     -0.2456
    120  OD2       59.3900  -31.9520   44.3520 O.co2 263  ASP263     -0.2456
    121  N         56.6540  -29.3270   44.8330 N.am  264  GLY264     -0.1940
    122  CA        55.3100  -29.2810   45.3760 C.3   264  GLY264      0.2014
    123  C         54.3750  -28.2580   44.7650 C.2   264  GLY264      0.2639
    124  O         53.3880  -27.8900   45.4050 O.2   264  GLY264     -0.2714
    125  N         54.6440  -27.8140   43.5270 N.am  265  ASN265     -0.1958
    126  CA        53.7880  -26.8530   42.7900 C.3   265  ASN265      0.1819
    127  C         52.4490  -27.4850   42.4070 C.2   265  ASN265      0.2622
    128  O         51.4020  -26.9260   42.7400 O.2   265  ASN265     -0.2715
    129  CB        54.4670  -26.3150   41.5340 C.3   265  ASN265      0.1195
    130  CG        55.7480  -25.6070   41.8410 C.2   265  ASN265      0.2630
    131  OD1       55.7660  -24.4230   42.1940 O.2   265  ASN265     -0.2716
    132  ND2       56.8540  -26.3260   41.7240 N.am  265  ASN265     -0.0877
    133  N         52.5100  -28.6520   41.7680 N.am  266  GLY266     -0.1940
    134  CA        51.3360  -29.4050   41.3560 C.3   266  GLY266      0.2014
    135  C         50.4440  -29.8060   42.5140 C.2   266  GLY266      0.2638
    136  O         49.2250  -29.6780   42.4070 O.2   266  GLY266     -0.2714
    137  N         51.0530  -30.2570   43.6530 N.am  267  ARG267     -0.1977
    138  CA        50.3550  -30.6550   44.8750 C.3   267  ARG267      0.1597
    139  C         49.6710  -29.4630   45.5070 C.2   267  ARG267      0.2287
    140  O         48.5140  -29.6020   45.8680 O.2   267  ARG267     -0.2864
    141  CB        51.3070  -31.3210   45.8680 C.3   267  ARG267      0.0334
    142  CG        51.4820  -32.8280   45.6280 C.3   267  ARG267      0.0492
    143  CD        52.6360  -33.4250   46.4210 C.3   267  ARG267      0.2205
    144  NE        53.9300  -33.0050   45.8700 N.pl3 267  ARG267     -0.0865
    145  CZ        55.1090  -33.2860   46.4150 C.cat 267  ARG267      0.5346
    146  NH1       55.1780  -33.9860   47.5380 N.pl3 267  ARG267      0.1354
    147  NH2       56.2270  -32.8430   45.8570 N.pl3 267  ARG267      0.1354
    148  N         46.7200  -28.3380   43.0910 N.3   270  ARG270     -0.1245
    149  CA        45.6250  -29.3130   43.2450 C.3   270  ARG270      0.1563
    150  C         44.8550  -29.0810   44.5400 C.2   270  ARG270      0.2260
    151  O         43.6390  -29.2190   44.5070 O.2   270  ARG270     -0.2867
    152  CB        46.1190  -30.7730   43.1540 C.3   270  ARG270      0.0307
    153  CG        46.6310  -31.1250   41.7650 C.3   270  ARG270      0.0489
    154  CD        46.9430  -32.5850   41.5440 C.3   270  ARG270      0.2205
    155  NE        48.1750  -33.0240   42.2040 N.pl3 270  ARG270     -0.0865
    156  CZ        49.3900  -32.9870   41.6600 C.cat 270  ARG270      0.5346
    157  NH1       49.5710  -32.4790   40.4460 N.pl3 270  ARG270      0.1354
    158  NH2       50.4340  -33.4380   42.3330 N.pl3 270  ARG270      0.1354
    159  N         46.6960  -34.9960   31.6330 N.3   295  TYR295     -0.1227
    160  CA        46.8630  -33.8520   32.5330 C.3   295  TYR295      0.1736
    161  C         48.0290  -32.9780   32.1000 C.2   295  TYR295      0.2595
    162  O         47.8900  -31.7670   32.0750 O.2   295  TYR295     -0.2718
    163  CB        47.0290  -34.3630   33.9790 C.3   295  TYR295      0.0548
    164  CG        47.3380  -33.3490   35.0710 C.ar  295  TYR295     -0.0200
    165  CD1       46.5200  -32.2370   35.2730 C.ar  295  TYR295     -0.0009
    166  CD2       48.3380  -33.5920   36.0090 C.ar  295  TYR295     -0.0009
    167  CE1       46.7670  -31.3310   36.3030 C.ar  295  TYR295      0.0417
    168  CE2       48.5810  -32.7030   37.0550 C.ar  295  TYR295      0.0417
    169  CZ        47.7910  -31.5730   37.1990 C.ar  295  TYR295      0.1957
    170  OH        48.0320  -30.6930   38.2280 O.3   295  TYR295     -0.2866
    171  N         49.1500  -33.5840   31.6850 N.am  296  TYR296     -0.1976
    172  CA        50.3390  -32.8700   31.2240 C.3   296  TYR296      0.1639
    173  C         50.1050  -32.3840   29.7970 C.2   296  TYR296      0.2290
    174  O         50.6350  -31.3460   29.3960 O.2   296  TYR296     -0.2864
    175  CB        51.6000  -33.7620   31.3450 C.3   296  TYR296      0.0560
    176  CG        52.2650  -33.8030   32.7120 C.ar  296  TYR296     -0.0198
    177  CD1       53.6000  -33.4410   32.8700 C.ar  296  TYR296     -0.0009
    178  CD2       51.5950  -34.3090   33.8220 C.ar  296  TYR296     -0.0009
    179  CE1       54.2360  -33.5390   34.1090 C.ar  296  TYR296      0.0417
    180  CE2       52.2140  -34.3910   35.0710 C.ar  296  TYR296      0.0417
    181  CZ        53.5340  -34.0020   35.2140 C.ar  296  TYR296      0.1957
    182  OH        54.1310  -34.0850   36.4530 O.3   296  TYR296     -0.2866
    183  N         47.9110  -29.1870   30.0670 N.3   299  LEU299     -0.1231
    184  CA        48.7150  -28.1270   30.6940 C.3   299  LEU299      0.1693
    185  C         49.6290  -27.5290   29.6560 C.2   299  LEU299      0.2591
    186  O         49.8440  -26.3160   29.6850 O.2   299  LEU299     -0.2718
    187  CB        49.5340  -28.6440   31.8820 C.3   299  LEU299      0.0284
    188  CG        48.7680  -28.8430   33.1850 C.3   299  LEU299      0.0019
    189  CD1       49.6340  -29.5060   34.2070 C.3   299  LEU299      0.0001
    190  CD2       48.1770  -27.5360   33.7150 C.3   299  LEU299      0.0001
    191  N         50.1480  -28.3750   28.7180 N.am  300  GLU300     -0.1979
    192  CA        50.9860  -27.9540   27.5960 C.3   300  GLU300      0.1602
    193  C         50.1460  -27.0640   26.6450 C.2   300  GLU300      0.2287
    194  O         50.5690  -25.9590   26.3140 O.2   300  GLU300     -0.2864
    195  CB        51.5670  -29.1860   26.8660 C.3   300  GLU300      0.0415
    196  CG        53.0550  -29.4200   27.1210 C.3   300  GLU300      0.1163
    197  CD        53.4950  -30.8560   27.3520 C.2   300  GLU300      0.3649
    198  OE1       52.8730  -31.7740   26.7650 O.co2 300  GLU300     -0.2457
    199  OE2       54.4790  -31.0630   28.1020 O.co2 300  GLU300     -0.2457
    200  N         49.8110  -23.5120   27.8210 N.3   303  ASN303     -0.1240
    201  CA        51.0610  -22.7490   27.6560 C.3   303  ASN303      0.1653
    202  C         51.1190  -22.2440   26.2270 C.2   303  ASN303      0.2266
    203  O         51.5040  -21.1040   26.0000 O.2   303  ASN303     -0.2867
    204  CB        52.3010  -23.6050   27.9900 C.3   303  ASN303      0.1155
    205  CG        52.4190  -24.0390   29.4400 C.2   303  ASN303      0.2627
    206  OD1       52.0580  -23.3190   30.3920 O.2   303  ASN303     -0.2716
    207  ND2       52.9770  -25.2250   29.6370 N.am  303  ASN303     -0.0877
@<TRIPOS>BOND
     1    53    52   ar
     2    53    51   ar
     3    52    50   ar
     4    51    49   ar
     5    50    49   ar
     6    49    48    1
     7   203   202    2
     8   202   201    1
     9   194   193    2
    10    48    45    1
    11   193   192    1
    12   198   197   ar
    13   195   196    1
    14   195   192    1
    15   196   197    1
    16   197   199   ar
    17    47    46    2
    18   192   191    1
    19   201   200    1
    20   201   204    1
    21    45    46    1
    22    45    44    1
    23   204   205    1
    24    46    54   am
    25   191   185   am
    26    44    42   am
    27   174   173    2
    28    43    42    2
    29   205   207   am
    30   205   206    2
    31    42    41    1
    32    54    55    1
    33   185   186    2
    34   185   184    1
    35   173   172    1
    36   183   184    1
    37    55    58    1
    38    55    56    1
    39    31    30    1
    40    41    40    1
    41    32    30    1
    42    75    74    1
    43   184   187    1
    44    58    59    1
    45    94    93    1
    46    56    57    2
    47    61    59   ar
    48    61    63   ar
    49    30    29    1
    50   172   175    1
    51   172   171    1
    52   175   176    1
    53    91    93   ar
    54    91    89   ar
    55    74    72   ar
    56    74    73   ar
    57    36    35    2
    58    59    60   ar
    59   159   160    1
    60   171   161   am
    61    93    92   ar
    62    40    35   am
    63   187   188    1
    64    72    70   ar
    65    73    71   ar
    66   162   161    2
    67   161   160    1
    68    35    34    1
    69    63    62   ar
    70    89    88   ar
    71    29    26    1
    72   160   163    1
    73   176   177   ar
    74   176   178   ar
    75    70    69   ar
    76   177   179   ar
    77    71    69   ar
    78    60    62   ar
    79    92    90   ar
    80   188   190    1
    81   188   189    1
    82    69    68    1
    83    33    34    1
    84    33    27   am
    85    26    27    1
    86    26    25    1
    87    88    90   ar
    88    88    87    1
    89    34    37    1
    90   178   180   ar
    91    27    28    2
    92   163   164    1
    93   179   181   ar
    94    37    38    1
    95    37    39    1
    96    68    65    1
    97    21    20    2
    98    87    84    1
    99    25    20   am
   100   180   181   ar
   101   164   165   ar
   102   164   166   ar
   103    20    19    1
   104   181   182    1
   105   165   167   ar
   106    84    85    1
   107    84    83    1
   108    86    85    2
   109    65    66    1
   110    65    64    1
   111   166   168   ar
   112    66    67    2
   113    81    80    1
   114   167   169   ar
   115    83    78   am
   116    19    18    1
   117    19    22    1
   118    79    78    2
   119   168   169   ar
   120    78    77    1
   121   169   170    1
   122    80    77    1
   123    80    82    1
   124    22    24    1
   125    22    23    1
   126     8     6    1
   127   101   103   ar
   128   101   100   ar
   129    77    76    1
   130     6     5    1
   131   103   104   ar
   132    99   100    1
   133    99    96    1
   134   100   102   ar
   135     4     3    2
   136   104   102   ar
   137    95    96    1
   138    96    97    1
   139     5     2    1
   140     5     7    1
   141     3     2    1
   142     3     9   am
   143     2     1    1
   144    98    97    2
   145   157   156    1
   146    16    15   ar
   147     9    10    1
   148    12    11    2
   149    10    11    1
   150    10    13    1
   151    17    15   ar
   152    15    14    1
   153   134   133    1
   154   134   135    1
   155   129   130    1
   156   129   126    1
   157   154   153    1
   158   154   155    1
   159   156   155    2
   160   156   158    1
   161   132   130   am
   162   153   152    1
   163   133   127   am
   164   130   131    2
   165    13    14    1
   166   136   135    2
   167   127   128    2
   168   127   126    1
   169   108   107    2
   170   135   137   am
   171   126   125    1
   172   148   149    1
   173   152   149    1
   174   149   150    1
   175   125   123   am
   176   112   110    1
   177   107   106    1
   178   107   113   am
   179   137   138    1
   180   119   118   ar
   181   106   105    1
   182   106   109    1
   183   111   109    1
   184   120   118   ar
   185   118   117    1
   186   151   150    2
   187   114   113    1
   188   114   115    1
   189   114   117    1
   190   109   110    1
   191   123   122    1
   192   123   124    2
   193   121   115   am
   194   121   122    1
   195   138   139    1
   196   138   141    1
   197   115   116    2
   198   139   140    2
   199   142   141    1
   200   142   143    1
   201   147   145    1
   202   144   145    2
   203   144   143    1
   204   145   146    1
