@<TRIPOS>MOLECULE
tmp/4u15B00.pdb
 177 172 0 0 0
SMALL
GASTEIGER

@<TRIPOS>ATOM
      1  N         10.1560   93.4570   46.6760 N.3    54  ILE54      -0.1245
      2  CA         9.7430   92.6430   47.8100 C.3    54  ILE54       0.1561
      3  C          8.2240   92.6120   47.9440 C.2    54  ILE54       0.2260
      4  O          7.6270   91.5470   48.0910 O.2    54  ILE54      -0.2867
      5  CB        10.3570   93.1650   49.1210 C.3    54  ILE54       0.0252
      6  CG1       11.8850   93.0940   49.0600 C.3    54  ILE54       0.0019
      7  CG2        9.8180   92.3940   50.3160 C.3    54  ILE54       0.0019
      8  CD1       12.4300   91.7050   48.8350 C.3    54  ILE54       0.0001
      9  N         15.0110   87.7130   45.5930 N.3    85  ASP85      -0.1225
     10  CA        14.7380   88.0550   46.9820 C.3    85  ASP85       0.1805
     11  C         16.0100   88.4210   47.7480 C.2    85  ASP85       0.2597
     12  O         16.0110   89.3570   48.5450 O.2    85  ASP85      -0.2718
     13  CB        14.0310   86.8900   47.6760 C.3    85  ASP85       0.1424
     14  CG        13.4580   87.2710   49.0180 C.2    85  ASP85       0.3668
     15  OD1       13.8060   88.3560   49.5280 O.co2  85  ASP85      -0.2456
     16  OD2       12.6620   86.4800   49.5660 O.co2  85  ASP85      -0.2456
     17  N         17.0900   87.6860   47.4990 N.am   86  TYR86      -0.1976
     18  CA        18.3220   87.8590   48.2650 C.3    86  TYR86       0.1639
     19  C         19.2210   88.9730   47.7320 C.2    86  TYR86       0.2290
     20  O         19.8500   89.6830   48.5110 O.2    86  TYR86      -0.2864
     21  CB        19.1020   86.5420   48.3140 C.3    86  TYR86       0.0560
     22  CG        18.7850   85.7110   49.5350 C.ar   86  TYR86      -0.0198
     23  CD1       17.5440   85.1040   49.6820 C.ar   86  TYR86      -0.0009
     24  CD2       19.7210   85.5410   50.5440 C.ar   86  TYR86      -0.0009
     25  CE1       17.2460   84.3490   50.8010 C.ar   86  TYR86       0.0417
     26  CE2       19.4340   84.7870   51.6640 C.ar   86  TYR86       0.0417
     27  CZ        18.1940   84.1930   51.7880 C.ar   86  TYR86       0.1957
     28  OH        17.9050   83.4420   52.9030 O.3    86  TYR86      -0.2866
     29  N         17.3380   92.4070   48.5860 N.3    89  SER89      -0.1202
     30  CA        17.3380   92.6920   50.0160 C.3    89  SER89       0.2020
     31  C         18.7510   92.8550   50.5650 C.2    89  SER89       0.2618
     32  O         18.9330   93.3350   51.6810 O.2    89  SER89      -0.2717
     33  CB        16.6020   91.5920   50.7810 C.3    89  SER89       0.2103
     34  OG        17.0230   90.3150   50.3450 O.3    89  SER89      -0.2182
     35  N         19.7500   92.4540   49.7870 N.am   90  ASN90      -0.1974
     36  CA        21.1340   92.6740   50.1860 C.3    90  ASN90       0.1688
     37  C         21.6030   94.0540   49.7690 C.2    90  ASN90       0.2292
     38  O         22.3630   94.7050   50.4850 O.2    90  ASN90      -0.2864
     39  CB        22.0600   91.6190   49.5910 C.3    90  ASN90       0.1181
     40  CG        23.5070   91.8460   49.9700 C.2    90  ASN90       0.2629
     41  OD1       23.9480   91.4430   51.0460 O.2    90  ASN90      -0.2716
     42  ND2       24.2530   92.5040   49.0910 N.am   90  ASN90      -0.0877
     43  N         20.5300   96.5440   52.2240 N.3    93  VAL93      -0.1245
     44  CA        21.4110   96.6590   53.3810 C.3    93  VAL93       0.1561
     45  C         22.6050   97.5480   53.0470 C.2    93  VAL93       0.2260
     46  O         22.9910   98.4080   53.8380 O.2    93  VAL93      -0.2867
     47  CB        21.9120   95.2800   53.8590 C.3    93  VAL93       0.0252
     48  CG1       22.7980   95.4290   55.0890 C.3    93  VAL93       0.0019
     49  CG2       20.7390   94.3690   54.1620 C.3    93  VAL93       0.0019
     50  N         25.2940   86.7250   45.1640 N.3   137  TRP137     -0.1241
     51  CA        24.1860   85.8060   45.3980 C.3   137  TRP137      0.1605
     52  C         23.6960   85.0300   44.1700 C.2   137  TRP137      0.2264
     53  O         23.4250   83.8360   44.2690 O.2   137  TRP137     -0.2867
     54  CB        23.0150   86.5750   46.0170 C.3   137  TRP137      0.0550
     55  CG        23.2790   87.0230   47.4250 C.ar  137  TRP137      0.0003
     56  CD1       23.6330   88.2770   47.8380 C.ar  137  TRP137      0.0946
     57  CD2       23.2170   86.2140   48.6070 C.ar  137  TRP137      0.0152
     58  NE1       23.7920   88.2970   49.2040 N.ar  137  TRP137     -0.2442
     59  CE2       23.5430   87.0440   49.6990 C.ar  137  TRP137      0.0810
     60  CE3       22.9180   84.8690   48.8470 C.ar  137  TRP137      0.0012
     61  CZ2       23.5770   86.5720   51.0100 C.ar  137  TRP137      0.0191
     62  CZ3       22.9530   84.4030   50.1480 C.ar  137  TRP137      0.0001
     63  CH2       23.2790   85.2520   51.2130 C.ar  137  TRP137      0.0015
     64  N         23.2980   77.1490   51.4860 N.3   163  LEU163     -0.1245
     65  CA        23.0030   77.6160   52.8330 C.3   163  LEU163      0.1561
     66  C         22.4130   76.4900   53.6720 C.2   163  LEU163      0.2260
     67  O         21.8550   76.7290   54.7430 O.2   163  LEU163     -0.2867
     68  CB        22.0460   78.8090   52.7990 C.3   163  LEU163      0.0270
     69  CG        22.6150   80.1280   52.2720 C.3   163  LEU163      0.0019
     70  CD1       21.6280   81.2610   52.5020 C.3   163  LEU163      0.0001
     71  CD2       23.9520   80.4370   52.9260 C.3   163  LEU163      0.0001
     72  N         25.6310   79.4660   56.8010 N.3   169  THR169     -0.1218
     73  CA        24.5860   80.4620   57.0060 C.3   169  THR169      0.1862
     74  C         24.9650   81.4460   58.1090 C.2   169  THR169      0.2287
     75  O         24.7090   82.6450   58.0010 O.2   169  THR169     -0.2866
     76  CB        23.2410   79.7940   57.3550 C.3   169  THR169      0.1770
     77  OG1       22.8320   78.9510   56.2710 O.3   169  THR169     -0.2211
     78  CG2       22.1640   80.8390   57.6070 C.3   169  THR169      0.0375
     79  N         27.7420   83.7810   56.8770 N.3   172  THR172     -0.1203
     80  CA        27.1610   84.6530   55.8660 C.3   172  THR172      0.1994
     81  C         26.3500   85.7650   56.5290 C.2   172  THR172      0.2617
     82  O         26.3050   86.8880   56.0360 O.2   172  THR172     -0.2717
     83  CB        26.2650   83.8600   54.8890 C.3   172  THR172      0.1784
     84  OG1       27.0060   82.7600   54.3510 O.3   172  THR172     -0.2211
     85  CG2       25.7910   84.7420   53.7480 C.3   172  THR172      0.0376
     86  N         25.7230   85.4480   57.6570 N.am  173  ALA173     -0.1979
     87  CA        24.9150   86.4220   58.3790 C.3   173  ALA173      0.1597
     88  C         25.7950   87.4440   59.0850 C.2   173  ALA173      0.2287
     89  O         25.4000   88.5980   59.2670 O.2   173  ALA173     -0.2864
     90  CB        24.0080   85.7250   59.3790 C.3   173  ALA173      0.0319
     91  N         26.9410   89.8680   56.2530 N.3   176  ALA176     -0.1231
     92  CA        25.8760   90.5140   55.4920 C.3   176  ALA176      0.1694
     93  C         24.8710   91.2570   56.3690 C.2   176  ALA176      0.2592
     94  O         24.1400   92.1150   55.8760 O.2   176  ALA176     -0.2718
     95  CB        25.1540   89.4890   54.6330 C.3   176  ALA176      0.0304
     96  N         24.8300   90.9330   57.6580 N.am  177  PHE177     -0.1976
     97  CA        23.8890   91.5860   58.5680 C.3   177  PHE177      0.1639
     98  C         24.5610   92.1430   59.8180 C.2   177  PHE177      0.2290
     99  O         24.4750   93.3360   60.0920 O.2   177  PHE177     -0.2864
    100  CB        22.7780   90.6180   58.9790 C.3   177  PHE177      0.0560
    101  CG        21.8810   91.1480   60.0670 C.ar  177  PHE177     -0.0200
    102  CD1       20.8420   92.0130   59.7660 C.ar  177  PHE177     -0.0042
    103  CD2       22.0750   90.7750   61.3900 C.ar  177  PHE177     -0.0042
    104  CE1       20.0180   92.5000   60.7650 C.ar  177  PHE177     -0.0003
    105  CE2       21.2520   91.2570   62.3910 C.ar  177  PHE177     -0.0003
    106  CZ        20.2220   92.1200   62.0780 C.ar  177  PHE177     -0.0000
    107  N         14.7960   92.4650   61.2920 N.3   337  TRP337     -0.1241
    108  CA        15.7360   91.4970   60.7380 C.3   337  TRP337      0.1605
    109  C         16.5210   90.7840   61.8280 C.2   337  TRP337      0.2264
    110  O         17.0660   89.7040   61.6080 O.2   337  TRP337     -0.2867
    111  CB        16.7070   92.1750   59.7710 C.3   337  TRP337      0.0550
    112  CG        16.1240   92.4730   58.4310 C.ar  337  TRP337      0.0003
    113  CD1       14.8530   92.8850   58.1620 C.ar  337  TRP337      0.0946
    114  CD2       16.7880   92.3680   57.1670 C.ar  337  TRP337      0.0152
    115  NE1       14.6860   93.0530   56.8090 N.ar  337  TRP337     -0.2442
    116  CE2       15.8600   92.7390   56.1750 C.ar  337  TRP337      0.0810
    117  CE3       18.0800   91.9990   56.7770 C.ar  337  TRP337      0.0012
    118  CZ2       16.1800   92.7540   54.8190 C.ar  337  TRP337      0.0191
    119  CZ3       18.3970   92.0130   55.4310 C.ar  337  TRP337      0.0001
    120  CH2       17.4510   92.3890   54.4680 C.ar  337  TRP337      0.0015
    121  N         15.3350   87.0090   62.8860 N.3   340  TYR340     -0.1227
    122  CA        15.7200   85.9730   61.9310 C.3   340  TYR340      0.1736
    123  C         17.2000   85.6300   62.0560 C.2   340  TYR340      0.2595
    124  O         17.5810   84.4630   61.9970 O.2   340  TYR340     -0.2718
    125  CB        15.4010   86.4110   60.4990 C.3   340  TYR340      0.0548
    126  CG        15.6760   85.3570   59.4430 C.ar  340  TYR340     -0.0200
    127  CD1       16.9190   85.2650   58.8280 C.ar  340  TYR340     -0.0009
    128  CD2       14.6870   84.4620   59.0530 C.ar  340  TYR340     -0.0009
    129  CE1       17.1730   84.3080   57.8630 C.ar  340  TYR340      0.0417
    130  CE2       14.9300   83.5000   58.0850 C.ar  340  TYR340      0.0417
    131  CZ        16.1750   83.4270   57.4940 C.ar  340  TYR340      0.1957
    132  OH        16.4280   82.4740   56.5310 O.3   340  TYR340     -0.2866
    133  N         18.0310   86.6520   62.2280 N.am  341  ASN341     -0.1974
    134  CA        19.4700   86.4540   62.3410 C.3   341  ASN341      0.1688
    135  C         19.8720   85.8810   63.6930 C.2   341  ASN341      0.2292
    136  O         20.8690   85.1700   63.7950 O.2   341  ASN341     -0.2864
    137  CB        20.2070   87.7680   62.0930 C.3   341  ASN341      0.1181
    138  CG        20.0260   88.2740   60.6790 C.2   341  ASN341      0.2629
    139  OD1       20.8110   87.9510   59.7870 O.2   341  ASN341     -0.2716
    140  ND2       18.9850   89.0700   60.4640 N.am  341  ASN341     -0.0877
    141  N         19.3250   82.3270   63.3280 N.3   344  VAL344     -0.1245
    142  CA        20.4660   81.7900   62.5950 C.3   344  VAL344      0.1561
    143  C         21.6290   81.5220   63.5480 C.2   344  VAL344      0.2260
    144  O         22.3130   80.5040   63.4390 O.2   344  VAL344     -0.2867
    145  CB        20.9210   82.7510   61.4760 C.3   344  VAL344      0.0252
    146  CG1       22.2990   82.3690   60.9560 C.3   344  VAL344      0.0019
    147  CG2       19.9050   82.7700   60.3460 C.3   344  VAL344      0.0019
    148  N         11.2720   85.0960   58.9180 N.3   363  TYR363     -0.1241
    149  CA        11.5720   85.3860   57.5220 C.3   363  TYR363      0.1605
    150  C         10.5940   86.4200   56.9860 C.2   363  TYR363      0.2264
    151  O         10.9780   87.3390   56.2630 O.2   363  TYR363     -0.2867
    152  CB        11.5090   84.1100   56.6800 C.3   363  TYR363      0.0534
    153  CG        12.0540   84.2550   55.2770 C.ar  363  TYR363     -0.0201
    154  CD1       11.2620   84.7460   54.2470 C.ar  363  TYR363     -0.0009
    155  CD2       13.3580   83.8840   54.9810 C.ar  363  TYR363     -0.0009
    156  CE1       11.7580   84.8730   52.9630 C.ar  363  TYR363      0.0417
    157  CE2       13.8610   84.0060   53.7010 C.ar  363  TYR363      0.0417
    158  CZ        13.0590   84.5020   52.6960 C.ar  363  TYR363      0.1957
    159  OH        13.5640   84.6240   51.4200 O.3   363  TYR363     -0.2866
    160  N         11.0190   90.1360   58.0720 N.3   366  CYS366     -0.1221
    161  CA        11.9680   90.9300   57.3060 C.3   366  CYS366      0.1808
    162  C         11.2780   91.6260   56.1390 C.2   366  CYS366      0.2601
    163  O         11.7270   92.6730   55.6740 O.2   366  CYS366     -0.2717
    164  CB        13.1110   90.0560   56.7900 C.3   366  CYS366      0.0970
    165  SG        14.1000   89.2540   58.0710 S.3   366  CYS366     -0.0800
    166  N         10.1840   91.0360   55.6690 N.am  367  TYR367     -0.1976
    167  CA         9.4250   91.6030   54.5610 C.3   367  TYR367      0.1639
    168  C          8.6830   92.8750   54.9580 C.2   367  TYR367      0.2290
    169  O          8.4250   93.7360   54.1170 O.2   367  TYR367     -0.2864
    170  CB         8.4270   90.5820   54.0170 C.3   367  TYR367      0.0560
    171  CG         9.0340   89.5540   53.0940 C.ar  367  TYR367     -0.0198
    172  CD1       10.3250   89.7040   52.6060 C.ar  367  TYR367     -0.0009
    173  CD2        8.3090   88.4370   52.7010 C.ar  367  TYR367     -0.0009
    174  CE1       10.8770   88.7660   51.7560 C.ar  367  TYR367      0.0417
    175  CE2        8.8520   87.4960   51.8530 C.ar  367  TYR367      0.0417
    176  CZ        10.1350   87.6640   51.3850 C.ar  367  TYR367      0.1957
    177  OH        10.6750   86.7230   50.5400 O.3   367  TYR367     -0.2866
@<TRIPOS>BOND
     1    52    53    2
     2    52    51    1
     3    50    51    1
     4    51    54    1
     5     9    10    1
     6    54    55    1
     7     1     2    1
     8    10    13    1
     9    10    11    1
    10    55    56   ar
    11    55    57   ar
    12    17    11   am
    13    17    18    1
    14    13    14    1
    15    19    18    1
    16    19    20    2
    17    11    12    2
    18     2     3    1
    19     2     5    1
    20    56    58   ar
    21     3     4    2
    22    18    21    1
    23    21    22    1
    24    29    30    1
    25    57    60   ar
    26    57    59   ar
    27     8     6    1
    28    60    62   ar
    29    14    15   ar
    30    14    16   ar
    31     6     5    1
    32    42    40   am
    33     5     7    1
    34    58    59   ar
    35    22    23   ar
    36    22    24   ar
    37    39    40    1
    38    39    36    1
    39    23    25   ar
    40    59    61   ar
    41    37    36    1
    42    37    38    2
    43    35    36    1
    44    35    31   am
    45    40    41    2
    46    30    31    1
    47    30    33    1
    48    62    63   ar
    49    34    33    1
    50   177   176    1
    51    24    26   ar
    52    31    32    2
    53    25    27   ar
    54    61    63   ar
    55   176   174   ar
    56   176   175   ar
    57   159   158    1
    58    64    65    1
    59    26    27   ar
    60   174   172   ar
    61    27    28    1
    62   175   173   ar
    63    43    44    1
    64    69    70    1
    65    69    68    1
    66    69    71    1
    67   172   171   ar
    68   158   156   ar
    69   158   157   ar
    70   173   171   ar
    71    68    65    1
    72    65    66    1
    73   156   154   ar
    74    45    44    1
    75    45    46    2
    76   171   170    1
    77    44    47    1
    78    66    67    2
    79   157   155   ar
    80    85    83    1
    81    47    49    1
    82    47    48    1
    83   170   167    1
    84   169   168    2
    85   154   153   ar
    86    84    83    1
    87   120   118   ar
    88   120   119   ar
    89   167   168    1
    90   167   166    1
    91    95    92    1
    92   118   116   ar
    93    83    80    1
    94   155   153   ar
    95   153   152    1
    96   119   117   ar
    97    92    91    1
    98    92    93    1
    99   166   162   am
   100   163   162    2
   101    80    81    1
   102    80    79    1
   103    94    93    2
   104    82    81    2
   105   162   161    1
   106   116   115   ar
   107   116   114   ar
   108   151   150    2
   109    77    76    1
   110    93    96   am
   111    81    86   am
   112   132   131    1
   113   152   149    1
   114   117   114   ar
   115   164   161    1
   116   164   165    1
   117    72    73    1
   118   115   113   ar
   119   150   149    1
   120    73    76    1
   121    73    74    1
   122   114   112   ar
   123   161   160    1
   124    76    78    1
   125   131   129   ar
   126   131   130   ar
   127   149   148    1
   128    86    87    1
   129    96    97    1
   130   129   127   ar
   131    75    74    2
   132   130   128   ar
   133   113   112   ar
   134    87    88    1
   135    87    90    1
   136   112   111    1
   137    97   100    1
   138    97    98    1
   139   127   126   ar
   140   100   101    1
   141   128   126   ar
   142    88    89    2
   143   126   125    1
   144   102   101   ar
   145   102   104   ar
   146   111   108    1
   147   139   138    2
   148    98    99    2
   149   101   103   ar
   150   147   145    1
   151   140   138   am
   152   125   122    1
   153   138   137    1
   154   108   107    1
   155   108   109    1
   156   104   106   ar
   157   146   145    1
   158   103   105   ar
   159   145   142    1
   160   110   109    2
   161   122   123    1
   162   122   121    1
   163   124   123    2
   164   123   133   am
   165   106   105   ar
   166   137   134    1
   167   133   134    1
   168   134   135    1
   169   142   141    1
   170   142   143    1
   171   144   143    2
   172   135   136    2
