@<TRIPOS>MOLECULE
tmp/4u15B02.pdb
 105 96 0 0 0
SMALL
GASTEIGER

@<TRIPOS>ATOM
      1  N         16.4510  112.1000   63.0130 N.3   324  GLN324     -0.1245
      2  CA        15.1730  111.4860   63.3580 C.3   324  GLN324      0.1566
      3  C         14.7140  110.5340   62.2650 C.2   324  GLN324      0.2260
      4  O         14.1120  109.4990   62.5450 O.2   324  GLN324     -0.2867
      5  CB        14.1040  112.5530   63.6000 C.3   324  GLN324      0.0367
      6  CG        14.3730  113.4500   64.7910 C.3   324  GLN324      0.0905
      7  CD        13.3080  114.5150   64.9600 C.2   324  GLN324      0.2608
      8  OE1       12.2350  114.4370   64.3600 O.2   324  GLN324     -0.2717
      9  NE2       13.6010  115.5220   65.7760 N.am  324  GLN324     -0.0878
     10  N         17.2810  107.4080   62.2990 N.3   327  SER327     -0.1202
     11  CA        17.0210  106.4930   63.4030 C.3   327  SER327      0.2020
     12  C         15.7800  105.6540   63.1220 C.2   327  SER327      0.2618
     13  O         15.7630  104.4540   63.3860 O.2   327  SER327     -0.2717
     14  CB        16.8560  107.2560   64.7230 C.3   327  SER327      0.2103
     15  OG        15.7040  108.0820   64.7080 O.3   327  SER327     -0.2182
     16  N         14.7490  106.2920   62.5760 N.am  328  ALA328     -0.1979
     17  CA        13.5010  105.6030   62.2730 C.3   328  ALA328      0.1597
     18  C         13.7320  104.4690   61.2780 C.2   328  ALA328      0.2287
     19  O         13.2570  103.3540   61.4760 O.2   328  ALA328     -0.2864
     20  CB        12.4700  106.5830   61.7360 C.3   328  ALA328      0.0319
     21  N         16.2310  101.8070   63.0330 N.3   331  LEU331     -0.1231
     22  CA        15.5670  100.9730   64.0290 C.3   331  LEU331      0.1693
     23  C         14.5520  100.0420   63.3850 C.2   331  LEU331      0.2591
     24  O         14.3180   98.9420   63.8770 O.2   331  LEU331     -0.2718
     25  CB        14.8790  101.8310   65.0920 C.3   331  LEU331      0.0284
     26  CG        15.7920  102.4170   66.1670 C.3   331  LEU331      0.0019
     27  CD1       14.9920  103.2700   67.1380 C.3   331  LEU331      0.0001
     28  CD2       16.5220  101.3020   66.8990 C.3   331  LEU331      0.0001
     29  N         13.9520  100.4850   62.2850 N.am  332  ALA332     -0.1980
     30  CA        12.9760   99.6700   61.5740 C.3   332  ALA332      0.1597
     31  C         13.6530   98.4510   60.9680 C.2   332  ALA332      0.2287
     32  O         13.0210   97.4210   60.7500 O.2   332  ALA332     -0.2864
     33  CB        12.2820  100.4830   60.4970 C.3   332  ALA332      0.0319
     34  N         15.0500   95.8990   63.9700 N.3   335  ILE335     -0.1231
     35  CA        14.0010   95.2540   64.7530 C.3   335  ILE335      0.1692
     36  C         13.2930   94.1760   63.9380 C.2   335  ILE335      0.2592
     37  O         12.7390   93.2310   64.4970 O.2   335  ILE335     -0.2718
     38  CB        12.9560   96.2740   65.2700 C.3   335  ILE335      0.0266
     39  CG1       12.0980   95.6540   66.3730 C.3   335  ILE335      0.0019
     40  CG2       12.0720   96.7760   64.1380 C.3   335  ILE335      0.0020
     41  CD1       10.9390   96.5240   66.8040 C.3   335  ILE335      0.0001
     42  N         13.3290   94.3070   62.6150 N.am  336  THR336     -0.1953
     43  CA        12.5950   93.3980   61.7430 C.3   336  THR336      0.1897
     44  C         13.4850   92.3280   61.1200 C.2   336  THR336      0.2313
     45  O         12.9900   91.3970   60.4860 O.2   336  THR336     -0.2863
     46  CB        11.8850   94.1600   60.6090 C.3   336  THR336      0.1794
     47  OG1       12.8460   94.9270   59.8740 O.3   336  THR336     -0.2208
     48  CG2       10.8200   95.0860   61.1710 C.3   336  THR336      0.0378
     49  N         15.4540   89.2790   64.6810 N.3   339  PRO339     -0.2116
     50  CA        14.9840   87.9570   65.1160 C.3   339  PRO339      0.1372
     51  C         15.4220   86.8130   64.1980 C.2   339  PRO339      0.2244
     52  O         15.8430   85.7710   64.6990 O.2   339  PRO339     -0.2868
     53  CB        13.4600   88.1080   65.0990 C.3   339  PRO339      0.0268
     54  CG        13.2360   89.5520   65.3260 C.3   339  PRO339      0.0207
     55  CD        14.3290   90.2280   64.5600 C.3   339  PRO339      0.0892
     56  N          8.9700   88.5260   58.8040 N.3   365  LEU365     -0.1245
     57  CA         9.1530   89.7560   59.5710 C.3   365  LEU365      0.1561
     58  C         10.1090   90.7020   58.8570 C.2   365  LEU365      0.2260
     59  O         10.0220   91.9180   59.0110 O.2   365  LEU365     -0.2867
     60  CB         9.6720   89.4460   60.9780 C.3   365  LEU365      0.0270
     61  CG         9.7240   90.6130   61.9700 C.3   365  LEU365      0.0019
     62  CD1        8.3310   91.1390   62.2570 C.3   365  LEU365      0.0001
     63  CD2       10.4120   90.2030   63.2610 C.3   365  LEU365      0.0001
     64  N          8.3340   92.9910   56.2340 N.3   368  ILE368     -0.1245
     65  CA         7.5650   94.1400   56.6950 C.3   368  ILE368      0.1561
     66  C          8.4560   95.3730   56.8010 C.2   368  ILE368      0.2260
     67  O          7.9670   96.4940   56.9360 O.2   368  ILE368     -0.2867
     68  CB         6.8930   93.8720   58.0540 C.3   368  ILE368      0.0252
     69  CG1        7.8220   94.2580   59.2020 C.3   368  ILE368      0.0019
     70  CG2        6.4620   92.4150   58.1620 C.3   368  ILE368      0.0019
     71  CD1        7.2010   94.0670   60.5520 C.3   368  ILE368      0.0001
     72  N          7.5350   99.5750   56.4420 N.3   372  VAL372     -0.1245
     73  CA         7.7390  100.6370   57.4190 C.3   372  VAL372      0.1561
     74  C          8.4810  101.8330   56.8170 C.2   372  VAL372      0.2260
     75  O          8.2220  102.9780   57.1860 O.2   372  VAL372     -0.2867
     76  CB         8.5120  100.1170   58.6520 C.3   372  VAL372      0.0252
     77  CG1        8.6430  101.2040   59.7070 C.3   372  VAL372      0.0019
     78  CG2        7.8120   98.9030   59.2400 C.3   372  VAL372      0.0019
     79  N          6.4430  104.5600   55.3690 N.3   375  VAL375     -0.1231
     80  CA         5.6780  105.1660   56.4540 C.3   375  VAL375      0.1692
     81  C          6.5530  106.1140   57.2700 C.2   375  VAL375      0.2592
     82  O          6.0920  107.1570   57.7330 O.2   375  VAL375     -0.2718
     83  CB         5.0700  104.0980   57.3830 C.3   375  VAL375      0.0266
     84  CG1        4.2530  104.7480   58.4890 C.3   375  VAL375      0.0020
     85  CG2        4.2080  103.1360   56.5840 C.3   375  VAL375      0.0020
     86  N          7.8210  105.7510   57.4350 N.am  376  CYS376     -0.1970
     87  CA         8.7740  106.6050   58.1370 C.3   376  CYS376      0.1712
     88  C          9.0100  107.9090   57.3780 C.2   376  CYS376      0.2296
     89  O          9.2330  108.9550   57.9870 O.2   376  CYS376     -0.2864
     90  CB        10.1030  105.8760   58.3480 C.3   376  CYS376      0.0983
     91  SG        10.0450  104.5210   59.5460 S.3   376  CYS376     -0.0798
     92  N          5.9580  110.0750   58.3950 N.3   379  LEU379     -0.1231
     93  CA         5.9170  110.4280   59.8120 C.3   379  LEU379      0.1693
     94  C          7.1250  111.2560   60.2600 C.2   379  LEU379      0.2592
     95  O          7.2030  111.6730   61.4160 O.2   379  LEU379     -0.2718
     96  CB         5.8110  109.1630   60.6670 C.3   379  LEU379      0.0284
     97  CG         4.5510  108.3230   60.4460 C.3   379  LEU379      0.0019
     98  CD1        4.5190  107.1310   61.3920 C.3   379  LEU379      0.0001
     99  CD2        3.2990  109.1740   60.6030 C.3   379  LEU379      0.0001
    100  N          8.0610  111.4970   59.3470 N.am  380  CYS380     -0.1970
    101  CA         9.2410  112.2890   59.6710 C.3   380  CYS380      0.1712
    102  C          9.3720  113.5050   58.7560 C.2   380  CYS380      0.2296
    103  O          9.4490  114.6370   59.2320 O.2   380  CYS380     -0.2864
    104  CB        10.5000  111.4230   59.5900 C.3   380  CYS380      0.0983
    105  SG        10.6050  110.1370   60.8660 S.3   380  CYS380     -0.0798
@<TRIPOS>BOND
     1    79    80    1
     2    64    65    1
     3    72    73    1
     4    80    81    1
     5    80    83    1
     6    85    83    1
     7    65    66    1
     8    65    68    1
     9    66    67    2
    10    74    75    2
    11    74    73    1
    12    81    86   am
    13    81    82    2
    14    88    89    2
    15    88    87    1
    16    83    84    1
    17    73    76    1
    18    86    87    1
    19    68    70    1
    20    68    69    1
    21    87    90    1
    22    90    91    1
    23    92    93    1
    24    76    78    1
    25    76    77    1
    26   102   103    2
    27   102   101    1
    28    56    57    1
    29    58    59    2
    30    58    57    1
    31    69    71    1
    32   100   101    1
    33   100    94   am
    34    57    60    1
    35   104   101    1
    36   104   105    1
    37    93    94    1
    38    93    96    1
    39    47    46    1
    40    94    95    2
    41    97    99    1
    42    97    96    1
    43    97    98    1
    44    45    44    2
    45    33    30    1
    46    46    48    1
    47    46    43    1
    48    32    31    2
    49    31    30    1
    50    60    61    1
    51    44    43    1
    52    18    19    2
    53    18    17    1
    54    30    29    1
    55    20    17    1
    56    43    42    1
    57    61    62    1
    58    61    63    1
    59     3     4    2
    60     3     2    1
    61    17    16    1
    62    29    23   am
    63    10    11    1
    64    16    12   am
    65    42    36   am
    66     1     2    1
    67    21    22    1
    68    12    13    2
    69    12    11    1
    70     2     5    1
    71    23    24    2
    72    23    22    1
    73    11    14    1
    74     5     6    1
    75    36    37    2
    76    36    35    1
    77    34    35    1
    78    22    25    1
    79    40    38    1
    80    51    52    2
    81    51    50    1
    82     8     7    2
    83    55    49    1
    84    55    54    1
    85    49    50    1
    86    15    14    1
    87    35    38    1
    88     6     7    1
    89     7     9   am
    90    25    26    1
    91    53    50    1
    92    53    54    1
    93    38    39    1
    94    26    28    1
    95    26    27    1
    96    39    41    1
