@<TRIPOS>MOLECULE
tmp/4u15B01.pdb
 102 98 0 0 0
SMALL
GASTEIGER

@<TRIPOS>ATOM
      1  N         25.5850   80.9320   59.1650 N.3   170  PHE170     -0.1241
      2  CA        26.0120   81.7650   60.2830 C.3   170  PHE170      0.1605
      3  C         27.0530   82.7920   59.8500 C.2   170  PHE170      0.2264
      4  O         26.9090   83.9830   60.1210 O.2   170  PHE170     -0.2867
      5  CB        26.5690   80.8950   61.4100 C.3   170  PHE170      0.0534
      6  CG        27.1510   81.6780   62.5530 C.ar  170  PHE170     -0.0203
      7  CD1       26.3630   82.5430   63.2930 C.ar  170  PHE170     -0.0042
      8  CD2       28.4860   81.5350   62.8980 C.ar  170  PHE170     -0.0042
      9  CE1       26.8990   83.2580   64.3460 C.ar  170  PHE170     -0.0003
     10  CE2       29.0260   82.2460   63.9540 C.ar  170  PHE170     -0.0003
     11  CZ        28.2310   83.1070   64.6790 C.ar  170  PHE170     -0.0000
     12  N         26.9880   87.0160   59.4830 N.3   174  ILE174     -0.1245
     13  CA        27.9180   87.8980   60.1740 C.3   174  ILE174      0.1561
     14  C         28.3880   89.0110   59.2460 C.2   174  ILE174      0.2260
     15  O         28.4620   90.1740   59.6390 O.2   174  ILE174     -0.2867
     16  CB        29.1380   87.1250   60.7110 C.3   174  ILE174      0.0252
     17  CG1       28.6980   86.1000   61.7570 C.3   174  ILE174      0.0019
     18  CG2       30.1570   88.0750   61.3140 C.3   174  ILE174      0.0019
     19  CD1       29.8390   85.3010   62.3420 C.3   174  ILE174      0.0001
     20  N         25.2160   91.2720   60.5780 N.3   178  TYR178     -0.1241
     21  CA        25.7940   91.6590   61.8610 C.3   178  TYR178      0.1605
     22  C         26.8710   92.7280   61.7180 C.2   178  TYR178      0.2264
     23  O         26.9930   93.6090   62.5690 O.2   178  TYR178     -0.2867
     24  CB        26.3690   90.4370   62.5760 C.3   178  TYR178      0.0534
     25  CG        25.3190   89.5370   63.1840 C.ar  178  TYR178     -0.0201
     26  CD1       24.8540   89.7570   64.4740 C.ar  178  TYR178     -0.0009
     27  CD2       24.7950   88.4650   62.4690 C.ar  178  TYR178     -0.0009
     28  CE1       23.8960   88.9370   65.0370 C.ar  178  TYR178      0.0417
     29  CE2       23.8350   87.6400   63.0230 C.ar  178  TYR178      0.0417
     30  CZ        23.3900   87.8810   64.3080 C.ar  178  TYR178      0.1957
     31  OH        22.4350   87.0650   64.8700 O.3   178  TYR178     -0.2866
     32  N         25.1090   96.1340   60.6420 N.3   181  VAL181     -0.1231
     33  CA        24.3570   96.6760   61.7750 C.3   181  VAL181      0.1692
     34  C         25.2730   97.3200   62.8160 C.2   181  VAL181      0.2592
     35  O         24.9800   98.4070   63.3170 O.2   181  VAL181     -0.2718
     36  CB        23.4980   95.5860   62.4560 C.3   181  VAL181      0.0266
     37  CG1       23.0110   96.0550   63.8170 C.3   181  VAL181      0.0020
     38  CG2       22.3200   95.2140   61.5710 C.3   181  VAL181      0.0020
     39  N         26.3800   96.6560   63.1360 N.am  182  THR182     -0.1953
     40  CA        27.3410   97.2040   64.0890 C.3   182  THR182      0.1897
     41  C         27.8900   98.5440   63.6040 C.2   182  THR182      0.2313
     42  O         27.9960   99.4920   64.3810 O.2   182  THR182     -0.2863
     43  CB        28.5160   96.2400   64.3460 C.3   182  THR182      0.1794
     44  OG1       29.0260   95.7570   63.0980 O.3   182  THR182     -0.2208
     45  CG2       28.0610   95.0610   65.1800 C.3   182  THR182      0.0378
     46  N         25.2350  101.3060   63.6730 N.3   185  THR185     -0.1203
     47  CA        25.0110  101.7030   65.0590 C.3   185  THR185      0.1994
     48  C         26.1330  102.6180   65.5320 C.2   185  THR185      0.2617
     49  O         25.8860  103.6300   66.1900 O.2   185  THR185     -0.2717
     50  CB        24.9190  100.4820   65.9980 C.3   185  THR185      0.1784
     51  OG1       24.0130   99.5210   65.4470 O.3   185  THR185     -0.2211
     52  CG2       24.4270  100.9030   67.3780 C.3   185  THR185      0.0376
     53  N         27.3660  102.2520   65.1950 N.am  186  ILE186     -0.1979
     54  CA        28.5300  103.0580   65.5440 C.3   186  ILE186      0.1595
     55  C         28.4530  104.4220   64.8640 C.2   186  ILE186      0.2287
     56  O         28.6810  105.4530   65.4960 O.2   186  ILE186     -0.2864
     57  CB        29.8450  102.3540   65.1510 C.3   186  ILE186      0.0276
     58  CG1       30.0750  101.1250   66.0320 C.3   186  ILE186      0.0022
     59  CG2       31.0230  103.3080   65.2740 C.3   186  ILE186      0.0022
     60  CD1       31.3130  100.3300   65.6690 C.3   186  ILE186      0.0001
     61  N         25.4660  106.8400   66.4770 N.3   189  TRP189     -0.1227
     62  CA        25.7380  107.5070   67.7450 C.3   189  TRP189      0.1737
     63  C         26.8000  108.5850   67.5740 C.2   189  TRP189      0.2595
     64  O         26.8380  109.5520   68.3350 O.2   189  TRP189     -0.2718
     65  CB        26.1560  106.4960   68.8140 C.3   189  TRP189      0.0564
     66  CG        25.0140  105.6370   69.2630 C.ar  189  TRP189      0.0003
     67  CD1       24.7800  104.3400   68.9150 C.ar  189  TRP189      0.0946
     68  CD2       23.9330  106.0240   70.1210 C.ar  189  TRP189      0.0152
     69  NE1       23.6270  103.8900   69.5120 N.ar  189  TRP189     -0.2442
     70  CE2       23.0880  104.9050   70.2570 C.ar  189  TRP189      0.0810
     71  CE3       23.6000  107.2060   70.7910 C.ar  189  TRP189      0.0012
     72  CZ2       21.9320  104.9320   71.0380 C.ar  189  TRP189      0.0191
     73  CZ3       22.4520  107.2320   71.5640 C.ar  189  TRP189      0.0001
     74  CH2       21.6330  106.1020   71.6810 C.ar  189  TRP189      0.0015
     75  N         27.6530  108.4260   66.5680 N.am  190  ARG190     -0.1980
     76  CA        28.6070  109.4740   66.2270 C.3   190  ARG190      0.1597
     77  C         27.8840  110.6490   65.5740 C.2   190  ARG190      0.2287
     78  O         28.1880  111.8120   65.8480 O.2   190  ARG190     -0.2864
     79  CB        29.7000  108.9350   65.3080 C.3   190  ARG190      0.0334
     80  CG        30.6480  107.9730   65.9950 C.3   190  ARG190      0.0492
     81  CD        31.7840  107.5710   65.0750 C.3   190  ARG190      0.2205
     82  NE        32.7080  106.6480   65.7240 N.pl3 190  ARG190     -0.0865
     83  CZ        33.8710  106.2730   65.2020 C.cat 190  ARG190      0.5346
     84  NH1       34.2520  106.7490   64.0240 N.pl3 190  ARG190      0.1354
     85  NH2       34.6530  105.4280   65.8600 N.pl3 190  ARG190      0.1354
     86  N         25.9620  112.5260   68.2890 N.3   193  LYS193     -0.1245
     87  CA        26.8030  113.4040   69.0920 C.3   193  LYS193      0.1561
     88  C         27.1350  114.6920   68.3430 C.2   193  LYS193      0.2260
     89  O         27.2570  115.7550   68.9480 O.2   193  LYS193     -0.2867
     90  CB        28.0900  112.6830   69.5010 C.3   193  LYS193      0.0271
     91  CG        27.8780  111.4410   70.3370 C.3   193  LYS193      0.0035
     92  CD        27.1560  111.7770   71.6260 C.3   193  LYS193      0.0206
     93  CE        27.2780  110.6440   72.6310 C.3   193  LYS193      0.1093
     94  NZ        26.8870  109.3570   71.9920 N.3   193  LYS193     -0.1314
     95  N         21.8370   82.4380   64.4880 N.3   345  LEU345     -0.1245
     96  CA        22.8730   82.2870   65.5050 C.3   345  LEU345      0.1561
     97  C         22.6070   81.0640   66.3780 C.2   345  LEU345      0.2260
     98  O         23.5290   80.3210   66.7200 O.2   345  LEU345     -0.2867
     99  CB        22.9600   83.5500   66.3690 C.3   345  LEU345      0.0270
    100  CG        23.7750   83.5090   67.6640 C.3   345  LEU345      0.0019
    101  CD1       25.2560   83.3390   67.3800 C.3   345  LEU345      0.0001
    102  CD2       23.5290   84.7640   68.4880 C.3   345  LEU345      0.0001
@<TRIPOS>BOND
     1     1     2    1
     2    14    15    2
     3    14    13    1
     4    12    13    1
     5     3     4    2
     6     3     2    1
     7    13    16    1
     8     2     5    1
     9    20    21    1
    10    32    33    1
    11    16    18    1
    12    16    17    1
    13     5     6    1
    14    38    36    1
    15    22    21    1
    16    22    23    2
    17    17    19    1
    18    33    36    1
    19    33    34    1
    20    21    24    1
    21    36    37    1
    22    27    29   ar
    23    27    25   ar
    24     6     8   ar
    25     6     7   ar
    26    24    25    1
    27    34    39   am
    28    34    35    2
    29     8    10   ar
    30    29    30   ar
    31    44    43    1
    32    39    40    1
    33    25    26   ar
    34     7     9   ar
    35    41    40    1
    36    41    42    2
    37    46    47    1
    38    10    11   ar
    39    84    83    1
    40    40    43    1
    41    30    31    1
    42    30    28   ar
    43     9    11   ar
    44    43    45    1
    45    26    28   ar
    46    95    96    1
    47    55    56    2
    48    55    54    1
    49    47    48    1
    50    47    50    1
    51    81    82    1
    52    81    80    1
    53    57    59    1
    54    57    54    1
    55    57    58    1
    56    53    48   am
    57    53    54    1
    58    83    82    2
    59    83    85    1
    60    79    80    1
    61    79    76    1
    62    51    50    1
    63    96    99    1
    64    96    97    1
    65    48    49    2
    66    77    78    2
    67    77    76    1
    68    60    58    1
    69    50    52    1
    70    76    75    1
    71    99   100    1
    72    97    98    2
    73    61    62    1
    74    75    63   am
    75   101   100    1
    76    63    62    1
    77    63    64    2
    78   100   102    1
    79    62    65    1
    80    86    87    1
    81    88    89    2
    82    88    87    1
    83    65    66    1
    84    67    66   ar
    85    67    69   ar
    86    87    90    1
    87    66    68   ar
    88    90    91    1
    89    69    70   ar
    90    68    70   ar
    91    68    71   ar
    92    70    72   ar
    93    91    92    1
    94    71    73   ar
    95    72    74   ar
    96    73    74   ar
    97    92    93    1
    98    94    93    1
