@<TRIPOS>MOLECULE
tmp/4u15A02.pdb
 75 72 0 0 0
SMALL
GASTEIGER

@<TRIPOS>ATOM
      1  N         37.4530   47.1340   54.1440 N.3   208  GLU208     -0.1245
      2  CA        37.1020   46.7150   52.7960 C.3   208  GLU208      0.1567
      3  C         37.7380   47.6420   51.7660 C.2   208  GLU208      0.2260
      4  O         37.7540   47.3380   50.5730 O.2   208  GLU208     -0.2867
      5  CB        35.5830   46.7030   52.6070 C.3   208  GLU208      0.0388
      6  CG        34.8200   45.8590   53.6170 C.3   208  GLU208      0.1160
      7  CD        34.6950   44.4060   53.2120 C.2   208  GLU208      0.3649
      8  OE1       35.4680   43.9530   52.3420 O.co2 208  GLU208     -0.2457
      9  OE2       33.8140   43.7150   53.7640 O.co2 208  GLU208     -0.2457
     10  N         22.5830   43.6820   57.5890 N.3   224  ASP224     -0.1239
     11  CA        23.6470   42.6880   57.5310 C.3   224  ASP224      0.1674
     12  C         24.4220   42.6240   58.8450 C.2   224  ASP224      0.2266
     13  O         24.8200   41.5480   59.2850 O.2   224  ASP224     -0.2867
     14  CB        24.6000   42.9890   56.3690 C.3   224  ASP224      0.1410
     15  CG        23.9470   42.7930   55.0100 C.2   224  ASP224      0.3668
     16  OD1       22.9600   42.0340   54.9180 O.co2 224  ASP224     -0.2456
     17  OD2       24.4260   43.3970   54.0280 O.co2 224  ASP224     -0.2456
     18  N         22.1780   41.0160   61.5290 N.3   227  ALA227     -0.1231
     19  CA        22.1500   39.5790   61.2840 C.3   227  ALA227      0.1694
     20  C         23.4550   38.9250   61.7170 C.2   227  ALA227      0.2591
     21  O         23.4620   37.7910   62.1930 O.2   227  ALA227     -0.2718
     22  CB        21.8800   39.2950   59.8190 C.3   227  ALA227      0.0304
     23  N         24.5590   39.6450   61.5470 N.am  228  ALA228     -0.1980
     24  CA        25.8640   39.1470   61.9640 C.3   228  ALA228      0.1597
     25  C         25.9250   39.0090   63.4790 C.2   228  ALA228      0.2287
     26  O         26.5400   38.0810   63.9990 O.2   228  ALA228     -0.2864
     27  CB        26.9670   40.0620   61.4720 C.3   228  ALA228      0.0319
     28  N         33.6090   38.0510   61.6190 N.3   257  VAL257     -0.1231
     29  CA        32.4420   37.2720   61.2280 C.3   257  VAL257      0.1692
     30  C         31.9280   37.7420   59.8730 C.2   257  VAL257      0.2592
     31  O         31.4580   36.9440   59.0600 O.2   257  VAL257     -0.2718
     32  CB        31.3260   37.3660   62.2850 C.3   257  VAL257      0.0266
     33  CG1       30.0760   36.6370   61.8200 C.3   257  VAL257      0.0020
     34  CG2       31.8110   36.7910   63.6040 C.3   257  VAL257      0.0020
     35  N         32.0320   39.0420   59.6200 N.am  258  PHE258     -0.1962
     36  CA        31.6630   39.5720   58.3160 C.3   258  PHE258      0.1771
     37  C         32.5580   38.9830   57.2250 C.2   258  PHE258      0.2619
     38  O         32.0930   38.6500   56.1330 O.2   258  PHE258     -0.2715
     39  CB        31.7480   41.0990   58.3110 C.3   258  PHE258      0.0574
     40  CG        30.4270   41.7710   58.0870 C.ar  258  PHE258     -0.0200
     41  CD1       29.5770   42.0300   59.1500 C.ar  258  PHE258     -0.0042
     42  CD2       30.0280   42.1280   56.8110 C.ar  258  PHE258     -0.0042
     43  CE1       28.3550   42.6390   58.9440 C.ar  258  PHE258     -0.0003
     44  CE2       28.8100   42.7380   56.5960 C.ar  258  PHE258     -0.0003
     45  CZ        27.9710   42.9950   57.6640 C.ar  258  PHE258     -0.0000
     46  N         33.8370   38.8300   57.5470 N.am  259  GLN259     -0.1963
     47  CA        34.8340   38.3790   56.5880 C.3   259  GLN259      0.1733
     48  C         34.8550   36.8610   56.3990 C.2   259  GLN259      0.2616
     49  O         34.9050   36.3720   55.2680 O.2   259  GLN259     -0.2715
     50  CB        36.2160   38.8580   57.0240 C.3   259  GLN259      0.0408
     51  CG        37.3260   38.5050   56.0620 C.3   259  GLN259      0.0908
     52  CD        38.6880   38.9160   56.5750 C.2   259  GLN259      0.2608
     53  OE1       38.8250   39.3630   57.7120 O.2   259  GLN259     -0.2717
     54  NE2       39.7070   38.7660   55.7360 N.am  259  GLN259     -0.0878
     55  N         34.8140   36.1250   57.5080 N.am  260  MET260     -0.1963
     56  CA        35.0090   34.6770   57.4800 C.3   260  MET260      0.1736
     57  C         33.7730   33.8800   57.8820 C.2   260  MET260      0.2617
     58  O         33.7910   32.6490   57.8530 O.2   260  MET260     -0.2715
     59  CB        36.1750   34.2920   58.3920 C.3   260  MET260      0.0427
     60  CG        37.5040   34.8990   57.9760 C.3   260  MET260      0.0599
     61  SD        38.8170   34.5450   59.1570 S.3   260  MET260     -0.1393
     62  CE        38.0840   35.2010   60.6510 C.3   260  MET260      0.0692
     63  N         32.7020   34.5710   58.2540 N.am  261  GLY261     -0.1940
     64  CA        31.4930   33.8980   58.7010 C.3   261  GLY261      0.2014
     65  C         31.5790   33.4380   60.1450 C.2   261  GLY261      0.2638
     66  O         32.6650   33.3850   60.7250 O.2   261  GLY261     -0.2714
     67  N         30.4290   33.1000   60.7240 N.am  262  GLU262     -0.1977
     68  CA        30.3550   32.6560   62.1190 C.3   262  GLU262      0.1602
     69  C         31.1840   31.3940   62.3710 C.2   262  GLU262      0.2287
     70  O         31.9290   31.3170   63.3490 O.2   262  GLU262     -0.2864
     71  CB        28.8980   32.4020   62.5190 C.3   262  GLU262      0.0415
     72  CG        27.9320   33.4870   62.0650 C.3   262  GLU262      0.1163
     73  CD        26.4760   33.0730   62.2010 C.2   262  GLU262      0.3649
     74  OE1       26.2040   32.0440   62.8580 O.co2 262  GLU262     -0.2457
     75  OE2       25.6040   33.7780   61.6480 O.co2 262  GLU262     -0.2457
@<TRIPOS>BOND
     1     4     3    2
     2     3     2    1
     3     8     7   ar
     4     5     2    1
     5     5     6    1
     6     2     1    1
     7     7     6    1
     8     7     9   ar
     9    17    15   ar
    10    16    15   ar
    11    15    14    1
    12    49    48    2
    13    54    52   am
    14    51    52    1
    15    51    50    1
    16    38    37    2
    17    14    11    1
    18    48    47    1
    19    48    55   am
    20    52    53    2
    21    47    50    1
    22    47    46    1
    23    44    42   ar
    24    44    45   ar
    25    42    40   ar
    26    37    46   am
    27    37    36    1
    28    56    55    1
    29    56    57    1
    30    56    59    1
    31    11    10    1
    32    11    12    1
    33    45    43   ar
    34    58    57    2
    35    57    63   am
    36    60    59    1
    37    60    61    1
    38    40    39    1
    39    40    41   ar
    40    63    64    1
    41    39    36    1
    42    36    35    1
    43    64    65    1
    44    12    13    2
    45    43    41   ar
    46    31    30    2
    47    61    62    1
    48    35    30   am
    49    22    19    1
    50    30    29    1
    51    65    67   am
    52    65    66    2
    53    67    68    1
    54    29    28    1
    55    29    32    1
    56    19    18    1
    57    19    20    1
    58    27    24    1
    59    23    20   am
    60    23    24    1
    61    75    73   ar
    62    20    21    2
    63    33    32    1
    64    24    25    1
    65    72    73    1
    66    72    71    1
    67    68    69    1
    68    68    71    1
    69    73    74   ar
    70    32    34    1
    71    69    70    2
    72    25    26    2
