@<TRIPOS>MOLECULE
tmp/4u15B05.pdb
 83 76 0 0 0
SMALL
GASTEIGER

@<TRIPOS>ATOM
      1  N         16.7350  115.2030   45.7130 N.3    38  THR38      -0.1203
      2  CA        18.0270  115.4300   46.3510 C.3    38  THR38       0.1994
      3  C         18.8370  114.1390   46.3740 C.2    38  THR38       0.2618
      4  O         18.3210  113.0710   46.0510 O.2    38  THR38      -0.2717
      5  CB        17.8700  115.9530   47.7880 C.3    38  THR38       0.1784
      6  OG1       17.2310  114.9560   48.5940 O.3    38  THR38      -0.2211
      7  CG2       17.0390  117.2250   47.8060 C.3    38  THR38       0.0376
      8  N         20.1040  114.2410   46.7590 N.am   39  VAL39      -0.1965
      9  CA        20.9860  113.0810   46.8020 C.3    39  VAL39       0.1727
     10  C         20.5410  112.0860   47.8720 C.2    39  VAL39       0.2616
     11  O         20.5120  110.8780   47.6330 O.2    39  VAL39      -0.2715
     12  CB        22.4480  113.4960   47.0600 C.3    39  VAL39       0.0290
     13  CG1       23.3150  112.2790   47.3300 C.3    39  VAL39       0.0023
     14  CG2       22.9870  114.2830   45.8790 C.3    39  VAL39       0.0023
     15  N         20.1870  112.5990   49.0460 N.am   40  ASN40      -0.1958
     16  CA        19.7180  111.7540   50.1380 C.3    40  ASN40       0.1819
     17  C         18.4370  111.0140   49.7740 C.2    40  ASN40       0.2621
     18  O         18.2700  109.8450   50.1160 O.2    40  ASN40      -0.2715
     19  CB        19.4970  112.5870   51.4030 C.3    40  ASN40       0.1195
     20  CG        20.7850  113.1750   51.9460 C.2    40  ASN40       0.2630
     21  OD1       21.7860  113.2680   51.2350 O.2    40  ASN40      -0.2716
     22  ND2       20.7660  113.5750   53.2130 N.am   40  ASN40      -0.0877
     23  N         17.5370  111.6970   49.0770 N.am   41  ASN41      -0.1972
     24  CA        16.2860  111.0870   48.6450 C.3    41  ASN41       0.1688
     25  C         16.4830  110.1870   47.4320 C.2    41  ASN41       0.2292
     26  O         15.6450  109.3360   47.1360 O.2    41  ASN41      -0.2864
     27  CB        15.2460  112.1620   48.3330 C.3    41  ASN41       0.1181
     28  CG        14.7250  112.8450   49.5800 C.2    41  ASN41       0.2629
     29  OD1       15.2940  112.7040   50.6630 O.2    41  ASN41      -0.2716
     30  ND2       13.6370  113.5900   49.4340 N.am   41  ASN41      -0.0877
     31  N         25.2740  110.5260   55.7980 N.3   103  ARG103     -0.1245
     32  CA        24.9320  111.4140   56.9010 C.3   103  ARG103      0.1563
     33  C         26.1440  111.7090   57.7770 C.2   103  ARG103      0.2260
     34  O         26.3320  112.8380   58.2270 O.2   103  ARG103     -0.2867
     35  CB        23.8150  110.8100   57.7520 C.3   103  ARG103      0.0307
     36  CG        22.4840  111.5370   57.6560 C.3   103  ARG103      0.0489
     37  CD        21.7790  111.2470   56.3410 C.3   103  ARG103      0.2205
     38  NE        20.4050  111.7410   56.3500 N.pl3 103  ARG103     -0.0865
     39  CZ        19.5280  111.5300   55.3740 C.cat 103  ARG103      0.5346
     40  NH1       18.2980  112.0180   55.4700 N.pl3 103  ARG103      0.1354
     41  NH2       19.8800  110.8320   54.3020 N.pl3 103  ARG103      0.1354
     42  N         28.4030  114.0470   55.9280 N.3   106  SER106     -0.1217
     43  CA        27.7380  115.3240   55.6850 C.3   106  SER106      0.1889
     44  C         27.7770  116.2460   56.8980 C.2   106  SER106      0.2288
     45  O         27.5800  117.4530   56.7740 O.2   106  SER106     -0.2866
     46  CB        26.2840  115.0960   55.2680 C.3   106  SER106      0.2089
     47  OG        26.2060  114.4500   54.0110 O.3   106  SER106     -0.2183
     48  N         30.4040  117.7450   50.9180 N.3   114  ARG114     -0.1245
     49  CA        29.1340  117.9490   50.2160 C.3   114  ARG114      0.1563
     50  C         29.2850  118.3380   48.7420 C.2   114  ARG114      0.2260
     51  O         28.3350  118.2120   47.9690 O.2   114  ARG114     -0.2867
     52  CB        28.2970  119.0140   50.9290 C.3   114  ARG114      0.0307
     53  CG        27.5120  118.5130   52.1320 C.3   114  ARG114      0.0489
     54  CD        26.6860  119.6390   52.7380 C.3   114  ARG114      0.2205
     55  NE        25.9160  119.2040   53.8990 N.pl3 114  ARG114     -0.0865
     56  CZ        24.6510  118.8020   53.8480 C.cat 114  ARG114      0.5346
     57  NH1       24.0270  118.4230   54.9550 N.pl3 114  ARG114      0.1354
     58  NH2       24.0100  118.7800   52.6870 N.pl3 114  ARG114      0.1354
     59  N         29.1520  115.2290   46.5460 N.3   117  ARG117     -0.1245
     60  CA        27.8860  114.5030   46.4940 C.3   117  ARG117      0.1563
     61  C         27.1270  114.8010   45.2070 C.2   117  ARG117      0.2260
     62  O         26.0100  115.3150   45.2410 O.2   117  ARG117     -0.2867
     63  CB        27.0010  114.8460   47.6920 C.3   117  ARG117      0.0307
     64  CG        27.6440  114.6350   49.0430 C.3   117  ARG117      0.0489
     65  CD        26.5800  114.4130   50.1040 C.3   117  ARG117      0.2205
     66  NE        25.4160  115.2700   49.9070 N.pl3 117  ARG117     -0.0865
     67  CZ        24.1590  114.8390   49.9400 C.cat 117  ARG117      0.5346
     68  NH1       23.9030  113.5580   50.1670 N.pl3 117  ARG117      0.1354
     69  NH2       23.1570  115.6870   49.7500 N.pl3 117  ARG117      0.1354
     70  N         17.9520  121.2290   61.2650 N.3   318  LYS318     -0.1245
     71  CA        18.0390  120.3700   60.0890 C.3   318  LYS318      0.1561
     72  C         18.7720  119.0650   60.3890 C.2   318  LYS318      0.2260
     73  O         18.2840  117.9800   60.0650 O.2   318  LYS318     -0.2867
     74  CB        18.7340  121.1050   58.9380 C.3   318  LYS318      0.0271
     75  CG        17.7640  122.2140   58.4490 C.3   318  LYS318      0.0035
     76  CD        18.3780  122.7950   57.1780 C.3   318  LYS318      0.0206
     77  CE        18.2970  124.3200   57.2920 C.3   318  LYS318      0.1093
     78  NZ        18.8930  124.6670   58.6360 N.3   318  LYS318     -0.1314
     79  N         17.3050  115.1630   60.3360 N.3   322  ALA322     -0.1245
     80  CA        17.9190  114.1290   59.5150 C.3   322  ALA322      0.1562
     81  C         18.3080  112.9400   60.3780 C.2   322  ALA322      0.2260
     82  O         18.4000  111.8120   59.8970 O.2   322  ALA322     -0.2867
     83  CB        19.1330  114.6780   58.7840 C.3   322  ALA322      0.0290
@<TRIPOS>BOND
     1    61    62    2
     2    61    60    1
     3     1     2    1
     4    14    12    1
     5     4     3    2
     6     2     3    1
     7     2     5    1
     8     3     8   am
     9    60    59    1
    10    60    63    1
    11     8     9    1
    12     9    12    1
    13     9    10    1
    14    12    13    1
    15    26    25    2
    16    25    24    1
    17    11    10    2
    18    63    64    1
    19     5     7    1
    20     5     6    1
    21    10    15   am
    22    51    50    2
    23    27    24    1
    24    27    28    1
    25    24    23    1
    26    50    49    1
    27    64    65    1
    28    15    16    1
    29    23    17   am
    30    30    28   am
    31    28    29    2
    32    69    67    1
    33    17    18    2
    34    17    16    1
    35    66    67    2
    36    66    65    1
    37    67    68    1
    38    16    19    1
    39    49    48    1
    40    49    52    1
    41    52    53    1
    42    21    20    2
    43    19    20    1
    44    20    22   am
    45    53    54    1
    46    58    56    1
    47    54    55    1
    48    56    55    2
    49    56    57    1
    50    47    46    1
    51    41    39    1
    52    46    43    1
    53    39    40    1
    54    39    38    2
    55    43    42    1
    56    43    44    1
    57    31    32    1
    58    37    38    1
    59    37    36    1
    60    45    44    2
    61    32    35    1
    62    32    33    1
    63    76    77    1
    64    76    75    1
    65    77    78    1
    66    36    35    1
    67    33    34    2
    68    75    74    1
    69    83    80    1
    70    74    71    1
    71    80    79    1
    72    80    81    1
    73    82    81    2
    74    73    72    2
    75    71    72    1
    76    71    70    1
