@<TRIPOS>MOLECULE
tmp/4u15A01.pdb
 96 90 0 0 0
SMALL
GASTEIGER

@<TRIPOS>ATOM
      1  N         34.3380   48.6450   59.1380 N.3   204  LEU204     -0.1231
      2  CA        34.3270   47.7340   58.0030 C.3   204  LEU204      0.1693
      3  C         34.6160   48.4950   56.7170 C.2   204  LEU204      0.2591
      4  O         35.2680   47.9780   55.8140 O.2   204  LEU204     -0.2718
      5  CB        32.9810   47.0100   57.9040 C.3   204  LEU204      0.0284
      6  CG        32.6470   46.0620   59.0570 C.3   204  LEU204      0.0019
      7  CD1       31.2580   45.4650   58.8920 C.3   204  LEU204      0.0001
      8  CD2       33.6960   44.9670   59.1580 C.3   204  LEU204      0.0001
      9  N         34.1300   49.7300   56.6490 N.am  205  ARG205     -0.1980
     10  CA        34.3270   50.5770   55.4800 C.3   205  ARG205      0.1597
     11  C         35.8120   50.7410   55.1680 C.2   205  ARG205      0.2287
     12  O         36.2380   50.5530   54.0320 O.2   205  ARG205     -0.2864
     13  CB        33.6800   51.9420   55.7000 C.3   205  ARG205      0.0334
     14  CG        33.2770   52.6550   54.4240 C.3   205  ARG205      0.0492
     15  CD        31.7750   52.5770   54.2100 C.3   205  ARG205      0.2205
     16  NE        31.0410   53.1770   55.3210 N.pl3 205  ARG205     -0.0865
     17  CZ        29.7160   53.2500   55.3880 C.cat 205  ARG205      0.5346
     18  NH1       28.9750   52.7590   54.4030 N.pl3 205  ARG205      0.1354
     19  NH2       29.1320   53.8120   56.4390 N.pl3 205  ARG205      0.1354
     20  N         37.4530   47.1340   54.1440 N.3   208  GLU208     -0.1245
     21  CA        37.1020   46.7150   52.7960 C.3   208  GLU208      0.1567
     22  C         37.7380   47.6420   51.7660 C.2   208  GLU208      0.2260
     23  O         37.7540   47.3380   50.5730 O.2   208  GLU208     -0.2867
     24  CB        35.5830   46.7030   52.6070 C.3   208  GLU208      0.0388
     25  CG        34.8200   45.8590   53.6170 C.3   208  GLU208      0.1160
     26  CD        34.6950   44.4060   53.2120 C.2   208  GLU208      0.3649
     27  OE1       35.4680   43.9530   52.3420 O.co2 208  GLU208     -0.2457
     28  OE2       33.8140   43.7150   53.7640 O.co2 208  GLU208     -0.2457
     29  N         36.2590   50.2000   51.5130 N.3   210  GLY210     -0.1210
     30  CA        34.9200   50.4940   51.0490 C.3   210  GLY210      0.1956
     31  C         34.6590   51.9610   50.8110 C.2   210  GLY210      0.2612
     32  O         35.4520   52.8230   51.1910 O.2   210  GLY210     -0.2717
     33  N         33.5340   52.2430   50.1700 N.am  211  GLY211     -0.1956
     34  CA        33.1440   53.6090   49.9040 C.3   211  GLY211      0.1869
     35  C         31.7330   53.8760   50.3720 C.2   211  GLY211      0.2309
     36  O         30.9600   52.9500   50.6230 O.2   211  GLY211     -0.2863
     37  N         28.0570   54.3160   50.3480 N.3   213  GLY213     -0.1210
     38  CA        26.9930   53.8080   49.5040 C.3   213  GLY213      0.1956
     39  C         25.7580   54.6880   49.5400 C.2   213  GLY213      0.2612
     40  O         25.7010   55.6720   50.2830 O.2   213  GLY213     -0.2717
     41  N         24.7630   54.3310   48.7350 N.am  214  GLY214     -0.1956
     42  CA        23.5150   55.0710   48.6960 C.3   214  GLY214      0.1869
     43  C         22.7320   54.9610   49.9910 C.2   214  GLY214      0.2309
     44  O         23.1470   54.2680   50.9220 O.2   214  GLY214     -0.2863
     45  N         21.7210   51.3770   50.4890 N.3   217  ALA217     -0.1231
     46  CA        22.8300   50.4890   50.8200 C.3   217  ALA217      0.1694
     47  C         23.2020   50.5760   52.2960 C.2   217  ALA217      0.2591
     48  O         23.8270   49.6680   52.8400 O.2   217  ALA217     -0.2718
     49  CB        24.0360   50.8060   49.9520 C.3   217  ALA217      0.0304
     50  N         22.8190   51.6720   52.9420 N.am  218  GLU218     -0.1979
     51  CA        23.0850   51.8400   54.3650 C.3   218  GLU218      0.1602
     52  C         22.0500   51.1040   55.2070 C.2   218  GLU218      0.2287
     53  O         22.3420   50.6600   56.3160 O.2   218  GLU218     -0.2864
     54  CB        23.1180   53.3230   54.7330 C.3   218  GLU218      0.0415
     55  CG        24.2830   54.0720   54.1100 C.3   218  GLU218      0.1163
     56  CD        25.6260   53.4790   54.4980 C.2   218  GLU218      0.3649
     57  OE1       25.7840   53.0760   55.6710 O.co2 218  GLU218     -0.2457
     58  OE2       26.5220   53.4080   53.6280 O.co2 218  GLU218     -0.2457
     59  N         20.6970   48.3510   54.0650 N.3   220  LEU220     -0.1231
     60  CA        21.0660   46.9640   53.8060 C.3   220  LEU220      0.1693
     61  C         22.2850   46.5730   54.6310 C.2   220  LEU220      0.2592
     62  O         22.4140   45.4280   55.0610 O.2   220  LEU220     -0.2718
     63  CB        21.3470   46.7460   52.3160 C.3   220  LEU220      0.0284
     64  CG        20.1970   46.2970   51.4090 C.3   220  LEU220      0.0019
     65  CD1       18.9460   47.1390   51.6130 C.3   220  LEU220      0.0001
     66  CD2       20.6380   46.3380   49.9560 C.3   220  LEU220      0.0001
     67  N         23.1790   47.5320   54.8460 N.am  221  PHE221     -0.1976
     68  CA        24.3750   47.2970   55.6440 C.3   221  PHE221      0.1639
     69  C         24.0000   47.0920   57.1090 C.2   221  PHE221      0.2290
     70  O         24.6240   46.3030   57.8160 O.2   221  PHE221     -0.2864
     71  CB        25.3530   48.4630   55.4990 C.3   221  PHE221      0.0560
     72  CG        26.7220   48.1760   56.0370 C.ar  221  PHE221     -0.0200
     73  CD1       27.6770   47.5680   55.2470 C.ar  221  PHE221     -0.0042
     74  CD2       27.0570   48.5190   57.3310 C.ar  221  PHE221     -0.0042
     75  CE1       28.9390   47.3050   55.7400 C.ar  221  PHE221     -0.0003
     76  CE2       28.3190   48.2560   57.8260 C.ar  221  PHE221     -0.0003
     77  CZ        29.2590   47.6500   57.0290 C.ar  221  PHE221     -0.0000
     78  N         22.5830   43.6820   57.5890 N.3   224  ASP224     -0.1239
     79  CA        23.6470   42.6880   57.5310 C.3   224  ASP224      0.1674
     80  C         24.4220   42.6240   58.8450 C.2   224  ASP224      0.2266
     81  O         24.8200   41.5480   59.2850 O.2   224  ASP224     -0.2867
     82  CB        24.6000   42.9890   56.3690 C.3   224  ASP224      0.1410
     83  CG        23.9470   42.7930   55.0100 C.2   224  ASP224      0.3668
     84  OD1       22.9600   42.0340   54.9180 O.co2 224  ASP224     -0.2456
     85  OD2       24.4260   43.3970   54.0280 O.co2 224  ASP224     -0.2456
     86  N         32.0320   39.0420   59.6200 N.3   258  PHE258     -0.1241
     87  CA        31.6630   39.5720   58.3160 C.3   258  PHE258      0.1605
     88  C         32.5580   38.9830   57.2250 C.2   258  PHE258      0.2264
     89  O         32.0930   38.6500   56.1330 O.2   258  PHE258     -0.2867
     90  CB        31.7480   41.0990   58.3110 C.3   258  PHE258      0.0534
     91  CG        30.4270   41.7710   58.0870 C.ar  258  PHE258     -0.0203
     92  CD1       29.5770   42.0300   59.1500 C.ar  258  PHE258     -0.0042
     93  CD2       30.0280   42.1280   56.8110 C.ar  258  PHE258     -0.0042
     94  CE1       28.3550   42.6390   58.9440 C.ar  258  PHE258     -0.0003
     95  CE2       28.8100   42.7380   56.5960 C.ar  258  PHE258     -0.0003
     96  CZ        27.9710   42.9950   57.6640 C.ar  258  PHE258     -0.0000
@<TRIPOS>BOND
     1    42    41    1
     2    42    43    1
     3    41    39   am
     4    38    39    1
     5    38    37    1
     6    39    40    2
     7    34    33    1
     8    34    35    1
     9    49    46    1
    10    66    64    1
    11    43    44    2
    12    33    31   am
    13    35    36    2
    14    45    46    1
    15    23    22    2
    16    31    30    1
    17    31    32    2
    18    46    47    1
    19    30    29    1
    20    64    65    1
    21    64    63    1
    22    22    21    1
    23    47    48    2
    24    47    50   am
    25    63    60    1
    26    27    26   ar
    27    24    21    1
    28    24    25    1
    29    21    20    1
    30    50    51    1
    31    26    25    1
    32    26    28   ar
    33    58    56   ar
    34    60    59    1
    35    60    61    1
    36    85    83   ar
    37    12    11    2
    38    55    56    1
    39    55    54    1
    40    15    14    1
    41    15    16    1
    42    51    54    1
    43    51    52    1
    44    18    17    1
    45    14    13    1
    46    56    57   ar
    47    61    67   am
    48    61    62    2
    49    67    68    1
    50    84    83   ar
    51    83    82    1
    52    11    10    1
    53    52    53    2
    54    73    75   ar
    55    73    72   ar
    56    16    17    2
    57    17    19    1
    58    10    13    1
    59    10     9    1
    60    71    68    1
    61    71    72    1
    62    68    69    1
    63    75    77   ar
    64     4     3    2
    65    72    74   ar
    66    89    88    2
    67    82    79    1
    68    95    93   ar
    69    95    96   ar
    70     9     3   am
    71     3     2    1
    72    93    91   ar
    73    77    76   ar
    74    69    70    2
    75    88    87    1
    76    74    76   ar
    77    79    78    1
    78    79    80    1
    79    96    94   ar
    80     5     2    1
    81     5     6    1
    82     2     1    1
    83    91    90    1
    84    91    92   ar
    85    90    87    1
    86    87    86    1
    87    80    81    2
    88     7     6    1
    89    94    92   ar
    90     6     8    1
