@<TRIPOS>MOLECULE
tmp/4u16A01.pdb
 169 165 0 0 0
SMALL
GASTEIGER

@<TRIPOS>ATOM
      1  N        -13.8680   -5.0390   -2.2340 N.3    54  ILE54      -0.1245
      2  CA       -13.6820   -4.1580   -1.0860 C.3    54  ILE54       0.1561
      3  C        -12.2170   -4.1270   -0.6550 C.2    54  ILE54       0.2260
      4  O        -11.6870   -3.0780   -0.2890 O.2    54  ILE54      -0.2867
      5  CB       -14.5630   -4.5950    0.1040 C.3    54  ILE54       0.0252
      6  CG1      -16.0430   -4.5490   -0.2830 C.3    54  ILE54       0.0019
      7  CG2      -14.3060   -3.7180    1.3180 C.3    54  ILE54       0.0019
      8  CD1      -16.9850   -4.9180    0.8450 C.3    54  ILE54       0.0001
      9  N        -18.4290    0.6580   -3.2080 N.3    85  ASP85      -0.1225
     10  CA       -18.4250    0.2200   -1.8180 C.3    85  ASP85       0.1805
     11  C        -19.8270   -0.1400   -1.3250 C.2    85  ASP85       0.2597
     12  O        -19.9920   -1.0470   -0.5080 O.2    85  ASP85      -0.2718
     13  CB       -17.8220    1.3100   -0.9280 C.3    85  ASP85       0.1424
     14  CG       -17.2120    0.7580    0.3460 C.2    85  ASP85       0.3668
     15  OD1      -17.6130   -0.3440    0.7770 O.co2  85  ASP85      -0.2456
     16  OD2      -16.3280    1.4300    0.9180 O.co2  85  ASP85      -0.2456
     17  N        -20.8330    0.5660   -1.8310 N.am   86  TYR86      -0.1976
     18  CA       -22.2030    0.3980   -1.3530 C.3    86  TYR86       0.1639
     19  C        -22.9630   -0.7180   -2.0710 C.2    86  TYR86       0.2290
     20  O        -23.8260   -1.3620   -1.4780 O.2    86  TYR86      -0.2864
     21  CB       -22.9660    1.7220   -1.4770 C.3    86  TYR86       0.0560
     22  CG       -22.8700    2.5790   -0.2340 C.ar   86  TYR86      -0.0198
     23  CD1      -21.6530    3.1100    0.1780 C.ar   86  TYR86      -0.0009
     24  CD2      -23.9940    2.8560    0.5280 C.ar   86  TYR86      -0.0009
     25  CE1      -21.5620    3.8870    1.3210 C.ar   86  TYR86       0.0417
     26  CE2      -23.9130    3.6260    1.6730 C.ar   86  TYR86       0.0417
     27  CZ       -22.6960    4.1390    2.0650 C.ar   86  TYR86       0.1957
     28  OH       -22.6170    4.9110    3.2020 O.3    86  TYR86      -0.2866
     29  N        -21.3060   -4.2680   -0.9000 N.3    89  SER89      -0.1202
     30  CA       -21.6830   -4.5880    0.4730 C.3    89  SER89       0.2020
     31  C        -23.1820   -4.8480    0.5970 C.2    89  SER89       0.2618
     32  O        -23.6250   -5.5110    1.5340 O.2    89  SER89      -0.2717
     33  CB       -21.2670   -3.4620    1.4200 C.3    89  SER89       0.2103
     34  OG       -21.9760   -2.2690    1.1340 O.3    89  SER89      -0.2182
     35  N        -23.9610   -4.3230   -0.3440 N.am   90  ASN90      -0.1974
     36  CA       -25.3990   -4.5740   -0.3600 C.3    90  ASN90       0.1688
     37  C        -25.7100   -5.9160   -1.0080 C.2    90  ASN90       0.2292
     38  O        -26.6450   -6.6050   -0.6090 O.2    90  ASN90      -0.2864
     39  CB       -26.1440   -3.4560   -1.0900 C.3    90  ASN90       0.1181
     40  CG       -27.6510   -3.5740   -0.9500 C.2    90  ASN90       0.2629
     41  OD1      -28.2380   -3.0650    0.0040 O.2    90  ASN90      -0.2716
     42  ND2      -28.2840   -4.2490   -1.9020 N.am   90  ASN90      -0.0877
     43  N        -25.0460   -8.5230    1.7430 N.3    93  VAL93      -0.1245
     44  CA       -26.1090   -8.8300    2.6910 C.3    93  VAL93       0.1561
     45  C        -27.2370   -9.5860    1.9960 C.2    93  VAL93       0.2260
     46  O        -28.0020  -10.2990    2.6420 O.2    93  VAL93      -0.2867
     47  CB       -26.6730   -7.5590    3.3740 C.3    93  VAL93       0.0252
     48  CG1      -25.5470   -6.7380    3.9800 C.3    93  VAL93       0.0019
     49  CG2      -27.4850   -6.7230    2.3980 C.3    93  VAL93       0.0019
     50  N        -28.3550    1.9980   -5.4710 N.3   137  TRP137     -0.1241
     51  CA       -27.2090    2.8070   -5.0690 C.3   137  TRP137      0.1605
     52  C        -26.5980    3.6270   -6.2030 C.2   137  TRP137      0.2264
     53  O        -26.3040    4.8080   -6.0220 O.2   137  TRP137     -0.2867
     54  CB       -26.1350    1.9140   -4.4430 C.3   137  TRP137      0.0550
     55  CG       -26.5680    1.3020   -3.1500 C.ar  137  TRP137      0.0003
     56  CD1      -26.7570   -0.0240   -2.8920 C.ar  137  TRP137      0.0946
     57  CD2      -26.8850    1.9960   -1.9370 C.ar  137  TRP137      0.0152
     58  NE1      -27.1630   -0.2000   -1.5910 N.ar  137  TRP137     -0.2442
     59  CE2      -27.2500    1.0250   -0.9840 C.ar  137  TRP137      0.0810
     60  CE3      -26.8910    3.3440   -1.5650 C.ar  137  TRP137      0.0012
     61  CZ2      -27.6180    1.3590    0.3180 C.ar  137  TRP137      0.0191
     62  CZ3      -27.2570    3.6730   -0.2720 C.ar  137  TRP137      0.0001
     63  CH2      -27.6150    2.6850    0.6530 C.ar  137  TRP137      0.0015
     64  N        -30.6780    8.3800    6.4970 N.3   169  THR169     -0.1218
     65  CA       -29.6000    7.4310    6.7590 C.3   169  THR169      0.1862
     66  C        -30.0420    6.3640    7.7540 C.2   169  THR169      0.2287
     67  O        -29.6950    5.1890    7.6230 O.2   169  THR169     -0.2866
     68  CB       -28.3470    8.1450    7.3000 C.3   169  THR169      0.1770
     69  OG1      -27.9290    9.1510    6.3690 O.3   169  THR169     -0.2211
     70  CG2      -27.2130    7.1560    7.5120 C.3   169  THR169      0.0375
     71  N        -32.3570    4.0890    6.0650 N.3   172  THR172     -0.1203
     72  CA       -31.5080    3.2270    5.2620 C.3   172  THR172      0.1994
     73  C        -30.8540    2.1710    6.1480 C.2   172  THR172      0.2617
     74  O        -30.7240    1.0150    5.7540 O.2   172  THR172     -0.2717
     75  CB       -30.4260    4.0320    4.5220 C.3   172  THR172      0.1784
     76  OG1      -31.0510    4.9740    3.6440 O.3   172  THR172     -0.2211
     77  CG2      -29.5290    3.1140    3.7030 C.3   172  THR172      0.0376
     78  N        -30.4810    2.5680    7.3610 N.am  173  ALA173     -0.1979
     79  CA       -29.8050    1.6740    8.2960 C.3   173  ALA173      0.1597
     80  C        -30.6520    0.4660    8.6990 C.2   173  ALA173      0.2287
     81  O        -30.1330   -0.6400    8.8390 O.2   173  ALA173     -0.2864
     82  CB       -29.3860    2.4490    9.5360 C.3   173  ALA173      0.0319
     83  N        -31.6010   -2.2110    5.9420 N.3   176  ALA176     -0.1231
     84  CA       -30.3910   -2.7730    5.3230 C.3   176  ALA176      0.1694
     85  C        -29.5440   -3.5990    6.3040 C.2   176  ALA176      0.2592
     86  O        -28.7720   -4.4900    5.9220 O.2   176  ALA176     -0.2718
     87  CB       -29.5330   -1.6390    4.6970 C.3   176  ALA176      0.0304
     88  N        -29.6710   -3.2780    7.5800 N.am  177  PHE177     -0.1976
     89  CA       -28.9650   -4.0390    8.6090 C.3   177  PHE177      0.1639
     90  C        -29.9110   -4.6000    9.6760 C.2   177  PHE177      0.2290
     91  O        -29.9680   -5.8120    9.8840 O.2   177  PHE177     -0.2864
     92  CB       -27.8900   -3.1660    9.2500 C.3   177  PHE177      0.0560
     93  CG       -27.1700   -3.8190   10.3800 C.ar  177  PHE177     -0.0200
     94  CD1      -26.1050   -4.6700   10.1460 C.ar  177  PHE177     -0.0042
     95  CD2      -27.5470   -3.5660   11.6840 C.ar  177  PHE177     -0.0042
     96  CE1      -25.4300   -5.2660   11.2050 C.ar  177  PHE177     -0.0003
     97  CE2      -26.8810   -4.1550   12.7460 C.ar  177  PHE177     -0.0003
     98  CZ       -25.8190   -5.0060   12.5070 C.ar  177  PHE177     -0.0000
     99  N        -20.3970   -4.8310   11.8620 N.3   337  TRP337     -0.1241
    100  CA       -21.2750   -3.8280   11.2680 C.3   337  TRP337      0.1605
    101  C        -22.1560   -3.1440   12.3090 C.2   337  TRP337      0.2264
    102  O        -22.7370   -2.0910   12.0440 O.2   337  TRP337     -0.2867
    103  CB       -22.1550   -4.4550   10.1810 C.3   337  TRP337      0.0550
    104  CG       -21.4390   -4.7020    8.8880 C.ar  337  TRP337      0.0003
    105  CD1      -20.1430   -5.0980    8.7300 C.ar  337  TRP337      0.0946
    106  CD2      -21.9760   -4.5500    7.5670 C.ar  337  TRP337      0.0152
    107  NE1      -19.8420   -5.2110    7.3950 N.ar  337  TRP337     -0.2442
    108  CE2      -20.9500   -4.8800    6.6590 C.ar  337  TRP337      0.0810
    109  CE3      -23.2250   -4.1720    7.0640 C.ar  337  TRP337      0.0012
    110  CZ2      -21.1330   -4.8420    5.2790 C.ar  337  TRP337      0.0191
    111  CZ3      -23.4060   -4.1360    5.6930 C.ar  337  TRP337      0.0001
    112  CH2      -22.3650   -4.4690    4.8160 C.ar  337  TRP337      0.0015
    113  N        -21.0740    0.4830   13.8840 N.3   340  TYR340     -0.1227
    114  CA       -21.3530    1.5580   12.9410 C.3   340  TYR340      0.1736
    115  C        -22.8380    1.9080   12.9780 C.2   340  TYR340      0.2595
    116  O        -23.2070    3.0760   13.0890 O.2   340  TYR340     -0.2718
    117  CB       -20.9310    1.1620   11.5230 C.3   340  TYR340      0.0548
    118  CG       -21.0670    2.2700   10.4960 C.ar  340  TYR340     -0.0200
    119  CD1      -19.9960    3.1040   10.1990 C.ar  340  TYR340     -0.0009
    120  CD2      -22.2630    2.4750    9.8180 C.ar  340  TYR340     -0.0009
    121  CE1      -20.1150    4.1140    9.2610 C.ar  340  TYR340      0.0417
    122  CE2      -22.3910    3.4830    8.8810 C.ar  340  TYR340      0.0417
    123  CZ       -21.3150    4.2970    8.6050 C.ar  340  TYR340      0.1957
    124  OH       -21.4400    5.2990    7.6700 O.3   340  TYR340     -0.2866
    125  N        -23.6830    0.8850   12.8930 N.am  341  ASN341     -0.1974
    126  CA       -25.1300    1.0810   12.8850 C.3   341  ASN341      0.1688
    127  C        -25.6680    1.5540   14.2280 C.2   341  ASN341      0.2292
    128  O        -26.7410    2.1510   14.2970 O.2   341  ASN341     -0.2864
    129  CB       -25.8370   -0.2080   12.4680 C.3   341  ASN341      0.1181
    130  CG       -25.7500   -0.4630   10.9780 C.2   341  ASN341      0.2629
    131  OD1      -26.6370   -0.0740   10.2180 O.2   341  ASN341     -0.2716
    132  ND2      -24.6740   -1.1150   10.5510 N.am  341  ASN341     -0.0877
    133  N        -25.2180    5.2310   13.8080 N.3   344  VAL344     -0.1245
    134  CA       -26.2570    5.7310   12.9120 C.3   344  VAL344      0.1561
    135  C        -27.5810    5.8600   13.6590 C.2   344  VAL344      0.2260
    136  O        -28.3370    6.8110   13.4560 O.2   344  VAL344     -0.2867
    137  CB       -26.4420    4.8110   11.6880 C.3   344  VAL344      0.0252
    138  CG1      -27.5280    5.3510   10.7690 C.3   344  VAL344      0.0019
    139  CG2      -25.1310    4.6620   10.9330 C.3   344  VAL344      0.0019
    140  N        -16.1580    2.6110   10.3710 N.3   363  TYR363     -0.1241
    141  CA       -16.1410    2.3450    8.9380 C.3   363  TYR363      0.1605
    142  C        -15.1550    1.2290    8.6070 C.2   363  TYR363      0.2264
    143  O        -15.4570    0.3330    7.8170 O.2   363  TYR363     -0.2867
    144  CB       -15.7830    3.6140    8.1610 C.3   363  TYR363      0.0534
    145  CG       -16.4590    3.7210    6.8130 C.ar  363  TYR363     -0.0201
    146  CD1      -17.7410    4.2420    6.6990 C.ar  363  TYR363     -0.0009
    147  CD2      -15.8170    3.3040    5.6550 C.ar  363  TYR363     -0.0009
    148  CE1      -18.3660    4.3430    5.4720 C.ar  363  TYR363      0.0417
    149  CE2      -16.4340    3.4020    4.4220 C.ar  363  TYR363      0.0417
    150  CZ       -17.7090    3.9220    4.3370 C.ar  363  TYR363      0.1957
    151  OH       -18.3280    4.0210    3.1130 O.3   363  TYR363     -0.2866
    152  N        -16.0310   -2.5600    9.6230 N.3   366  CYS366     -0.1221
    153  CA       -16.9030   -3.3160    8.7350 C.3   366  CYS366      0.1808
    154  C        -16.1170   -3.9110    7.5720 C.2   366  CYS366      0.2601
    155  O        -16.5070   -4.9310    7.0020 O.2   366  CYS366     -0.2717
    156  CB       -18.0280   -2.4260    8.2120 C.3   366  CYS366      0.0970
    157  SG       -18.9800   -1.6020    9.5080 S.3   366  CYS366     -0.0800
    158  N        -15.0090   -3.2640    7.2270 N.am  367  TYR367     -0.1976
    159  CA       -14.1450   -3.7310    6.1500 C.3   367  TYR367      0.1639
    160  C        -13.5140   -5.0820    6.4710 C.2   367  TYR367      0.2290
    161  O        -13.3690   -5.9320    5.5920 O.2   367  TYR367     -0.2864
    162  CB       -13.0450   -2.7050    5.8620 C.3   367  TYR367      0.0560
    163  CG       -13.4620   -1.5800    4.9420 C.ar  367  TYR367     -0.0198
    164  CD1      -14.6460   -1.6460    4.2200 C.ar  367  TYR367     -0.0009
    165  CD2      -12.6610   -0.4550    4.7840 C.ar  367  TYR367     -0.0009
    166  CE1      -15.0240   -0.6210    3.3730 C.ar  367  TYR367      0.0417
    167  CE2      -13.0310    0.5740    3.9410 C.ar  367  TYR367      0.0417
    168  CZ       -14.2140    0.4870    3.2380 C.ar  367  TYR367      0.1957
    169  OH       -14.5860    1.5110    2.3970 O.3   367  TYR367     -0.2866
@<TRIPOS>BOND
     1    52    53    2
     2    52    51    1
     3    50    51    1
     4    51    54    1
     5    54    55    1
     6     9    10    1
     7    55    56   ar
     8    55    57   ar
     9    56    58   ar
    10     1     2    1
    11    19    20    2
    12    19    18    1
    13    57    60   ar
    14    57    59   ar
    15    42    40   am
    16    17    18    1
    17    17    11   am
    18    10    11    1
    19    10    13    1
    20    58    59   ar
    21    60    62   ar
    22    21    18    1
    23    21    22    1
    24    11    12    2
    25    39    40    1
    26    39    36    1
    27     2     3    1
    28     2     5    1
    29    37    38    2
    30    37    36    1
    31    59    61   ar
    32    40    41    2
    33    13    14    1
    34    29    30    1
    35     3     4    2
    36    36    35    1
    37    35    31   am
    38     6     5    1
    39     6     8    1
    40    62    63   ar
    41    22    23   ar
    42    22    24   ar
    43     5     7    1
    44    23    25   ar
    45    61    63   ar
    46    14    15   ar
    47    14    16   ar
    48    30    31    1
    49    30    33    1
    50    24    26   ar
    51    31    32    2
    52    34    33    1
    53    25    27   ar
    54    26    27   ar
    55    43    44    1
    56    45    46    2
    57    45    44    1
    58    27    28    1
    59   169   168    1
    60    49    47    1
    61    44    47    1
    62   151   150    1
    63   168   166   ar
    64   168   167   ar
    65   166   164   ar
    66    47    48    1
    67    76    75    1
    68    77    75    1
    69   167   165   ar
    70   164   163   ar
    71   150   149   ar
    72   150   148   ar
    73   149   147   ar
    74    75    72    1
    75    87    84    1
    76   165   163   ar
    77   112   110   ar
    78   112   111   ar
    79   163   162    1
    80    72    71    1
    81    72    73    1
    82   110   108   ar
    83    84    83    1
    84    84    85    1
    85   148   146   ar
    86   161   160    2
    87   147   145   ar
    88   111   109   ar
    89    74    73    2
    90   162   159    1
    91    86    85    2
    92    73    78   am
    93   159   160    1
    94   159   158    1
    95    85    88   am
    96    69    68    1
    97    64    65    1
    98   108   107   ar
    99   108   106   ar
   100   146   145   ar
   101    65    68    1
   102    65    66    1
   103   145   144    1
   104   155   154    2
   105   109   106   ar
   106   158   154   am
   107    68    70    1
   108    78    79    1
   109   107   105   ar
   110   106   104   ar
   111   154   153    1
   112    88    89    1
   113    67    66    2
   114   124   123    1
   115   143   142    2
   116   144   141    1
   117   156   153    1
   118   156   157    1
   119    79    80    1
   120    79    82    1
   121   123   122   ar
   122   123   121   ar
   123   142   141    1
   124    89    92    1
   125    89    90    1
   126    80    81    2
   127   105   104   ar
   128   153   152    1
   129   122   120   ar
   130   104   103    1
   131   141   140    1
   132    92    93    1
   133   121   119   ar
   134    90    91    2
   135   120   118   ar
   136    94    93   ar
   137    94    96   ar
   138   103   100    1
   139   119   118   ar
   140   131   130    2
   141    93    95   ar
   142   118   117    1
   143   132   130   am
   144   138   137    1
   145   139   137    1
   146   130   129    1
   147    96    98   ar
   148   100    99    1
   149   100   101    1
   150   117   114    1
   151    95    97   ar
   152   137   134    1
   153   102   101    2
   154   129   126    1
   155    98    97   ar
   156   126   125    1
   157   126   127    1
   158   125   115   am
   159   134   135    1
   160   134   133    1
   161   114   115    1
   162   114   113    1
   163   115   116    2
   164   136   135    2
   165   127   128    2
