@<TRIPOS>MOLECULE
tmp/4u1bA00.pdb
 173 169 0 0 0
SMALL
GASTEIGER

@<TRIPOS>ATOM
      1  N         28.8360   -7.5400    9.4220 N.3   103  PRO103     -0.2116
      2  CA        27.7040   -8.4450    9.4120 C.3   103  PRO103      0.1372
      3  C         28.1230   -9.8960    9.4960 C.2   103  PRO103      0.2244
      4  O         27.3540  -10.7580    9.8980 O.2   103  PRO103     -0.2868
      5  CB        27.0830   -8.1500    8.0290 C.3   103  PRO103      0.0268
      6  CG        27.3290   -6.6370    7.8760 C.3   103  PRO103      0.0207
      7  CD        28.7910   -6.6580    8.2260 C.3   103  PRO103      0.0892
      8  N         27.7910  -12.0370   12.5290 N.3   106  TYR106     -0.1241
      9  CA        27.0370  -11.3560   13.5630 C.3   106  TYR106      0.1605
     10  C         25.7590  -12.1610   13.8860 C.2   106  TYR106      0.2264
     11  O         24.8290  -12.2540   13.0870 O.2   106  TYR106     -0.2867
     12  CB        26.7060   -9.9150   13.2100 C.3   106  TYR106      0.0534
     13  CG        26.1330   -9.0810   14.3140 C.ar  106  TYR106     -0.0201
     14  CD1       26.8990   -8.7290   15.4090 C.ar  106  TYR106     -0.0009
     15  CD2       24.8250   -8.6330   14.2710 C.ar  106  TYR106     -0.0009
     16  CE1       26.3910   -7.9490   16.4280 C.ar  106  TYR106      0.0417
     17  CE2       24.3460   -7.8360   15.2660 C.ar  106  TYR106      0.0417
     18  CZ        25.1350   -7.5040   16.3420 C.ar  106  TYR106      0.1957
     19  OH        24.6130   -6.6880   17.3160 O.3   106  TYR106     -0.2866
     20  N         24.8180  -14.4200   11.1440 N.3   109  PHE109     -0.1241
     21  CA        24.5290  -13.9290    9.7450 C.3   109  PHE109      0.1605
     22  C         25.6040  -14.4380    8.7970 C.2   109  PHE109      0.2264
     23  O         26.7670  -14.3680    9.1110 O.2   109  PHE109     -0.2867
     24  CB        24.4690  -12.4240    9.7470 C.3   109  PHE109      0.0534
     25  CG        23.9870  -11.8370    8.4690 C.ar  109  PHE109     -0.0203
     26  CD1       22.6070  -11.8140    8.1770 C.ar  109  PHE109     -0.0042
     27  CD2       24.8750  -11.3460    7.5110 C.ar  109  PHE109     -0.0042
     28  CE1       22.1620  -11.3090    6.9950 C.ar  109  PHE109     -0.0003
     29  CE2       24.4260  -10.8520    6.2860 C.ar  109  PHE109     -0.0003
     30  CZ        23.0380  -10.8050    6.0470 C.ar  109  PHE109     -0.0000
     31  N         23.9340   -6.8300    3.9320 N.3   114  CYS114     -0.1235
     32  CA        22.5360   -7.2050    3.7590 C.3   114  CYS114      0.1677
     33  C         22.0100   -6.5710    2.4300 C.2   114  CYS114      0.2270
     34  O         22.2170   -5.3980    2.1460 O.2   114  CYS114     -0.2867
     35  CB        21.6700   -6.7410    4.8890 C.3   114  CYS114      0.0956
     36  SG        22.1840   -7.2250    6.5600 S.3   114  CYS114     -0.0801
     37  N         14.4620   -5.4320    5.5750 N.3   122  CYS122     -0.1221
     38  CA        15.8730   -5.3380    5.9560 C.3   122  CYS122      0.1808
     39  C         16.4210   -6.7190    6.2220 C.2   122  CYS122      0.2601
     40  O         15.6830   -7.6870    6.2920 O.2   122  CYS122     -0.2717
     41  CB        16.0130   -4.4140    7.1640 C.3   122  CYS122      0.0970
     42  SG        15.3040   -5.1150    8.6940 S.3   122  CYS122     -0.0800
     43  N         17.7580   -6.7930    6.3050 N.am  123  HIS123     -0.1975
     44  CA        18.4640   -8.0060    6.6510 C.3   123  HIS123      0.1656
     45  C         18.3830   -9.1210    5.6680 C.2   123  HIS123      0.2291
     46  O         18.4860  -10.2890    6.0100 O.2   123  HIS123     -0.2864
     47  CB        18.0260   -8.4580    8.0320 C.3   123  HIS123      0.0771
     48  CG        18.1810   -7.3880    9.0440 C.ar  123  HIS123      0.0820
     49  ND1       17.6920   -7.5090   10.3220 N.ar  123  HIS123     -0.2267
     50  CD2       18.8610   -6.2040    9.0050 C.ar  123  HIS123      0.1154
     51  CE1       18.0100   -6.4270   11.0100 C.ar  123  HIS123      0.1986
     52  NE2       18.7390   -5.6310   10.2430 N.ar  123  HIS123     -0.2212
     53  N         23.0700   -2.6860    2.7190 N.3   140  ASP140     -0.1225
     54  CA        23.3950   -2.2100    4.0790 C.3   140  ASP140      0.1805
     55  C         24.8180   -2.7530    4.4510 C.2   140  ASP140      0.2598
     56  O         25.0950   -3.9510    4.3900 O.2   140  ASP140     -0.2718
     57  CB        22.3200   -2.6630    5.0340 C.3   140  ASP140      0.1424
     58  CG        22.4600   -2.0060    6.4250 C.2   140  ASP140      0.3668
     59  OD1       23.5120   -1.6110    6.7700 O.co2 140  ASP140     -0.2456
     60  OD2       21.5210   -1.9360    7.1610 O.co2 140  ASP140     -0.2456
     61  N         25.6850   -1.8100    4.6780 N.am  141  ILE141     -0.1966
     62  CA        27.1000   -2.0020    4.8500 C.3   141  ILE141      0.1727
     63  C         27.4190   -1.6780    6.2780 C.2   141  ILE141      0.2616
     64  O         26.9960   -0.6370    6.7500 O.2   141  ILE141     -0.2715
     65  CB        27.8950   -1.0340    3.9460 C.3   141  ILE141      0.0290
     66  CG1       27.6620   -1.3560    2.4440 C.3   141  ILE141      0.0022
     67  CG2       29.4130   -1.0150    4.2590 C.3   141  ILE141      0.0023
     68  CD1       27.8920   -2.7860    2.0790 C.3   141  ILE141      0.0001
     69  N         28.2180   -2.5300    6.9420 N.am  142  THR142     -0.1951
     70  CA        28.8820   -2.0680    8.1680 C.3   142  THR142      0.1897
     71  C         30.3140   -2.6330    8.1650 C.2   142  THR142      0.2313
     72  O         30.5440   -3.7800    7.7970 O.2   142  THR142     -0.2863
     73  CB        28.1300   -2.6460    9.4150 C.3   142  THR142      0.1794
     74  OG1       26.7650   -2.2180    9.3850 O.3   142  THR142     -0.2208
     75  CG2       28.7090   -2.0470   10.6040 C.3   142  THR142      0.0378
     76  N         28.1230    2.2170    9.9830 N.3   151  ASP151     -0.1239
     77  CA        26.9110    1.5370    9.4280 C.3   151  ASP151      0.1674
     78  C         26.1180    2.5050    8.5550 C.2   151  ASP151      0.2266
     79  O         25.8880    3.6220    8.9410 O.2   151  ASP151     -0.2867
     80  CB        26.1310    1.0910   10.6560 C.3   151  ASP151      0.1410
     81  CG        24.9260    0.2350   10.3750 C.2   151  ASP151      0.3668
     82  OD1       24.6800   -0.2050    9.2280 O.co2 151  ASP151     -0.2456
     83  OD2       24.2070   -0.0930   11.3420 O.co2 151  ASP151     -0.2456
     84  N         11.9670   -2.7020   13.8340 N.3   211  TYR211     -0.1227
     85  CA        13.3720   -2.4420   13.7520 C.3   211  TYR211      0.1736
     86  C         13.6230   -0.9560   13.9800 C.2   211  TYR211      0.2595
     87  O         12.9090   -0.1440   13.4540 O.2   211  TYR211     -0.2718
     88  CB        13.9240   -2.9170   12.3910 C.3   211  TYR211      0.0548
     89  CG        13.7860   -4.4240   12.2220 C.ar  211  TYR211     -0.0200
     90  CD1       14.7640   -5.2720   12.6780 C.ar  211  TYR211     -0.0009
     91  CD2       12.6660   -4.9710   11.5860 C.ar  211  TYR211     -0.0009
     92  CE1       14.6420   -6.6220   12.5260 C.ar  211  TYR211      0.0417
     93  CE2       12.5380   -6.3430   11.4430 C.ar  211  TYR211      0.0417
     94  CZ        13.5210   -7.1330   11.9130 C.ar  211  TYR211      0.1957
     95  OH        13.3700   -8.4630   11.7610 O.3   211  TYR211     -0.2866
     96  N         14.7170   -0.6580   14.6740 N.am  212  CYS212     -0.1970
     97  CA        15.0450    0.6610   15.1330 C.3   212  CYS212      0.1712
     98  C         16.4660    1.0610   14.7790 C.2   212  CYS212      0.2296
     99  O         17.3690    0.2010   14.6110 O.2   212  CYS212     -0.2864
    100  CB        14.8850    0.7090   16.6620 C.3   212  CYS212      0.0983
    101  SG        13.1410    0.3780   17.0890 S.3   212  CYS212     -0.0798
    102  N         20.0060    2.8350   16.2170 N.3   214  HIS214     -0.1241
    103  CA        20.7320    2.3700   17.3930 C.3   214  HIS214      0.1621
    104  C         22.0710    3.0470   17.6100 C.2   214  HIS214      0.2264
    105  O         22.7340    3.5190   16.6900 O.2   214  HIS214     -0.2867
    106  CB        21.0750    0.9040   17.1750 C.3   214  HIS214      0.0745
    107  CG        21.8040    0.6400   15.8790 C.ar  214  HIS214      0.0817
    108  ND1       23.1880    0.5930   15.7630 N.ar  214  HIS214     -0.2268
    109  CD2       21.3140    0.3860   14.6410 C.ar  214  HIS214      0.1154
    110  CE1       23.5020    0.3380   14.4990 C.ar  214  HIS214      0.1986
    111  NE2       22.3650    0.2080   13.8160 N.ar  214  HIS214     -0.2212
    112  N         28.4260   -2.8170   17.8610 N.3   220  PHE220     -0.1227
    113  CA        27.6290   -2.6620   16.5910 C.3   220  PHE220      0.1736
    114  C         26.2520   -2.1180   16.9120 C.2   220  PHE220      0.2595
    115  O         25.7810   -1.1800   16.2430 O.2   220  PHE220     -0.2718
    116  CB        27.5660   -4.0440   15.9740 C.3   220  PHE220      0.0547
    117  CG        27.0610   -4.1260   14.5570 C.ar  220  PHE220     -0.0202
    118  CD1       26.4680   -3.0390   13.8660 C.ar  220  PHE220     -0.0042
    119  CD2       27.1710   -5.3560   13.8860 C.ar  220  PHE220     -0.0042
    120  CE1       26.0320   -3.2370   12.5510 C.ar  220  PHE220     -0.0003
    121  CE2       26.7320   -5.5200   12.5860 C.ar  220  PHE220     -0.0003
    122  CZ        26.1600   -4.4590   11.9390 C.ar  220  PHE220     -0.0000
    123  N         25.5710   -2.6850   17.9320 N.am  221  HIS221     -0.1975
    124  CA        24.2830   -2.1950   18.3900 C.3   221  HIS221      0.1656
    125  C         24.3100   -1.9830   19.9140 C.2   221  HIS221      0.2291
    126  O         24.5990   -2.9220   20.6500 O.2   221  HIS221     -0.2864
    127  CB        23.1200   -3.1130   18.0890 C.3   221  HIS221      0.0771
    128  CG        22.9740   -3.3440   16.6380 C.ar  221  HIS221      0.0820
    129  ND1       23.6730   -4.3380   15.9990 N.ar  221  HIS221     -0.2267
    130  CD2       22.3410   -2.6350   15.6740 C.ar  221  HIS221      0.1154
    131  CE1       23.4560   -4.2510   14.6950 C.ar  221  HIS221      0.1986
    132  NE2       22.6330   -3.2390   14.4720 N.ar  221  HIS221     -0.2212
    133  N         17.5810    4.9360   10.6450 N.3   247  GLU247     -0.1245
    134  CA        17.4170    4.0570    9.4790 C.3   247  GLU247      0.1567
    135  C         15.9910    3.6730    9.1820 C.2   247  GLU247      0.2260
    136  O         15.6260    2.5180    9.2220 O.2   247  GLU247     -0.2867
    137  CB        18.3050    2.8770    9.5940 C.3   247  GLU247      0.0388
    138  CG        18.1150    1.9820   10.8140 C.3   247  GLU247      0.1160
    139  CD        19.1860    0.9210   10.9490 C.2   247  GLU247      0.3649
    140  OE1       19.8900    0.9010   11.9170 O.co2 247  GLU247     -0.2457
    141  OE2       19.4160    0.0870   10.0540 O.co2 247  GLU247     -0.2457
    142  N         16.6360  -14.3190    9.5330 N.3   264  TRP264     -0.1241
    143  CA        17.0950  -12.9810    9.2710 C.3   264  TRP264      0.1605
    144  C         16.1360  -12.1250    8.3730 C.2   264  TRP264      0.2264
    145  O         15.9460  -10.9680    8.6480 O.2   264  TRP264     -0.2867
    146  CB        18.4620  -13.0820    8.6640 C.3   264  TRP264      0.0550
    147  CG        19.5100  -13.2930    9.6790 C.ar  264  TRP264      0.0003
    148  CD1       20.2720  -14.4730    9.9510 C.ar  264  TRP264      0.0946
    149  CD2       19.9630  -12.3170   10.6390 C.ar  264  TRP264      0.0152
    150  NE1       21.1430  -14.2200   11.0010 N.ar  264  TRP264     -0.2442
    151  CE2       20.9930  -12.9210   11.4100 C.ar  264  TRP264      0.0810
    152  CE3       19.6430  -10.9740   10.8660 C.ar  264  TRP264      0.0012
    153  CZ2       21.6720  -12.2220   12.4130 C.ar  264  TRP264      0.0191
    154  CZ3       20.3080  -10.2860   11.8770 C.ar  264  TRP264      0.0001
    155  CH2       21.3340  -10.9050   12.6130 C.ar  264  TRP264      0.0015
    156  N         14.4740    1.7790    2.6320 N.3   276  GLN276     -0.1245
    157  CA        15.2340    2.2100    3.8060 C.3   276  GLN276      0.1566
    158  C         16.4700    3.0200    3.3990 C.2   276  GLN276      0.2260
    159  O         17.0290    2.8470    2.3290 O.2   276  GLN276     -0.2867
    160  CB        15.6540    0.9900    4.6020 C.3   276  GLN276      0.0367
    161  CG        16.4330    1.3060    5.8970 C.3   276  GLN276      0.0905
    162  CD        16.8740    0.0650    6.6130 C.2   276  GLN276      0.2608
    163  OE1       17.2120   -0.9760    5.9910 O.2   276  GLN276     -0.2717
    164  NE2       16.8460    0.1150    7.9490 N.am  276  GLN276     -0.0878
    165  N         20.0280    4.7360    5.6960 N.3   278  GLU278     -0.1245
    166  CA        20.6120    4.7560    7.0390 C.3   278  GLU278      0.1567
    167  C         21.8970    5.5840    6.9700 C.2   278  GLU278      0.2260
    168  O         22.6440    5.4590    6.0230 O.2   278  GLU278     -0.2867
    169  CB        20.9180    3.3490    7.4900 C.3   278  GLU278      0.0388
    170  CG        21.7600    3.2570    8.7800 C.3   278  GLU278      0.1160
    171  CD        22.0690    1.8990    9.2570 C.2   278  GLU278      0.3649
    172  OE1       22.2040    0.9570    8.4390 O.co2 278  GLU278     -0.2457
    173  OE2       22.2140    1.7310   10.4990 O.co2 278  GLU278     -0.2457
@<TRIPOS>BOND
     1    68    66    1
     2    34    33    2
     3   159   158    2
     4    33    32    1
     5    66    65    1
     6   156   157    1
     7    53    54    1
     8   158   157    1
     9    32    31    1
    10    32    35    1
    11   157   160    1
    12    65    67    1
    13    65    62    1
    14    54    55    1
    15    54    57    1
    16    56    55    2
    17    55    61   am
    18   160   161    1
    19    61    62    1
    20    62    63    1
    21    35    36    1
    22    57    58    1
    23    37    38    1
    24    45    46    2
    25    45    44    1
    26   165   166    1
    27   161   162    1
    28    38    39    1
    29    38    41    1
    30   163   162    2
    31   168   167    2
    32    30    29   ar
    33    30    28   ar
    34    39    40    2
    35    39    43   am
    36    63    64    2
    37    63    69   am
    38    29    27   ar
    39    43    44    1
    40    58    59   ar
    41    58    60   ar
    42   162   164   am
    43    44    47    1
    44    69    70    1
    45   167   166    1
    46    28    26   ar
    47   166   169    1
    48    41    42    1
    49   169   170    1
    50    27    25   ar
    51    72    71    2
    52     6     5    1
    53     6     7    1
    54     5     2    1
    55    47    48    1
    56    71    70    1
    57    70    73    1
    58    26    25   ar
    59     7     1    1
    60   144   145    2
    61   144   143    1
    62   172   171   ar
    63    25    24    1
    64    78    79    2
    65    78    77    1
    66   146   143    1
    67   146   147    1
    68   170   171    1
    69    22    23    2
    70    22    21    1
    71    50    48   ar
    72    50    52   ar
    73    48    49   ar
    74   135   136    2
    75   135   134    1
    76    82    81   ar
    77   171   173   ar
    78   143   142    1
    79    74    73    1
    80     2     1    1
    81     2     3    1
    82    73    75    1
    83    77    76    1
    84    77    80    1
    85   134   137    1
    86   134   133    1
    87     3     4    2
    88   137   138    1
    89   147   148   ar
    90   147   149   ar
    91    21    24    1
    92    21    20    1
    93   148   150   ar
    94   141   139   ar
    95    52    51   ar
    96    49    51   ar
    97    81    80    1
    98    81    83   ar
    99   149   152   ar
   100   149   151   ar
   101   138   139    1
   102   152   154   ar
   103   139   140   ar
   104   150   151   ar
   105   151   153   ar
   106    93    91   ar
   107    93    94   ar
   108    91    89   ar
   109    95    94    1
   110   154   155   ar
   111    94    92   ar
   112   122   120   ar
   113   122   121   ar
   114    89    88    1
   115    89    90   ar
   116    88    85    1
   117   153   155   ar
   118    92    90   ar
   119     8     9    1
   120   120   118   ar
   121   121   119   ar
   122    11    10    2
   123    12     9    1
   124    12    13    1
   125    87    86    2
   126     9    10    1
   127    85    84    1
   128    85    86    1
   129   111   110   ar
   130   111   109   ar
   131   118   117   ar
   132   119   117   ar
   133    86    96   am
   134    15    13   ar
   135    15    17   ar
   136    13    14   ar
   137   132   131   ar
   138   132   130   ar
   139   110   108   ar
   140   117   116    1
   141    99    98    2
   142   109   107   ar
   143    96    97    1
   144   131   129   ar
   145    98    97    1
   146    97   100    1
   147    17    18   ar
   148    14    16   ar
   149   130   128   ar
   150   108   107   ar
   151   107   106    1
   152   116   113    1
   153   129   128   ar
   154   102   103    1
   155   115   114    2
   156    18    16   ar
   157    18    19    1
   158   113   114    1
   159   113   112    1
   160   128   127    1
   161   100   101    1
   162   105   104    2
   163   114   123   am
   164   106   103    1
   165   103   104    1
   166   123   124    1
   167   127   124    1
   168   124   125    1
   169   125   126    2
