@<TRIPOS>MOLECULE
tmp/4u1pA00.pdb
 97 94 0 0 0
SMALL
GASTEIGER

@<TRIPOS>ATOM
      1  N         14.3750    2.5220   67.0310 N.3    60  HIS60      -0.1226
      2  CA        15.4430    3.3100   66.4280 C.3    60  HIS60       0.1752
      3  C         16.7770    2.8580   66.9720 C.2    60  HIS60       0.2596
      4  O         16.9380    2.7280   68.1930 O.2    60  HIS60      -0.2718
      5  CB        15.2380    4.7990   66.7290 C.3    60  HIS60       0.0759
      6  CG        13.8920    5.3140   66.3400 C.ar   60  HIS60       0.0818
      7  ND1       13.6240    5.8300   65.0900 N.ar   60  HIS60      -0.2268
      8  CD2       12.7370    5.3830   67.0390 C.ar   60  HIS60       0.1154
      9  CE1       12.3620    6.2250   65.0470 C.ar   60  HIS60       0.1986
     10  NE2       11.7990    5.9560   66.2130 N.ar   60  HIS60      -0.2212
     11  N         17.7360    2.6660   66.0740 N.am   61  TYR61      -0.1962
     12  CA        19.1080    2.2860   66.4180 C.3    61  TYR61       0.1771
     13  C         20.0700    3.3630   65.9680 C.2    61  TYR61       0.2619
     14  O         19.9200    3.9380   64.8620 O.2    61  TYR61      -0.2715
     15  CB        19.4940    0.9690   65.7280 C.3    61  TYR61       0.0574
     16  CG        18.7210   -0.2290   66.1700 C.ar   61  TYR61      -0.0198
     17  CD1       17.4090   -0.4660   65.7000 C.ar   61  TYR61      -0.0009
     18  CD2       19.2460   -1.1000   67.1040 C.ar   61  TYR61      -0.0009
     19  CE1       16.6860   -1.5620   66.1510 C.ar   61  TYR61       0.0417
     20  CE2       18.5250   -2.2150   67.5390 C.ar   61  TYR61       0.0417
     21  CZ        17.2500   -2.4230   67.0580 C.ar   61  TYR61       0.1957
     22  OH        16.5130   -3.5220   67.4660 O.3    61  TYR61      -0.2866
     23  N         21.0690    3.6590   66.7790 N.am   62  LYS62      -0.1977
     24  CA        22.1150    4.5930   66.3710 C.3    62  LYS62       0.1596
     25  C         23.1100    3.8850   65.4560 C.2    62  LYS62       0.2287
     26  O         23.6920    2.8410   65.8160 O.2    62  LYS62      -0.2864
     27  CB        22.8200    5.1570   67.6050 C.3    62  LYS62       0.0298
     28  CG        23.8430    6.2130   67.3010 C.3    62  LYS62       0.0038
     29  CD        23.8820    7.2750   68.4050 C.3    62  LYS62       0.0206
     30  CE        23.5750    6.6860   69.7750 C.3    62  LYS62       0.1093
     31  NZ        23.5250    7.7350   70.8440 N.3    62  LYS62      -0.1314
     32  N         26.5610    4.5290   64.3790 N.3    64  ARG64      -0.1245
     33  CA        27.7200    5.3350   64.7120 C.3    64  ARG64       0.1563
     34  C         28.6890    5.3850   63.5540 C.2    64  ARG64       0.2260
     35  O         28.7830    4.4470   62.7670 O.2    64  ARG64      -0.2867
     36  CB        28.4590    4.7710   65.9340 C.3    64  ARG64       0.0307
     37  CG        27.5780    4.4410   67.1240 C.3    64  ARG64       0.0489
     38  CD        27.7640    5.4030   68.2620 C.3    64  ARG64       0.2205
     39  NE        27.0820    4.9290   69.4620 N.pl3  64  ARG64      -0.0865
     40  CZ        26.8710    5.6700   70.5430 C.cat  64  ARG64       0.5346
     41  NH1       27.2820    6.9300   70.5720 N.pl3  64  ARG64       0.1354
     42  NH2       26.2410    5.1550   71.5910 N.pl3  64  ARG64       0.1354
     43  N         26.4480   -0.4110   64.2270 N.3    73  ILE73      -0.1231
     44  CA        25.4580   -0.3030   65.2900 C.3    73  ILE73       0.1692
     45  C         26.0190   -0.9670   66.5580 C.2    73  ILE73       0.2592
     46  O         25.9070   -0.4400   67.6640 O.2    73  ILE73      -0.2718
     47  CB        24.1510   -0.9310   64.8570 C.3    73  ILE73       0.0266
     48  CG1       23.5850   -0.1360   63.6910 C.3    73  ILE73       0.0019
     49  CG2       23.1300   -0.9620   66.0330 C.3    73  ILE73       0.0020
     50  CD1       22.3910   -0.8160   63.0220 C.3    73  ILE73       0.0001
     51  N         26.6510   -2.1350   66.4030 N.am   74  THR74      -0.1953
     52  CA        27.4200   -2.7620   67.4680 C.3    74  THR74       0.1897
     53  C         28.8700   -2.8340   66.9970 C.2    74  THR74       0.2313
     54  O         29.1580   -3.0250   65.8160 O.2    74  THR74      -0.2863
     55  CB        26.8130   -4.1430   67.8400 C.3    74  THR74       0.1794
     56  OG1       27.4140   -4.6230   69.0420 O.3    74  THR74      -0.2208
     57  CG2       27.0030   -5.1520   66.7250 C.3    74  THR74       0.0378
     58  N         31.1760   -4.8470   67.1170 N.3    76  ARG76      -0.1245
     59  CA        31.6900   -6.0780   66.5150 C.3    76  ARG76       0.1563
     60  C         31.1740   -6.3470   65.0920 C.2    76  ARG76       0.2260
     61  O         31.5370   -7.3490   64.4760 O.2    76  ARG76      -0.2867
     62  CB        31.3580   -7.2620   67.4100 C.3    76  ARG76       0.0307
     63  CG        32.1730   -7.2750   68.6960 C.3    76  ARG76       0.0489
     64  CD        31.8870   -8.5270   69.4770 C.3    76  ARG76       0.2205
     65  NE        31.9960   -9.7130   68.6310 N.pl3  76  ARG76      -0.0865
     66  CZ        33.0910  -10.4620   68.5300 C.cat  76  ARG76       0.5346
     67  NH1       34.1740  -10.1550   69.2310 N.pl3  76  ARG76       0.1354
     68  NH2       33.1040  -11.5210   67.7330 N.pl3  76  ARG76       0.1354
     69  N         22.1190   -6.4850   57.2090 N.3    89  TYR89      -0.1241
     70  CA        20.9640   -6.6490   58.1040 C.3    89  TYR89       0.1605
     71  C         19.6800   -6.9770   57.3350 C.2    89  TYR89       0.2264
     72  O         18.6940   -7.3610   57.9440 O.2    89  TYR89      -0.2867
     73  CB        20.7830   -5.3920   58.9790 C.3    89  TYR89       0.0534
     74  CG        21.8490   -5.2990   60.0620 C.ar   89  TYR89      -0.0201
     75  CD1       21.8800   -6.2020   61.1210 C.ar   89  TYR89      -0.0009
     76  CD2       22.8450   -4.3360   59.9900 C.ar   89  TYR89      -0.0009
     77  CE1       22.8640   -6.1360   62.1070 C.ar   89  TYR89       0.0417
     78  CE2       23.8230   -4.2560   60.9690 C.ar   89  TYR89       0.0417
     79  CZ        23.8230   -5.1360   62.0140 C.ar   89  TYR89       0.1957
     80  OH        24.8060   -5.0620   62.9820 O.3    89  TYR89      -0.2866
     81  N         20.7150  -10.4240   63.2120 N.3    94  ALA94      -0.1231
     82  CA        22.0040  -10.3250   63.8960 C.3    94  ALA94       0.1694
     83  C         21.9440   -9.3610   65.0690 C.2    94  ALA94       0.2593
     84  O         22.8200   -8.5180   65.2530 O.2    94  ALA94      -0.2718
     85  CB        23.1050   -9.9230   62.9130 C.3    94  ALA94       0.0304
     86  N         20.9030   -9.4770   65.8720 N.am   95  GLY95      -0.1942
     87  CA        20.7890   -8.6590   67.0590 C.3    95  GLY95       0.2014
     88  C         19.7620   -7.5500   66.9360 C.2    95  GLY95       0.2638
     89  O         19.2550   -7.0820   67.9530 O.2    95  GLY95      -0.2714
     90  N         19.4420   -7.1150   65.7180 N.am   96  LEU96      -0.1977
     91  CA        18.3120   -6.1950   65.5610 C.3    96  LEU96       0.1596
     92  C         16.9840   -6.8650   65.9250 C.2    96  LEU96       0.2287
     93  O         16.8850   -8.0870   66.0020 O.2    96  LEU96      -0.2864
     94  CB        18.2130   -5.6660   64.1220 C.3    96  LEU96       0.0297
     95  CG        19.4100   -4.8970   63.5680 C.3    96  LEU96       0.0022
     96  CD1       19.0760   -4.4840   62.1540 C.3    96  LEU96       0.0001
     97  CD2       19.7210   -3.6560   64.4260 C.3    96  LEU96       0.0001
@<TRIPOS>BOND
     1    69    70    1
     2    71    72    2
     3    71    70    1
     4    70    73    1
     5    73    74    1
     6    76    74   ar
     7    76    78   ar
     8    74    75   ar
     9    78    79   ar
    10    75    77   ar
    11    79    77   ar
    12    79    80    1
    13    96    95    1
    14    35    34    2
    15    85    82    1
    16    50    48    1
    17    81    82    1
    18    34    33    1
    19    95    94    1
    20    95    97    1
    21    48    47    1
    22    82    83    1
    23    94    91    1
    24    43    44    1
    25    32    33    1
    26    61    60    2
    27    33    36    1
    28    47    44    1
    29    47    49    1
    30    14    13    2
    31     9     7   ar
    32     9    10   ar
    33    83    84    2
    34    83    86   am
    35     7     6   ar
    36    60    59    1
    37    44    45    1
    38    25    26    2
    39    25    24    1
    40    91    90    1
    41    91    92    1
    42    17    19   ar
    43    17    16   ar
    44    90    88   am
    45    15    16    1
    46    15    12    1
    47    54    53    2
    48    86    87    1
    49    92    93    2
    50    36    37    1
    51    13    12    1
    52    13    23   am
    53    11    12    1
    54    11     3   am
    55    19    21   ar
    56    16    18   ar
    57    10     8   ar
    58     6     5    1
    59     6     8   ar
    60    24    23    1
    61    24    27    1
    62    51    45   am
    63    51    52    1
    64     2     5    1
    65     2     3    1
    66     2     1    1
    67    59    58    1
    68    59    62    1
    69    45    46    2
    70    57    55    1
    71    88    87    1
    72    88    89    2
    73     3     4    2
    74    53    52    1
    75    21    22    1
    76    21    20   ar
    77    18    20   ar
    78    37    38    1
    79    28    27    1
    80    28    29    1
    81    62    63    1
    82    52    55    1
    83    68    66    1
    84    55    56    1
    85    38    39    1
    86    29    30    1
    87    66    65    2
    88    66    67    1
    89    65    64    1
    90    63    64    1
    91    39    40    2
    92    30    31    1
    93    40    41    1
    94    40    42    1
