@<TRIPOS>MOLECULE
tmp/4u1qC01.pdb
 197 192 0 0 0
SMALL
GASTEIGER

@<TRIPOS>ATOM
      1  N          8.2540  -12.5730  -11.3540 N.3   129  ASP129     -0.1239
      2  CA         7.3820  -11.5890  -10.7210 C.3   129  ASP129      0.1674
      3  C          8.1890  -10.7760   -9.7240 C.2   129  ASP129      0.2266
      4  O          9.1330  -11.2910   -9.1200 O.2   129  ASP129     -0.2867
      5  CB         6.2010  -12.2600  -10.0100 C.3   129  ASP129      0.1410
      6  CG         6.6300  -12.9560   -8.7190 C.2   129  ASP129      0.3668
      7  OD1        7.1610  -14.0910   -8.7780 O.co2 129  ASP129     -0.2456
      8  OD2        6.4710  -12.3500   -7.6510 O.co2 129  ASP129     -0.2456
      9  N          7.6050   -9.6050   -6.6870 N.3   131  TYR131     -0.1241
     10  CA         7.5020   -9.8520   -5.2480 C.3   131  TYR131      0.1605
     11  C          8.4650  -10.9410   -4.8010 C.2   131  TYR131      0.2264
     12  O          9.0430  -10.8330   -3.7250 O.2   131  TYR131     -0.2867
     13  CB         6.0430  -10.1830   -4.8850 C.3   131  TYR131      0.0534
     14  CG         5.1450   -9.2120   -5.6260 C.ar  131  TYR131     -0.0201
     15  CD1        5.0300   -7.8890   -5.2000 C.ar  131  TYR131     -0.0009
     16  CD2        4.5130   -9.5790   -6.8090 C.ar  131  TYR131     -0.0009
     17  CE1        4.2630   -6.9770   -5.9000 C.ar  131  TYR131      0.0417
     18  CE2        3.7340   -8.6660   -7.5210 C.ar  131  TYR131      0.0417
     19  CZ         3.6220   -7.3730   -7.0620 C.ar  131  TYR131      0.1957
     20  OH         2.8580   -6.4600   -7.7490 O.3   131  TYR131     -0.2866
     21  N          9.7290   -1.5640   -0.5660 N.3   144  PHE144     -0.1227
     22  CA         8.5190   -1.8300   -1.3180 C.3   144  PHE144      0.1736
     23  C          7.2890   -1.5900   -0.4450 C.2   144  PHE144      0.2595
     24  O          6.4030   -0.8360   -0.8300 O.2   144  PHE144     -0.2718
     25  CB         8.4940   -3.2580   -1.8590 C.3   144  PHE144      0.0547
     26  CG         7.1990   -3.6050   -2.5660 C.ar  144  PHE144     -0.0202
     27  CD1        6.9790   -3.1900   -3.8730 C.ar  144  PHE144     -0.0042
     28  CD2        6.2010   -4.3150   -1.9150 C.ar  144  PHE144     -0.0042
     29  CE1        5.7990   -3.4970   -4.5280 C.ar  144  PHE144     -0.0003
     30  CE2        5.0050   -4.6210   -2.5630 C.ar  144  PHE144     -0.0003
     31  CZ         4.8070   -4.2120   -3.8690 C.ar  144  PHE144     -0.0000
     32  N          7.2460   -2.2100    0.7360 N.am  145  TYR145     -0.1976
     33  CA         6.0420   -2.1260    1.5540 C.3   145  TYR145      0.1639
     34  C          5.8660   -0.7400    2.1700 C.2   145  TYR145      0.2290
     35  O          4.7350   -0.3510    2.4310 O.2   145  TYR145     -0.2864
     36  CB         6.0210   -3.2430    2.6320 C.3   145  TYR145      0.0560
     37  CG         5.7070   -4.5550    1.9670 C.ar  145  TYR145     -0.0198
     38  CD1        4.4540   -4.7710    1.3990 C.ar  145  TYR145     -0.0009
     39  CD2        6.6780   -5.5450    1.8170 C.ar  145  TYR145     -0.0009
     40  CE1        4.1630   -5.9390    0.7150 C.ar  145  TYR145      0.0417
     41  CE2        6.3890   -6.7360    1.1270 C.ar  145  TYR145      0.0417
     42  CZ         5.1260   -6.9180    0.5870 C.ar  145  TYR145      0.1957
     43  OH         4.8200   -8.0690   -0.0910 O.3   145  TYR145     -0.2866
     44  N          4.0190    0.6060   -0.8530 N.3   148  MET148     -0.1245
     45  CA         2.7240   -0.0510   -0.9810 C.3   148  MET148      0.1570
     46  C          1.7660    0.3420    0.1690 C.2   148  MET148      0.2261
     47  O          0.5610    0.5480   -0.0430 O.2   148  MET148     -0.2867
     48  CB         2.9220   -1.5630   -1.0390 C.3   148  MET148      0.0387
     49  CG         1.7200   -2.3370   -1.5540 C.3   148  MET148      0.0595
     50  SD         1.2140   -1.8670   -3.2290 S.3   148  MET148     -0.1393
     51  CE        -0.4170   -1.1900   -2.8750 C.3   148  MET148      0.0692
     52  N         -1.8430    2.1780   -0.4650 N.3   152  SER152     -0.1217
     53  CA        -3.0600    1.6540    0.1420 C.3   152  SER152      0.1889
     54  C         -3.7270    2.7030    1.0450 C.2   152  SER152      0.2288
     55  O         -4.9440    2.8490    1.0210 O.2   152  SER152     -0.2866
     56  CB        -2.7590    0.3800    0.9320 C.3   152  SER152      0.2089
     57  OG        -2.8210   -0.7550    0.0950 O.3   152  SER152     -0.2183
     58  N         -7.4640  -11.7840    3.8430 N.3   173  ASP173     -0.1239
     59  CA        -6.7950  -10.7270    3.1070 C.3   173  ASP173      0.1674
     60  C         -5.7500  -11.4000    2.2070 C.2   173  ASP173      0.2266
     61  O         -4.6330  -11.6690    2.6550 O.2   173  ASP173     -0.2867
     62  CB        -6.1720   -9.7450    4.1150 C.3   173  ASP173      0.1410
     63  CG        -5.6300   -8.4630    3.4790 C.2   173  ASP173      0.3668
     64  OD1       -5.8540   -8.1940    2.2700 O.co2 173  ASP173     -0.2456
     65  OD2       -4.9970   -7.7020    4.2400 O.co2 173  ASP173     -0.2456
     66  N         -2.9500  -12.0980   -0.2780 N.3   175  GLY175     -0.1210
     67  CA        -1.8050  -11.2750   -0.6510 C.3   175  GLY175      0.1956
     68  C         -1.8910   -9.9090    0.0200 C.2   175  GLY175      0.2612
     69  O         -1.7410   -8.8730   -0.6290 O.2   175  GLY175     -0.2717
     70  N         -2.1530   -9.9080    1.3280 N.am  176  GLY176     -0.1942
     71  CA        -2.4150   -8.6790    2.0630 C.3   176  GLY176      0.2014
     72  C         -1.1720   -7.9100    2.4840 C.2   176  GLY176      0.2639
     73  O         -1.2570   -6.9470    3.2610 O.2   176  GLY176     -0.2714
     74  N         -0.0170   -8.3270    1.9730 N.am  177  GLY177     -0.1939
     75  CA         1.2100   -7.5620    2.1310 C.3   177  GLY177      0.2014
     76  C          1.6410   -7.2760    3.5590 C.2   177  GLY177      0.2638
     77  O          1.8120   -8.1920    4.3660 O.2   177  GLY177     -0.2714
     78  N          1.8220   -5.9960    3.8720 N.am  178  ASP178     -0.1971
     79  CA         2.2880   -5.6040    5.1920 C.3   178  ASP178      0.1709
     80  C          1.1150   -5.3470    6.1470 C.2   178  ASP178      0.2293
     81  O          1.2800   -4.6580    7.1450 O.2   178  ASP178     -0.2864
     82  CB         3.1880   -4.3520    5.0900 C.3   178  ASP178      0.1436
     83  CG         2.3940   -3.0400    5.0880 C.2   178  ASP178      0.3671
     84  OD1        1.2950   -2.9940    4.4830 O.co2 178  ASP178     -0.2456
     85  OD2        2.8660   -2.0600    5.7160 O.co2 178  ASP178     -0.2456
     86  N         -1.3900   -3.4300    5.8910 N.3   180  VAL180     -0.1231
     87  CA        -1.8850   -2.0460    5.9300 C.3   180  VAL180      0.1692
     88  C         -3.4210   -1.9850    5.9360 C.2   180  VAL180      0.2592
     89  O         -4.0200   -1.2800    6.7490 O.2   180  VAL180     -0.2718
     90  CB        -1.3490   -1.1940    4.7250 C.3   180  VAL180      0.0266
     91  CG1       -1.5680   -1.9130    3.3950 C.3   180  VAL180      0.0020
     92  CG2       -2.0000    0.1860    4.7080 C.3   180  VAL180      0.0020
     93  N         -4.0580   -2.7410    5.0470 N.am  181  ASN181     -0.1974
     94  CA        -5.5120   -2.6930    4.9380 C.3   181  ASN181      0.1688
     95  C         -6.2050   -3.5370    6.0150 C.2   181  ASN181      0.2292
     96  O         -7.2950   -3.1960    6.4760 O.2   181  ASN181     -0.2864
     97  CB        -5.9430   -3.1290    3.5370 C.3   181  ASN181      0.1181
     98  CG        -5.4360   -2.1730    2.4510 C.2   181  ASN181      0.2629
     99  OD1       -5.5050   -0.9530    2.6050 O.2   181  ASN181     -0.2716
    100  ND2       -4.9000   -2.7290    1.3670 N.am  181  ASN181     -0.0877
    101  N          0.1060  -14.0960    2.7740 N.3   198  ASP198     -0.1225
    102  CA         1.1230  -13.5830    1.8490 C.3   198  ASP198      0.1805
    103  C          2.3730  -14.4560    1.9060 C.2   198  ASP198      0.2597
    104  O          2.3560  -15.5330    2.5120 O.2   198  ASP198     -0.2718
    105  CB         1.4800  -12.1220    2.1750 C.3   198  ASP198      0.1424
    106  CG         1.8610  -11.3080    0.9210 C.2   198  ASP198      0.3668
    107  OD1        2.9290  -11.5670    0.3380 O.co2 198  ASP198     -0.2456
    108  OD2        1.0950  -10.4080    0.5250 O.co2 198  ASP198     -0.2456
    109  N          3.4480  -13.9960    1.2690 N.am  199  ARG199     -0.1979
    110  CA         4.7360  -14.6870    1.3240 C.3   199  ARG199      0.1597
    111  C          5.3600  -14.4600    2.6970 C.2   199  ARG199      0.2287
    112  O          5.0910  -13.4380    3.3240 O.2   199  ARG199     -0.2864
    113  CB         5.6920  -14.1860    0.2230 C.3   199  ARG199      0.0334
    114  CG         5.1030  -14.0930   -1.1990 C.3   199  ARG199      0.0492
    115  CD         5.6530  -12.8420   -1.9390 C.3   199  ARG199      0.2205
    116  NE         6.9950  -12.6160   -1.4730 N.pl3 199  ARG199     -0.0865
    117  CZ         7.4670  -11.5350   -0.8640 C.cat 199  ARG199      0.5346
    118  NH1        6.7550  -10.4310   -0.6870 N.pl3 199  ARG199      0.1354
    119  NH2        8.7180  -11.5740   -0.4660 N.pl3 199  ARG199      0.1354
    120  N          1.3570  -18.4040    2.7800 N.3   224  ALA224     -0.1231
    121  CA         0.8110  -19.2280    1.7140 C.3   224  ALA224      0.1694
    122  C          1.1220  -18.6360    0.3400 C.2   224  ALA224      0.2592
    123  O          1.3030  -17.4250    0.2010 O.2   224  ALA224     -0.2718
    124  CB        -0.6910  -19.3820    1.8960 C.3   224  ALA224      0.0304
    125  N          1.1860  -19.5000   -0.6640 N.am  225  ASP225     -0.1960
    126  CA         1.2010  -19.0660   -2.0490 C.3   225  ASP225      0.1840
    127  C         -0.2400  -18.9110   -2.5230 C.2   225  ASP225      0.2622
    128  O         -1.0430  -19.8260   -2.3650 O.2   225  ASP225     -0.2715
    129  CB         1.9480  -20.0630   -2.9290 C.3   225  ASP225      0.1450
    130  CG         2.0830  -19.5810   -4.3580 C.2   225  ASP225      0.3671
    131  OD1        1.1530  -19.8200   -5.1640 O.co2 225  ASP225     -0.2456
    132  OD2        3.1120  -18.9340   -4.6550 O.co2 225  ASP225     -0.2456
    133  N         -0.5690  -17.7610   -3.1070 N.am  226  ILE226     -0.1963
    134  CA        -1.9590  -17.4870   -3.4760 C.3   226  ILE226      0.1727
    135  C         -2.4870  -18.4060   -4.5730 C.2   226  ILE226      0.2616
    136  O         -3.6980  -18.5440   -4.7270 O.2   226  ILE226     -0.2715
    137  CB        -2.1630  -16.0200   -3.9270 C.3   226  ILE226      0.0290
    138  CG1       -1.3460  -15.7080   -5.1940 C.3   226  ILE226      0.0022
    139  CG2       -1.8310  -15.0690   -2.7830 C.3   226  ILE226      0.0023
    140  CD1       -1.5550  -14.2870   -5.7200 C.3   226  ILE226      0.0001
    141  N         -1.5990  -19.0420   -5.3300 N.am  227  PHE227     -0.1974
    142  CA        -2.0550  -19.9660   -6.3680 C.3   227  PHE227      0.1639
    143  C         -1.9950  -21.4450   -5.9460 C.2   227  PHE227      0.2290
    144  O         -2.9560  -22.1940   -6.1630 O.2   227  PHE227     -0.2864
    145  CB        -1.2480  -19.7700   -7.6670 C.3   227  PHE227      0.0560
    146  CG        -1.5560  -18.4750   -8.3860 C.ar  227  PHE227     -0.0200
    147  CD1       -2.7040  -18.3500   -9.1560 C.ar  227  PHE227     -0.0042
    148  CD2       -0.6970  -17.3890   -8.2920 C.ar  227  PHE227     -0.0042
    149  CE1       -2.9950  -17.1580   -9.8250 C.ar  227  PHE227     -0.0003
    150  CE2       -0.9810  -16.1960   -8.9560 C.ar  227  PHE227     -0.0003
    151  CZ        -2.1300  -16.0830   -9.7200 C.ar  227  PHE227     -0.0000
    152  N         -7.0330   -7.1850   -2.2780 N.3   241  ALA241     -0.1231
    153  CA        -6.6560   -5.7730   -2.2860 C.3   241  ALA241      0.1694
    154  C         -5.3580   -5.5570   -3.0750 C.2   241  ALA241      0.2592
    155  O         -4.3130   -6.1420   -2.7510 O.2   241  ALA241     -0.2718
    156  CB        -6.5170   -5.2540   -0.8780 C.3   241  ALA241      0.0304
    157  N         -5.4420   -4.7260   -4.1160 N.am  242  HIS242     -0.1962
    158  CA        -4.3030   -4.4480   -4.9970 C.3   242  HIS242      0.1787
    159  C         -3.6180   -5.7430   -5.4260 C.2   242  HIS242      0.2620
    160  O         -2.4000   -5.9240   -5.2720 O.2   242  HIS242     -0.2715
    161  CB        -3.3400   -3.4810   -4.3010 C.3   242  HIS242      0.0785
    162  CG        -3.8760   -2.0840   -4.2400 C.ar  242  HIS242      0.0821
    163  ND1       -4.0540   -1.3980   -3.0580 N.ar  242  HIS242     -0.2267
    164  CD2       -4.3210   -1.2640   -5.2220 C.ar  242  HIS242      0.1154
    165  CE1       -4.5720   -0.2100   -3.3130 C.ar  242  HIS242      0.1986
    166  NE2       -4.7420   -0.1020   -4.6190 N.ar  242  HIS242     -0.2212
    167  N         -4.4300   -6.6480   -5.9670 N.am  243  GLN243     -0.1977
    168  CA        -3.9940   -8.0090   -6.2090 C.3   243  GLN243      0.1601
    169  C         -4.2990   -8.4690   -7.6350 C.2   243  GLN243      0.2287
    170  O         -3.3910   -8.9110   -8.3690 O.2   243  GLN243     -0.2864
    171  CB        -4.6570   -8.9460   -5.1820 C.3   243  GLN243      0.0394
    172  CG        -4.1470  -10.3820   -5.2100 C.3   243  GLN243      0.0908
    173  CD        -2.6370  -10.4580   -5.0510 C.2   243  GLN243      0.2608
    174  OE1       -1.9430  -11.0580   -5.8740 O.2   243  GLN243     -0.2717
    175  NE2       -2.1210   -9.8370   -3.9920 N.am  243  GLN243     -0.0878
    176  N         -2.4060   -7.5750  -10.8290 N.3   246  ILE246     -0.1231
    177  CA        -1.1210   -8.2180  -11.1290 C.3   246  ILE246      0.1692
    178  C         -1.2430   -9.3070  -12.1850 C.2   246  ILE246      0.2592
    179  O         -0.2930   -9.5900  -12.9220 O.2   246  ILE246     -0.2718
    180  CB        -0.5030   -8.8260   -9.8370 C.3   246  ILE246      0.0266
    181  CG1       -0.4300   -7.7490   -8.7530 C.3   246  ILE246      0.0019
    182  CG2        0.8690   -9.4480  -10.1060 C.3   246  ILE246      0.0020
    183  CD1       -0.0480   -8.2640   -7.3820 C.3   246  ILE246      0.0001
    184  N         -2.4240   -9.9110  -12.2760 N.am  247  TRP247     -0.1976
    185  CA        -2.5670  -11.1730  -12.9880 C.3   247  TRP247      0.1640
    186  C         -3.4410  -11.0830  -14.2280 C.2   247  TRP247      0.2290
    187  O         -4.1820  -10.1110  -14.4160 O.2   247  TRP247     -0.2864
    188  CB        -3.1360  -12.2250  -12.0280 C.3   247  TRP247      0.0576
    189  CG        -2.4220  -12.2190  -10.7010 C.ar  247  TRP247      0.0006
    190  CD1       -2.9410  -11.8680   -9.4930 C.ar  247  TRP247      0.0946
    191  CD2       -1.0410  -12.5470  -10.4660 C.ar  247  TRP247      0.0152
    192  NE1       -1.9800  -11.9760   -8.5180 N.ar  247  TRP247     -0.2442
    193  CE2       -0.8070  -12.3960   -9.0890 C.ar  247  TRP247      0.0810
    194  CE3        0.0120  -12.9640  -11.2910 C.ar  247  TRP247      0.0012
    195  CZ2        0.4500  -12.6230   -8.5110 C.ar  247  TRP247      0.0191
    196  CZ3        1.2510  -13.2190  -10.7160 C.ar  247  TRP247      0.0001
    197  CH2        1.4580  -13.0470   -9.3340 C.ar  247  TRP247      0.0015
@<TRIPOS>BOND
     1   187   186    2
     2   186   185    1
     3   185   184    1
     4   185   188    1
     5   179   178    2
     6   184   178   am
     7   178   177    1
     8   188   189    1
     9     1     2    1
    10   194   196   ar
    11   194   191   ar
    12   177   176    1
    13   177   180    1
    14     2     5    1
    15     2     3    1
    16   196   197   ar
    17   189   191   ar
    18   189   190   ar
    19   191   193   ar
    20   182   180    1
    21     5     6    1
    22   180   181    1
    23   149   151   ar
    24   149   147   ar
    25     3     4    2
    26   151   150   ar
    27   190   192   ar
    28   197   195   ar
    29   147   146   ar
    30   193   192   ar
    31   193   195   ar
    32   150   148   ar
    33     7     6   ar
    34   181   183    1
    35     6     8   ar
    36   146   148   ar
    37   146   145    1
    38   170   169    2
    39    20    19    1
    40   145   142    1
    41   169   168    1
    42    18    19   ar
    43    18    16   ar
    44    19    17   ar
    45    16    14   ar
    46     9    10    1
    47   142   143    1
    48   142   141    1
    49   168   167    1
    50   168   171    1
    51   144   143    2
    52   167   159   am
    53    17    15   ar
    54   174   173    2
    55   140   138    1
    56    14    15   ar
    57    14    13    1
    58   159   160    2
    59   159   158    1
    60   141   135   am
    61    10    13    1
    62    10    11    1
    63   164   166   ar
    64   164   162   ar
    65   172   171    1
    66   172   173    1
    67   138   137    1
    68   131   130   ar
    69   173   175   am
    70   158   161    1
    71   158   157    1
    72    11    12    2
    73   136   135    2
    74   132   130   ar
    75   166   165   ar
    76   135   134    1
    77    29    27   ar
    78    29    31   ar
    79   130   129    1
    80   161   162    1
    81   162   163   ar
    82   157   154   am
    83   137   134    1
    84   137   139    1
    85    27    26   ar
    86    31    30   ar
    87   134   133    1
    88   165   163   ar
    89    50    51    1
    90    50    49    1
    91   133   127   am
    92   154   155    2
    93   154   153    1
    94   129   126    1
    95    26    28   ar
    96    26    25    1
    97    30    28   ar
    98   127   128    2
    99   127   126    1
   100   153   152    1
   101   153   156    1
   102   126   125    1
   103   115   116    1
   104   115   114    1
   105    25    22    1
   106    49    48    1
   107   116   117    2
   108    22    21    1
   109    22    23    1
   110   114   113    1
   111    48    45    1
   112    45    44    1
   113    45    46    1
   114   117   118    1
   115   117   119    1
   116    24    23    2
   117   125   122   am
   118    67    66    1
   119    67    68    1
   120    69    68    2
   121    52    53    1
   122    23    32   am
   123    43    42    1
   124    47    46    2
   125    68    70   am
   126    57    56    1
   127    53    56    1
   128    53    54    1
   129   123   122    2
   130   113   110    1
   131   107   106   ar
   132   122   121    1
   133   108   106   ar
   134    42    40   ar
   135    42    41   ar
   136    40    38   ar
   137    32    33    1
   138   106   105    1
   139    55    54    2
   140    41    39   ar
   141   109   110    1
   142   109   103   am
   143   110   111    1
   144    70    71    1
   145   100    98   am
   146    38    37   ar
   147    33    34    1
   148    33    36    1
   149   121   124    1
   150   121   120    1
   151    39    37   ar
   152   102   103    1
   153   102   105    1
   154   102   101    1
   155   103   104    2
   156    37    36    1
   157    74    75    1
   158    74    72   am
   159    71    72    1
   160    75    76    1
   161    34    35    2
   162    60    61    2
   163    60    59    1
   164    64    63   ar
   165    98    99    2
   166    98    97    1
   167    72    73    2
   168   111   112    2
   169    59    58    1
   170    59    62    1
   171    91    90    1
   172    63    62    1
   173    63    65   ar
   174    97    94    1
   175    76    78   am
   176    76    77    2
   177    78    79    1
   178    84    83   ar
   179    92    90    1
   180    90    87    1
   181    94    93    1
   182    94    95    1
   183    93    88   am
   184    83    82    1
   185    83    85   ar
   186    82    79    1
   187    79    80    1
   188    86    87    1
   189    87    88    1
   190    88    89    2
   191    95    96    2
   192    80    81    2
