@<TRIPOS>MOLECULE
tmp/4u1qC00.pdb
 146 143 0 0 0
SMALL
GASTEIGER

@<TRIPOS>ATOM
      1  N          8.4730    5.8470   -3.7250 N.3    96  TYR96      -0.1241
      2  CA         8.2390    4.6380   -4.5120 C.3    96  TYR96       0.1605
      3  C          8.4870    4.8810   -6.0020 C.2    96  TYR96       0.2264
      4  O          9.1570    4.0840   -6.6550 O.2    96  TYR96      -0.2867
      5  CB         6.8110    4.1300   -4.3170 C.3    96  TYR96       0.0534
      6  CG         6.5120    2.7920   -4.9480 C.ar   96  TYR96      -0.0201
      7  CD1        6.1330    2.6880   -6.2970 C.ar   96  TYR96      -0.0009
      8  CD2        6.5650    1.6280   -4.1950 C.ar   96  TYR96      -0.0009
      9  CE1        5.8360    1.4500   -6.8620 C.ar   96  TYR96       0.0417
     10  CE2        6.2620    0.3910   -4.7450 C.ar   96  TYR96       0.0417
     11  CZ         5.9040    0.3020   -6.0720 C.ar   96  TYR96       0.1957
     12  OH         5.6090   -0.9400   -6.5860 O.3    96  TYR96      -0.2866
     13  N          7.6050   -9.6050   -6.6870 N.3   131  TYR131     -0.1241
     14  CA         7.5020   -9.8520   -5.2480 C.3   131  TYR131      0.1605
     15  C          8.4650  -10.9410   -4.8010 C.2   131  TYR131      0.2264
     16  O          9.0430  -10.8330   -3.7250 O.2   131  TYR131     -0.2867
     17  CB         6.0430  -10.1830   -4.8850 C.3   131  TYR131      0.0534
     18  CG         5.1450   -9.2120   -5.6260 C.ar  131  TYR131     -0.0201
     19  CD1        5.0300   -7.8890   -5.2000 C.ar  131  TYR131     -0.0009
     20  CD2        4.5130   -9.5790   -6.8090 C.ar  131  TYR131     -0.0009
     21  CE1        4.2630   -6.9770   -5.9000 C.ar  131  TYR131      0.0417
     22  CE2        3.7340   -8.6660   -7.5210 C.ar  131  TYR131      0.0417
     23  CZ         3.6220   -7.3730   -7.0620 C.ar  131  TYR131      0.1957
     24  OH         2.8580   -6.4600   -7.7490 O.3   131  TYR131     -0.2866
     25  N          9.7290   -1.5640   -0.5660 N.3   144  PHE144     -0.1241
     26  CA         8.5190   -1.8300   -1.3180 C.3   144  PHE144      0.1605
     27  C          7.2890   -1.5900   -0.4450 C.2   144  PHE144      0.2264
     28  O          6.4030   -0.8360   -0.8300 O.2   144  PHE144     -0.2867
     29  CB         8.4940   -3.2580   -1.8590 C.3   144  PHE144      0.0534
     30  CG         7.1990   -3.6050   -2.5660 C.ar  144  PHE144     -0.0203
     31  CD1        6.9790   -3.1900   -3.8730 C.ar  144  PHE144     -0.0042
     32  CD2        6.2010   -4.3150   -1.9150 C.ar  144  PHE144     -0.0042
     33  CE1        5.7990   -3.4970   -4.5280 C.ar  144  PHE144     -0.0003
     34  CE2        5.0050   -4.6210   -2.5630 C.ar  144  PHE144     -0.0003
     35  CZ         4.8070   -4.2120   -3.8690 C.ar  144  PHE144     -0.0000
     36  N          4.0190    0.6060   -0.8530 N.3   148  MET148     -0.1245
     37  CA         2.7240   -0.0510   -0.9810 C.3   148  MET148      0.1570
     38  C          1.7660    0.3420    0.1690 C.2   148  MET148      0.2261
     39  O          0.5610    0.5480   -0.0430 O.2   148  MET148     -0.2867
     40  CB         2.9220   -1.5630   -1.0390 C.3   148  MET148      0.0387
     41  CG         1.7200   -2.3370   -1.5540 C.3   148  MET148      0.0595
     42  SD         1.2140   -1.8670   -3.2290 S.3   148  MET148     -0.1393
     43  CE        -0.4170   -1.1900   -2.8750 C.3   148  MET148      0.0692
     44  N          0.4580    3.7540   -0.7790 N.3   151  TRP151     -0.1241
     45  CA        -0.4990    3.6210   -1.8860 C.3   151  TRP151      0.1605
     46  C         -1.8700    3.1590   -1.3640 C.2   151  TRP151      0.2264
     47  O         -2.9190    3.6510   -1.7920 O.2   151  TRP151     -0.2867
     48  CB        -0.0140    2.6140   -2.9330 C.3   151  TRP151      0.0550
     49  CG         1.0270    3.0770   -3.9190 C.ar  151  TRP151      0.0003
     50  CD1        2.3030    2.6060   -4.0370 C.ar  151  TRP151      0.0946
     51  CD2        0.8650    4.0600   -4.9560 C.ar  151  TRP151      0.0152
     52  NE1        2.9490    3.2380   -5.0740 N.ar  151  TRP151     -0.2442
     53  CE2        2.0890    4.1360   -5.6520 C.ar  151  TRP151      0.0810
     54  CE3       -0.1920    4.8810   -5.3590 C.ar  151  TRP151      0.0012
     55  CZ2        2.2840    5.0000   -6.7320 C.ar  151  TRP151      0.0191
     56  CZ3        0.0070    5.7430   -6.4310 C.ar  151  TRP151      0.0001
     57  CH2        1.2310    5.7920   -7.1050 C.ar  151  TRP151      0.0015
     58  N         -5.5050    5.0170   -1.2420 N.3   155  SER155     -0.1217
     59  CA        -6.5750    4.4760   -2.0680 C.3   155  SER155      0.1889
     60  C         -7.6920    3.7730   -1.2980 C.2   155  SER155      0.2288
     61  O         -8.7850    3.5910   -1.8490 O.2   155  SER155     -0.2866
     62  CB        -6.0040    3.5000   -3.1020 C.3   155  SER155      0.2089
     63  OG        -5.2610    2.4570   -2.4900 O.3   155  SER155     -0.2183
     64  N         -5.4420   -4.7260   -4.1160 N.3   242  HIS242     -0.1241
     65  CA        -4.3030   -4.4480   -4.9970 C.3   242  HIS242      0.1621
     66  C         -3.6180   -5.7430   -5.4260 C.2   242  HIS242      0.2264
     67  O         -2.4000   -5.9240   -5.2720 O.2   242  HIS242     -0.2867
     68  CB        -3.3400   -3.4810   -4.3010 C.3   242  HIS242      0.0745
     69  CG        -3.8760   -2.0840   -4.2400 C.ar  242  HIS242      0.0817
     70  ND1       -4.0540   -1.3980   -3.0580 N.ar  242  HIS242     -0.2268
     71  CD2       -4.3210   -1.2640   -5.2220 C.ar  242  HIS242      0.1154
     72  CE1       -4.5720   -0.2100   -3.3130 C.ar  242  HIS242      0.1986
     73  NE2       -4.7420   -0.1020   -4.6190 N.ar  242  HIS242     -0.2212
     74  N         -4.9650   -6.8660  -10.2140 N.3   245  VAL245     -0.1231
     75  CA        -4.2840   -6.0570  -11.2270 C.3   245  VAL245      0.1692
     76  C         -2.9460   -6.6840  -11.6530 C.2   245  VAL245      0.2591
     77  O         -2.4150   -6.3740  -12.7250 O.2   245  VAL245     -0.2718
     78  CB        -4.0290   -4.6090  -10.7220 C.3   245  VAL245      0.0266
     79  CG1       -5.3540   -3.8140  -10.6220 C.3   245  VAL245      0.0020
     80  CG2       -3.2640   -4.6090   -9.3880 C.3   245  VAL245      0.0020
     81  N         -2.4060   -7.5750  -10.8290 N.am  246  ILE246     -0.1980
     82  CA        -1.1210   -8.2180  -11.1290 C.3   246  ILE246      0.1595
     83  C         -1.2430   -9.3070  -12.1850 C.2   246  ILE246      0.2287
     84  O         -0.2930   -9.5900  -12.9220 O.2   246  ILE246     -0.2864
     85  CB        -0.5030   -8.8260   -9.8370 C.3   246  ILE246      0.0276
     86  CG1       -0.4300   -7.7490   -8.7530 C.3   246  ILE246      0.0022
     87  CG2        0.8690   -9.4480  -10.1060 C.3   246  ILE246      0.0022
     88  CD1       -0.0480   -8.2640   -7.3820 C.3   246  ILE246      0.0001
     89  N         -7.3030   -0.2100   -8.3900 N.3   274  ALA274     -0.1245
     90  CA        -7.6070    0.7380   -9.4550 C.3   274  ALA274      0.1562
     91  C         -8.4310    0.0310  -10.5150 C.2   274  ALA274      0.2260
     92  O         -8.2850   -1.1820  -10.7060 O.2   274  ALA274     -0.2867
     93  CB        -6.3190    1.3210  -10.0730 C.3   274  ALA274      0.0290
     94  N         -5.1210    8.6520  -14.4440 N.3   285  TYR285     -0.1241
     95  CA        -4.3980    7.9600  -13.3770 C.3   285  TYR285      0.1605
     96  C         -4.1250    6.5070  -13.7960 C.2   285  TYR285      0.2264
     97  O         -2.9700    6.0750  -13.8410 O.2   285  TYR285     -0.2867
     98  CB        -5.2290    8.0380  -12.0900 C.3   285  TYR285      0.0534
     99  CG        -4.6210    7.5530  -10.7930 C.ar  285  TYR285     -0.0201
    100  CD1       -4.5800    8.3890   -9.6770 C.ar  285  TYR285     -0.0009
    101  CD2       -4.1590    6.2460  -10.6520 C.ar  285  TYR285     -0.0009
    102  CE1       -4.0710    7.9430   -8.4580 C.ar  285  TYR285      0.0417
    103  CE2       -3.6550    5.7910   -9.4370 C.ar  285  TYR285      0.0417
    104  CZ        -3.6110    6.6370   -8.3520 C.ar  285  TYR285      0.1957
    105  OH        -3.0970    6.1480   -7.1760 O.3   285  TYR285     -0.2866
    106  N         -0.7320    4.8270  -14.7550 N.3   289  ASP289     -0.1239
    107  CA        -0.2060    3.8750  -13.7770 C.3   289  ASP289      0.1674
    108  C          0.0530    2.5210  -14.4550 C.2   289  ASP289      0.2266
    109  O          0.8540    1.7180  -13.9680 O.2   289  ASP289     -0.2867
    110  CB        -1.1620    3.7260  -12.5970 C.3   289  ASP289      0.1410
    111  CG        -0.4790    3.2180  -11.3480 C.2   289  ASP289      0.3668
    112  OD1        0.7600    3.3670  -11.2000 O.co2 289  ASP289     -0.2456
    113  OD2       -1.1980    2.6760  -10.4930 O.co2 289  ASP289     -0.2456
    114  N          3.7620    1.3250  -14.9970 N.3   292  TYR292     -0.1227
    115  CA         4.2710    0.4920  -13.9070 C.3   292  TYR292      0.1736
    116  C          3.8790   -0.9780  -14.0890 C.2   292  TYR292      0.2595
    117  O          4.7330   -1.8820  -14.1030 O.2   292  TYR292     -0.2718
    118  CB         3.7550    0.9970  -12.5490 C.3   292  TYR292      0.0548
    119  CG         4.0330    0.0170  -11.4270 C.ar  292  TYR292     -0.0200
    120  CD1        5.2950   -0.0610  -10.8390 C.ar  292  TYR292     -0.0009
    121  CD2        3.0410   -0.8510  -10.9710 C.ar  292  TYR292     -0.0009
    122  CE1        5.5590   -0.9750   -9.8190 C.ar  292  TYR292      0.0417
    123  CE2        3.2950   -1.7610   -9.9570 C.ar  292  TYR292      0.0417
    124  CZ         4.5580   -1.8240   -9.3890 C.ar  292  TYR292      0.1957
    125  OH         4.8110   -2.7330   -8.3770 O.3   292  TYR292     -0.2866
    126  N          2.5830   -1.2200  -14.2430 N.am  293  PHE293     -0.1976
    127  CA         2.0940   -2.5960  -14.2920 C.3   293  PHE293      0.1639
    128  C          2.6280   -3.3370  -15.5070 C.2   293  PHE293      0.2290
    129  O          2.9000   -4.5440  -15.4310 O.2   293  PHE293     -0.2864
    130  CB         0.5580   -2.6150  -14.2460 C.3   293  PHE293      0.0560
    131  CG         0.0170   -2.2160  -12.9080 C.ar  293  PHE293     -0.0200
    132  CD1        0.0820   -3.1020  -11.8340 C.ar  293  PHE293     -0.0042
    133  CD2       -0.4980   -0.9400  -12.6980 C.ar  293  PHE293     -0.0042
    134  CE1       -0.3910   -2.7330  -10.5760 C.ar  293  PHE293     -0.0003
    135  CE2       -0.9740   -0.5630  -11.4340 C.ar  293  PHE293     -0.0003
    136  CZ        -0.9120   -1.4540  -10.3770 C.ar  293  PHE293     -0.0000
    137  N        -10.1000    4.3110   -7.7910 N.3   332  HIS332     -0.1241
    138  CA       -10.2070    3.1290   -6.9510 C.3   332  HIS332      0.1621
    139  C        -11.6470    2.8050   -6.5680 C.2   332  HIS332      0.2264
    140  O        -12.4460    3.6860   -6.2720 O.2   332  HIS332     -0.2867
    141  CB        -9.3470    3.3140   -5.7010 C.3   332  HIS332      0.0745
    142  CG        -7.8920    3.4690   -6.0100 C.ar  332  HIS332      0.0817
    143  ND1       -7.2470    4.6870   -5.9710 N.ar  332  HIS332     -0.2268
    144  CD2       -6.9610    2.5630   -6.3940 C.ar  332  HIS332      0.1154
    145  CE1       -5.9770    4.5220   -6.3010 C.ar  332  HIS332      0.1986
    146  NE2       -5.7790    3.2440   -6.5710 N.ar  332  HIS332     -0.2212
@<TRIPOS>BOND
     1   128   129    2
     2   128   127    1
     3   114   115    1
     4   106   107    1
     5   108   109    2
     6   108   107    1
     7    94    95    1
     8   127   130    1
     9   127   126    1
    10   130   131    1
    11   126   116   am
    12   117   116    2
    13   116   115    1
    14   115   118    1
    15    97    96    2
    16    96    95    1
    17   107   110    1
    18    95    98    1
    19    84    83    2
    20   131   133   ar
    21   131   132   ar
    22    77    76    2
    23   133   135   ar
    24   110   111    1
    25   118   119    1
    26    83    82    1
    27    98    99    1
    28   132   134   ar
    29    76    75    1
    30    76    81   am
    31   135   136   ar
    32   119   121   ar
    33   119   120   ar
    34   111   112   ar
    35   111   113   ar
    36    75    78    1
    37    75    74    1
    38    82    81    1
    39    82    85    1
    40   121   123   ar
    41   120   122   ar
    42    99   101   ar
    43    99   100   ar
    44    78    79    1
    45    78    80    1
    46    92    91    2
    47   101   103   ar
    48   134   136   ar
    49    91    90    1
    50    87    85    1
    51    93    90    1
    52   123   124   ar
    53    85    86    1
    54   122   124   ar
    55   100   102   ar
    56    90    89    1
    57   103   104   ar
    58   124   125    1
    59    86    88    1
    60   102   104   ar
    61   104   105    1
    62   137   138    1
    63    24    23    1
    64    22    23   ar
    65    22    20   ar
    66    57    55   ar
    67    57    56   ar
    68    23    21   ar
    69   138   139    1
    70   138   141    1
    71     9     7   ar
    72     9    11   ar
    73    20    18   ar
    74    55    53   ar
    75    13    14    1
    76     4     3    2
    77    12    11    1
    78   146   144   ar
    79   146   145   ar
    80   139   140    2
    81    56    54   ar
    82   144   142   ar
    83   145   143   ar
    84     7     6   ar
    85    11    10   ar
    86   142   143   ar
    87   142   141    1
    88     3     2    1
    89    21    19   ar
    90    53    52   ar
    91    53    51   ar
    92    18    19   ar
    93    18    17    1
    94    66    67    2
    95    66    65    1
    96    54    51   ar
    97    14    17    1
    98    14    15    1
    99    71    73   ar
   100    71    69   ar
   101    52    50   ar
   102    65    68    1
   103    65    64    1
   104    51    49   ar
   105     6     5    1
   106     6     8   ar
   107    15    16    2
   108    10     8   ar
   109    73    72   ar
   110    33    31   ar
   111    33    35   ar
   112     2     5    1
   113     2     1    1
   114    68    69    1
   115    69    70   ar
   116    50    49   ar
   117    49    48    1
   118    31    30   ar
   119    35    34   ar
   120    72    70   ar
   121    42    43    1
   122    42    41    1
   123    62    63    1
   124    62    59    1
   125    48    45    1
   126    30    32   ar
   127    30    29    1
   128    34    32   ar
   129    59    60    1
   130    59    58    1
   131    45    46    1
   132    45    44    1
   133    29    26    1
   134    61    60    2
   135    47    46    2
   136    41    40    1
   137    26    25    1
   138    26    27    1
   139    40    37    1
   140    37    36    1
   141    37    38    1
   142    28    27    2
   143    39    38    2
