@<TRIPOS>MOLECULE
tmp/4u1yC00.pdb
 121 117 0 0 0
SMALL
GASTEIGER

@<TRIPOS>ATOM
      1  N         25.0770   20.2530   92.9750 N.3   459  ILE459     -0.1231
      2  CA        25.6950   20.8350   91.8090 C.3   459  ILE459      0.1692
      3  C         26.8420   19.9530   91.3340 C.2   459  ILE459      0.2592
      4  O         27.7870   19.6920   92.0770 O.2   459  ILE459     -0.2718
      5  CB        26.2010   22.2360   92.1310 C.3   459  ILE459      0.0266
      6  CG1       25.0070   23.1410   92.4470 C.3   459  ILE459      0.0019
      7  CG2       27.0820   22.7580   91.0040 C.3   459  ILE459      0.0020
      8  CD1       25.3740   24.5670   92.7510 C.3   459  ILE459      0.0001
      9  N         26.7440   19.4770   90.1000 N.am  460  THR460     -0.1953
     10  CA        27.8080   18.6780   89.5110 C.3   460  THR460      0.1897
     11  C         28.2680   19.3310   88.2230 C.2   460  THR460      0.2313
     12  O         27.5890   20.2090   87.6930 O.2   460  THR460     -0.2863
     13  CB        27.3750   17.2380   89.2070 C.3   460  THR460      0.1794
     14  OG1       26.6580   17.2080   87.9690 O.3   460  THR460     -0.2208
     15  CG2       26.5090   16.6820   90.3260 C.3   460  THR460      0.0378
     16  N         23.8140   30.2530   92.6630 N.3   471  LYS471     -0.1231
     17  CA        24.7810   30.0970   93.7370 C.3   471  LYS471      0.1678
     18  C         24.1200   29.2050   94.7610 C.2   471  LYS471      0.2434
     19  O         22.9320   29.3600   95.0440 O.2   471  LYS471     -0.2733
     20  CB        25.1680   31.4320   94.3690 C.3   471  LYS471      0.0284
     21  CG        26.0010   32.3260   93.4830 C.3   471  LYS471      0.0035
     22  CD        27.4240   31.8470   93.3780 C.3   471  LYS471      0.0206
     23  CE        28.1870   32.7400   92.4290 C.3   471  LYS471      0.1093
     24  NZ        27.6270   32.6540   91.0520 N.3   471  LYS471     -0.1314
     25  N         24.8800   28.2540   95.3050 N.am  472  PRO472     -0.2718
     26  CA        24.3250   27.2200   96.1830 C.3   472  PRO472      0.1535
     27  C         23.7380   27.7720   97.4790 C.2   472  PRO472      0.2599
     28  O         24.3320   28.6570   98.0920 O.2   472  PRO472     -0.2715
     29  CB        25.5330   26.3320   96.4800 C.3   472  PRO472      0.0310
     30  CG        26.7210   27.1860   96.2020 C.3   472  PRO472      0.0237
     31  CD        26.3340   28.1280   95.1270 C.3   472  PRO472      0.0939
     32  N         22.6090   27.2170   97.9130 N.am  473  PHE473     -0.1960
     33  CA        21.9030   27.7760   99.0580 C.3   473  PHE473      0.1771
     34  C         22.1680   26.9870  100.3330 C.2   473  PHE473      0.2619
     35  O         21.7310   27.3870  101.4140 O.2   473  PHE473     -0.2715
     36  CB        20.4000   27.8350   98.7730 C.3   473  PHE473      0.0574
     37  CG        19.7820   26.4930   98.5030 C.ar  473  PHE473     -0.0200
     38  CD1       19.2330   25.7400   99.5300 C.ar  473  PHE473     -0.0042
     39  CD2       19.7430   25.9870   97.2150 C.ar  473  PHE473     -0.0042
     40  CE1       18.6700   24.5060   99.2780 C.ar  473  PHE473     -0.0003
     41  CE2       19.1820   24.7560   96.9580 C.ar  473  PHE473     -0.0003
     42  CZ        18.6440   24.0150   97.9900 C.ar  473  PHE473     -0.0000
     43  N         22.8950   25.8780  100.2120 N.am  474  MET474     -0.1963
     44  CA        23.1980   25.0460  101.3750 C.3   474  MET474      0.1736
     45  C         24.4310   24.1830  101.1210 C.2   474  MET474      0.2617
     46  O         24.5650   23.5750  100.0550 O.2   474  MET474     -0.2715
     47  CB        21.9990   24.1710  101.7330 C.3   474  MET474      0.0427
     48  CG        22.2580   23.1760  102.8380 C.3   474  MET474      0.0599
     49  SD        20.8700   22.0490  102.9890 S.3   474  MET474     -0.1393
     50  CE        19.6730   23.1120  103.7860 C.3   474  MET474      0.0692
     51  N         25.3310   24.1370  102.1010 N.am  475  SER475     -0.1950
     52  CA        26.5750   23.3820  101.9760 C.3   475  SER475      0.1924
     53  C         26.4960   22.0190  102.6390 C.2   475  SER475      0.2314
     54  O         25.8950   21.8660  103.7010 O.2   475  SER475     -0.2863
     55  CB        27.7400   24.1730  102.5740 C.3   475  SER475      0.2116
     56  OG        27.6370   24.2430  103.9840 O.3   475  SER475     -0.2180
     57  N         33.2570   18.2620   99.6540 N.3   650  SER650     -0.1202
     58  CA        32.3990   19.3600  100.0740 C.3   650  SER650      0.2020
     59  C         31.7540   20.0390   98.8740 C.2   650  SER650      0.2619
     60  O         32.4280   20.5910   98.0060 O.2   650  SER650     -0.2717
     61  CB        33.1830   20.3680  100.9280 C.3   650  SER650      0.2103
     62  OG        34.3580   20.8200  100.2780 O.3   650  SER650     -0.2182
     63  N         30.4300   19.9780   98.8390 N.am  651  LYS651     -0.1965
     64  CA        29.6550   20.5730   97.7650 C.3   651  LYS651      0.1728
     65  C         28.3590   21.1520   98.3060 C.2   651  LYS651      0.2616
     66  O         28.1230   21.1570   99.5140 O.2   651  LYS651     -0.2715
     67  CB        29.3630   19.5420   96.6840 C.3   651  LYS651      0.0311
     68  CG        29.2400   18.1450   97.2250 C.3   651  LYS651      0.0038
     69  CD        29.0010   17.1530   96.1190 C.3   651  LYS651      0.0206
     70  CE        28.7740   15.7850   96.7120 C.3   651  LYS651      0.1093
     71  NZ        27.9050   14.9590   95.8560 N.3   651  LYS651     -0.1314
     72  N         27.5180   21.6510   97.4110 N.am  652  GLY652     -0.1955
     73  CA        26.3120   22.3220   97.8400 C.3   652  GLY652      0.1869
     74  C         25.1340   22.1660   96.9090 C.2   652  GLY652      0.2309
     75  O         25.2850   21.8780   95.7230 O.2   652  GLY652     -0.2863
     76  N         18.6610   34.0720   95.8800 N.3   671  VAL671     -0.1231
     77  CA        19.2920   33.0520   96.7200 C.3   671  VAL671      0.1692
     78  C         20.3810   33.6580   97.5890 C.2   671  VAL671      0.2591
     79  O         20.4040   33.4460   98.8080 O.2   671  VAL671     -0.2718
     80  CB        19.9050   31.9040   95.8850 C.3   671  VAL671      0.0266
     81  CG1       20.6800   30.9560   96.7800 C.3   671  VAL671      0.0020
     82  CG2       18.8270   31.1500   95.1340 C.3   671  VAL671      0.0020
     83  N         21.2850   34.4180   96.9770 N.am  672  LEU672     -0.1980
     84  CA        22.3530   35.0040   97.7840 C.3   672  LEU672      0.1596
     85  C         21.8110   36.1380   98.6770 C.2   672  LEU672      0.2287
     86  O         22.3530   36.3980   99.7620 O.2   672  LEU672     -0.2864
     87  CB        23.5150   35.4780   96.8980 C.3   672  LEU672      0.0297
     88  CG        23.3070   36.2210   95.5800 C.3   672  LEU672      0.0022
     89  CD1       22.9980   37.6650   95.8550 C.3   672  LEU672      0.0001
     90  CD2       24.5380   36.0950   94.6920 C.3   672  LEU672      0.0001
     91  N         20.5630   34.3240  101.6080 N.3   675  SER675     -0.1202
     92  CA        21.7110   33.8320  102.3650 C.3   675  SER675      0.2020
     93  C         22.2800   34.9240  103.2590 C.2   675  SER675      0.2618
     94  O         22.5950   34.6810  104.4240 O.2   675  SER675     -0.2717
     95  CB        22.8020   33.3120  101.4310 C.3   675  SER675      0.2103
     96  OG        23.8500   34.2550  101.3020 O.3   675  SER675     -0.2182
     97  N         22.4220   36.1240  102.7070 N.am  676  GLU676     -0.1979
     98  CA        22.9790   37.2310  103.4760 C.3   676  GLU676      0.1602
     99  C         22.0300   37.7700  104.5430 C.2   676  GLU676      0.2287
    100  O         22.4780   38.2750  105.5700 O.2   676  GLU676     -0.2864
    101  CB        23.3980   38.3610  102.5400 C.3   676  GLU676      0.0415
    102  CG        24.5520   37.9800  101.6470 C.3   676  GLU676      0.1163
    103  CD        24.9750   39.1010  100.7340 C.2   676  GLU676      0.3649
    104  OE1       26.0220   38.9520  100.0750 O.co2 676  GLU676     -0.2457
    105  OE2       24.2670   40.1290  100.6760 O.co2 676  GLU676     -0.2457
    106  N         18.3200   31.7560  104.9680 N.3   680  LEU680     -0.1231
    107  CA        18.6730   30.3640  104.6970 C.3   680  LEU680      0.1693
    108  C         19.1250   29.6450  105.9650 C.2   680  LEU680      0.2592
    109  O         18.7880   28.4760  106.1870 O.2   680  LEU680     -0.2718
    110  CB        19.7630   30.2870  103.6290 C.3   680  LEU680      0.0284
    111  CG        19.2860   30.6750  102.2300 C.3   680  LEU680      0.0019
    112  CD1       20.4240   30.6330  101.2250 C.3   680  LEU680      0.0001
    113  CD2       18.1500   29.7640  101.8000 C.3   680  LEU680      0.0001
    114  N         19.8690   30.3560  106.8040 N.am  681  ASP681     -0.1974
    115  CA        20.3340   29.8030  108.0700 C.3   681  ASP681      0.1709
    116  C         19.1280   29.5740  108.9700 C.2   681  ASP681      0.2293
    117  O         19.0460   28.5760  109.6930 O.2   681  ASP681     -0.2864
    118  CB        21.3370   30.7400  108.7420 C.3   681  ASP681      0.1436
    119  CG        22.3260   31.3330  107.7590 C.2   681  ASP681      0.3671
    120  OD1       23.5110   31.4900  108.1260 O.co2 681  ASP681     -0.2456
    121  OD2       21.9150   31.6460  106.6210 O.co2 681  ASP681     -0.2456
@<TRIPOS>BOND
     1    12    11    2
     2    14    13    1
     3    11    10    1
     4    13    10    1
     5    13    15    1
     6    10     9    1
     7     9     3   am
     8     7     5    1
     9    24    23    1
    10     3     2    1
    11     3     4    2
    12     2     5    1
    13     2     1    1
    14     5     6    1
    15    23    22    1
    16     6     8    1
    17    16    17    1
    18    22    21    1
    19    21    20    1
    20    17    20    1
    21    17    18    1
    22    90    88    1
    23    18    19    2
    24    18    25   am
    25    31    25    1
    26    31    30    1
    27    82    80    1
    28    25    26    1
    29    88    89    1
    30    88    87    1
    31    75    74    2
    32    71    70    1
    33    76    77    1
    34    80    77    1
    35    80    81    1
    36    69    70    1
    37    69    68    1
    38    26    29    1
    39    26    27    1
    40    30    29    1
    41    67    68    1
    42    67    64    1
    43    77    78    1
    44    87    84    1
    45    74    73    1
    46    41    39   ar
    47    41    42   ar
    48    83    78   am
    49    83    84    1
    50    39    37   ar
    51    72    73    1
    52    72    65   am
    53    27    32   am
    54    27    28    2
    55    78    79    2
    56    64    65    1
    57    64    63    1
    58    84    85    1
    59    32    33    1
    60    42    40   ar
    61    60    59    2
    62    65    66    2
    63    37    36    1
    64    37    38   ar
    65    85    86    2
    66    36    33    1
    67    63    59   am
    68    59    58    1
    69    33    34    1
    70    40    38   ar
    71    57    58    1
    72    46    45    2
    73    58    61    1
    74   104   103   ar
    75    43    34   am
    76    43    44    1
    77    62    61    1
    78    34    35    2
    79   105   103   ar
    80   103   102    1
    81    45    44    1
    82    45    51   am
    83   112   111    1
    84    96    95    1
    85    44    47    1
    86    95    92    1
    87    91    92    1
    88   102   101    1
    89    47    48    1
    90   113   111    1
    91    52    51    1
    92    52    55    1
    93    52    53    1
    94   111   110    1
    95    92    93    1
    96   101    98    1
    97    55    56    1
    98    53    54    2
    99    97    93   am
   100    97    98    1
   101    48    49    1
   102    49    50    1
   103    93    94    2
   104    98    99    1
   105   110   107    1
   106    99   100    2
   107   107   106    1
   108   107   108    1
   109   108   109    2
   110   108   114   am
   111   121   119   ar
   112   114   115    1
   113   119   120   ar
   114   119   118    1
   115   115   118    1
   116   115   116    1
   117   116   117    2
