@<TRIPOS>MOLECULE
tmp/4u1yC01.pdb
 149 143 0 0 0
SMALL
GASTEIGER

@<TRIPOS>ATOM
      1  N         11.9790   14.2440   99.1170 N.3   380  GLU380     -0.1245
      2  CA        13.0060   13.9790  100.1100 C.3   380  GLU380      0.1567
      3  C         12.8870   14.8630  101.3620 C.2   380  GLU380      0.2260
      4  O         13.0220   16.0810  101.2910 O.2   380  GLU380     -0.2867
      5  CB        14.3740   14.2040   99.4780 C.3   380  GLU380      0.0388
      6  CG        15.5230   13.6760  100.2850 C.3   380  GLU380      0.1160
      7  CD        15.5550   12.1650  100.2590 C.2   380  GLU380      0.3649
      8  OE1       15.9200   11.5450  101.2820 O.co2 380  GLU380     -0.2457
      9  OE2       15.2290   11.5990   99.1950 O.co2 380  GLU380     -0.2457
     10  N         16.7500   12.4820   90.7330 N.3   428  TYR428     -0.1241
     11  CA        17.3260   13.8250   90.7730 C.3   428  TYR428      0.1605
     12  C         17.6720   14.2820   89.3560 C.2   428  TYR428      0.2264
     13  O         17.0560   15.2090   88.8200 O.2   428  TYR428     -0.2867
     14  CB        18.5680   13.8360   91.6760 C.3   428  TYR428      0.0534
     15  CG        18.2540   13.7550   93.1560 C.ar  428  TYR428     -0.0201
     16  CD1       17.8630   12.5550   93.7480 C.ar  428  TYR428     -0.0009
     17  CD2       18.3090   14.8890   93.9540 C.ar  428  TYR428     -0.0009
     18  CE1       17.5650   12.4920   95.1050 C.ar  428  TYR428      0.0417
     19  CE2       18.0090   14.8350   95.3020 C.ar  428  TYR428      0.0417
     20  CZ        17.6380   13.6390   95.8730 C.ar  428  TYR428      0.1957
     21  OH        17.3420   13.6040   97.2160 O.3   428  TYR428     -0.2866
     22  N         16.7730   19.6870   97.0640 N.3   456  PRO456     -0.2102
     23  CA        18.1770   19.4140   97.3990 C.3   456  PRO456      0.1504
     24  C         18.9640   18.8390   96.2210 C.2   456  PRO456      0.2576
     25  O         19.3470   17.6710   96.2540 O.2   456  PRO456     -0.2718
     26  CB        18.0750   18.3940   98.5410 C.3   456  PRO456      0.0282
     27  CG        16.7460   17.7620   98.3660 C.3   456  PRO456      0.0208
     28  CD        15.8540   18.8580   97.8640 C.3   456  PRO456      0.0893
     29  N         19.1870   19.6580   95.1950 N.am  457  LEU457     -0.1966
     30  CA        19.8740   19.2280   93.9820 C.3   457  LEU457      0.1728
     31  C         21.3650   19.5530   94.0260 C.2   457  LEU457      0.2616
     32  O         21.7400   20.7260   93.9660 O.2   457  LEU457     -0.2715
     33  CB        19.2350   19.8950   92.7630 C.3   457  LEU457      0.0311
     34  CG        19.7430   19.4970   91.3800 C.3   457  LEU457      0.0022
     35  CD1       19.6090   18.0030   91.1890 C.3   457  LEU457      0.0001
     36  CD2       18.9810   20.2500   90.3060 C.3   457  LEU457      0.0001
     37  N         22.2200   18.5310   94.1160 N.am  458  THR458     -0.1951
     38  CA        23.6580   18.7910   94.2090 C.3   458  THR458      0.1897
     39  C         24.2110   19.2600   92.8850 C.2   458  THR458      0.2313
     40  O         23.8580   18.7550   91.8180 O.2   458  THR458     -0.2863
     41  CB        24.5110   17.5750   94.6510 C.3   458  THR458      0.1794
     42  OG1       23.7190   16.3900   94.7030 O.3   458  THR458     -0.2208
     43  CG2       25.1610   17.8360   96.0110 C.3   458  THR458      0.0378
     44  N         25.8090   18.3660   85.2950 N.3   463  ARG463     -0.1245
     45  CA        24.5160   19.0130   85.4600 C.3   463  ARG463      0.1563
     46  C         24.6510   20.4790   85.0780 C.2   463  ARG463      0.2260
     47  O         23.7820   21.0410   84.4180 O.2   463  ARG463     -0.2867
     48  CB        24.0270   18.8860   86.8980 C.3   463  ARG463      0.0307
     49  CG        23.6650   17.4760   87.3200 C.3   463  ARG463      0.0489
     50  CD        23.3890   17.4530   88.8090 C.3   463  ARG463      0.2205
     51  NE        23.1880   16.1050   89.3200 N.pl3 463  ARG463     -0.0865
     52  CZ        22.0160   15.4910   89.3770 C.cat 463  ARG463      0.5346
     53  NH1       20.9270   16.0990   88.9410 N.pl3 463  ARG463      0.1354
     54  NH2       21.9380   14.2610   89.8630 N.pl3 463  ARG463      0.1354
     55  N         23.0850    5.3870   97.5240 N.3   571  LEU571     -0.1245
     56  CA        21.7940    5.3840   96.8340 C.3   571  LEU571      0.1561
     57  C         21.9740    4.8540   95.4080 C.2   571  LEU571      0.2260
     58  O         23.0910    4.8480   94.8950 O.2   571  LEU571     -0.2867
     59  CB        21.2050    6.7960   96.8030 C.3   571  LEU571      0.0270
     60  CG        19.7060    6.9660   96.5430 C.3   571  LEU571      0.0019
     61  CD1       18.9030    6.4840   97.7280 C.3   571  LEU571      0.0001
     62  CD2       19.3770    8.4170   96.2270 C.3   571  LEU571      0.0001
     63  N         20.8850    6.1350   92.5860 N.3   573  SER573     -0.1202
     64  CA        21.1750    7.2140   91.6610 C.3   573  SER573      0.2020
     65  C         21.5690    8.4680   92.4160 C.2   573  SER573      0.2619
     66  O         21.0830    8.7210   93.5180 O.2   573  SER573     -0.2717
     67  CB        19.9590    7.4920   90.7780 C.3   573  SER573      0.2103
     68  OG        18.8320    7.8380   91.5670 O.3   573  SER573     -0.2182
     69  N         22.4650    9.2470   91.8270 N.am  574  GLY574     -0.1942
     70  CA        22.8540   10.5100   92.4130 C.3   574  GLY574      0.2014
     71  C         24.3430   10.7690   92.4060 C.2   574  GLY574      0.2640
     72  O         25.1380    9.9980   91.8650 O.2   574  GLY574     -0.2714
     73  N         24.7070   11.8660   93.0540 N.am  575  SER575     -0.1935
     74  CA        26.0830   12.3140   93.1180 C.3   575  SER575      0.2055
     75  C         26.9580   11.4430   94.0020 C.2   575  SER575      0.2643
     76  O         28.1450   11.4120   93.7960 O.2   575  SER575     -0.2714
     77  CB        26.1570   13.7630   93.5850 C.3   575  SER575      0.2130
     78  OG        25.7370   13.8960   94.9300 O.3   575  SER575     -0.2179
     79  N         26.4190   10.8360   95.0520 N.am  576  THR576     -0.1950
     80  CA        27.2630   10.0000   95.9080 C.3   576  THR576      0.1897
     81  C         27.8320    8.8120   95.1200 C.2   576  THR576      0.2313
     82  O         29.0570    8.5670   95.0950 O.2   576  THR576     -0.2863
     83  CB        26.4770    9.4740   97.1160 C.3   576  THR576      0.1794
     84  OG1       25.9240   10.5760   97.8470 O.3   576  THR576     -0.2208
     85  CG2       27.3810    8.6570   98.0200 C.3   576  THR576      0.0378
     86  N         16.6580    7.0440  100.7470 N.3   607  THR607     -0.1218
     87  CA        17.4780    7.3470  101.9190 C.3   607  THR607      0.1862
     88  C         16.9090    6.6340  103.1420 C.2   607  THR607      0.2287
     89  O         17.6480    6.0500  103.9390 O.2   607  THR607     -0.2866
     90  CB        17.5620    8.8720  102.1850 C.3   607  THR607      0.1770
     91  OG1       18.5120    9.4670  101.2920 O.3   607  THR607     -0.2211
     92  CG2       17.9830    9.1570  103.6220 C.3   607  THR607      0.0375
     93  N         25.9570    3.4700  105.9170 N.3   623  TYR623     -0.1227
     94  CA        25.3050    4.1360  104.8030 C.3   623  TYR623      0.1736
     95  C         26.0140    5.4310  104.4420 C.2   623  TYR623      0.2595
     96  O         26.2150    6.2940  105.2870 O.2   623  TYR623     -0.2718
     97  CB        23.8380    4.4050  105.1330 C.3   623  TYR623      0.0548
     98  CG        23.0290    4.8850  103.9550 C.ar  623  TYR623     -0.0200
     99  CD1       23.1080    4.2390  102.7280 C.ar  623  TYR623     -0.0009
    100  CD2       22.1720    5.9730  104.0730 C.ar  623  TYR623     -0.0009
    101  CE1       22.3710    4.6720  101.6440 C.ar  623  TYR623      0.0417
    102  CE2       21.4270    6.4130  102.9950 C.ar  623  TYR623      0.0417
    103  CZ        21.5290    5.7590  101.7810 C.ar  623  TYR623      0.1957
    104  OH        20.7930    6.1890  100.6990 O.3   623  TYR623     -0.2866
    105  N         26.3800    5.5610  103.1720 N.am  624  LEU624     -0.1966
    106  CA        27.0650    6.7450  102.6850 C.3   624  LEU624      0.1728
    107  C         26.0470    7.6810  102.0580 C.2   624  LEU624      0.2616
    108  O         25.4030    7.3480  101.0610 O.2   624  LEU624     -0.2715
    109  CB        28.1480    6.3640  101.6770 C.3   624  LEU624      0.0311
    110  CG        29.4140    5.7400  102.2650 C.3   624  LEU624      0.0022
    111  CD1       30.2180    5.0560  101.1820 C.3   624  LEU624      0.0001
    112  CD2       30.2550    6.7900  102.9700 C.3   624  LEU624      0.0001
    113  N         25.9080    8.8630  102.6430 N.am  625  LEU625     -0.1963
    114  CA        24.8760    9.7920  102.2040 C.3   625  LEU625      0.1728
    115  C         25.3330   11.2180  102.4710 C.2   625  LEU625      0.2616
    116  O         26.2380   11.4230  103.2760 O.2   625  LEU625     -0.2715
    117  CB        23.5520    9.5070  102.9270 C.3   625  LEU625      0.0311
    118  CG        23.3400    9.9840  104.3740 C.3   625  LEU625      0.0022
    119  CD1       21.9650    9.5650  104.8640 C.3   625  LEU625      0.0001
    120  CD2       24.4120    9.4810  105.3330 C.3   625  LEU625      0.0001
    121  N         24.7170   12.2050  101.8210 N.am  626  GLU626     -0.1977
    122  CA        25.1090   13.5950  102.0620 C.3   626  GLU626      0.1602
    123  C         24.8780   14.0040  103.4970 C.2   626  GLU626      0.2287
    124  O         23.8790   13.6260  104.1080 O.2   626  GLU626     -0.2864
    125  CB        24.3770   14.5730  101.1500 C.3   626  GLU626      0.0415
    126  CG        24.7120   14.4320   99.6850 C.3   626  GLU626      0.1163
    127  CD        23.5790   14.8910   98.7550 C.2   626  GLU626      0.3649
    128  OE1       22.3870   14.9610   99.1670 O.co2 626  GLU626     -0.2457
    129  OE2       23.8920   15.2220   97.5870 O.co2 626  GLU626     -0.2457
    130  N         21.2010   14.9830  105.1020 N.3   629  MET629     -0.1245
    131  CA        20.2480   13.9530  105.5030 C.3   629  MET629      0.1570
    132  C         20.7380   13.2470  106.7530 C.2   629  MET629      0.2261
    133  O         19.9530   12.9330  107.6410 O.2   629  MET629     -0.2867
    134  CB        20.0230   12.9400  104.3790 C.3   629  MET629      0.0387
    135  CG        19.1450   13.4560  103.2630 C.3   629  MET629      0.0595
    136  SD        19.8990   14.8780  102.4590 S.3   629  MET629     -0.1393
    137  CE        18.9190   14.9810  100.9630 C.3   629  MET629      0.0692
    138  N         23.9460   22.3610   97.4660 N.3   653  TYR653     -0.1241
    139  CA        22.7150   22.3130   96.6890 C.3   653  TYR653      0.1605
    140  C         22.4420   23.6590   96.0720 C.2   653  TYR653      0.2264
    141  O         22.6400   24.6920   96.7150 O.2   653  TYR653     -0.2867
    142  CB        21.5090   21.9500   97.5450 C.3   653  TYR653      0.0534
    143  CG        21.5760   20.6260   98.2430 C.ar  653  TYR653     -0.0201
    144  CD1       22.1790   19.5300   97.6560 C.ar  653  TYR653     -0.0009
    145  CD2       21.0750   20.4900   99.5260 C.ar  653  TYR653     -0.0009
    146  CE1       22.2500   18.3230   98.3100 C.ar  653  TYR653      0.0417
    147  CE2       21.1470   19.2860  100.1950 C.ar  653  TYR653      0.0417
    148  CZ        21.7390   18.1990   99.5760 C.ar  653  TYR653      0.1957
    149  OH        21.8400   16.9690  100.1900 O.3   653  TYR653     -0.2866
@<TRIPOS>BOND
     1    47    46    2
     2    46    45    1
     3    44    45    1
     4    45    48    1
     5    48    49    1
     6    49    50    1
     7    50    51    1
     8    13    12    2
     9    53    52    1
    10    51    52    2
    11    12    11    1
    12    52    54    1
    13    36    34    1
    14    10    11    1
    15    11    14    1
    16    67    68    1
    17    67    64    1
    18    35    34    1
    19    34    33    1
    20    64    65    1
    21    64    63    1
    22    14    15    1
    23    40    39    2
    24    69    70    1
    25    69    65   am
    26    72    71    2
    27    71    70    1
    28    71    73   am
    29    65    66    2
    30    33    30    1
    31    39    38    1
    32    73    74    1
    33    74    77    1
    34    74    75    1
    35    15    16   ar
    36    15    17   ar
    37    77    78    1
    38    16    18   ar
    39    76    75    2
    40    17    19   ar
    41    32    31    2
    42    30    31    1
    43    30    29    1
    44    75    79   am
    45    31    37   am
    46    37    38    1
    47    38    41    1
    48    41    42    1
    49    41    43    1
    50    58    57    2
    51    79    80    1
    52    82    81    2
    53    18    20   ar
    54    81    80    1
    55    29    24   am
    56    19    20   ar
    57    57    56    1
    58    20    21    1
    59    80    83    1
    60   140   139    1
    61   140   141    2
    62    24    25    2
    63    24    23    1
    64    62    60    1
    65    60    59    1
    66    60    61    1
    67   139   138    1
    68   139   142    1
    69    59    56    1
    70    56    55    1
    71    22    23    1
    72    22    28    1
    73    83    84    1
    74    83    85    1
    75    23    26    1
    76   142   143    1
    77   129   127   ar
    78   144   143   ar
    79   144   146   ar
    80    28    27    1
    81   143   145   ar
    82   146   148   ar
    83    27    26    1
    84   127   128   ar
    85   127   126    1
    86     1     2    1
    87     9     7   ar
    88     5     2    1
    89     5     6    1
    90   145   147   ar
    91   148   149    1
    92   148   147   ar
    93   126   125    1
    94     2     3    1
    95     7     6    1
    96     7     8   ar
    97   104   103    1
    98    86    87    1
    99   137   136    1
   100   108   107    2
   101   125   122    1
   102   111   110    1
   103     4     3    2
   104    91    90    1
   105   101   103   ar
   106   101    99   ar
   107   109   110    1
   108   109   106    1
   109   103   102   ar
   110   121   122    1
   111   121   115   am
   112    87    90    1
   113    87    88    1
   114   107   113   am
   115   107   106    1
   116   122   123    1
   117    90    92    1
   118   114   115    1
   119   114   113    1
   120   114   117    1
   121   110   112    1
   122   136   135    1
   123   115   116    2
   124   106   105    1
   125    99    98   ar
   126   117   118    1
   127   102   100   ar
   128    88    89    2
   129   105    95   am
   130   135   134    1
   131   123   124    2
   132    98   100   ar
   133    98    97    1
   134   118   119    1
   135   118   120    1
   136   134   131    1
   137    95    94    1
   138    95    96    2
   139    94    97    1
   140    94    93    1
   141   130   131    1
   142   131   132    1
   143   132   133    2
