@<TRIPOS>MOLECULE
tmp/4u21B01.pdb
 129 125 0 0 0
SMALL
GASTEIGER

@<TRIPOS>ATOM
      1  N         36.8080   21.0780   56.6050 N.3    90  ILE90      -0.1231
      2  CA        36.8360   20.1150   57.6920 C.3    90  ILE90       0.1692
      3  C         38.0130   19.1900   57.4410 C.2    90  ILE90       0.2593
      4  O         38.0790   18.5190   56.4030 O.2    90  ILE90      -0.2718
      5  CB        35.5310   19.2980   57.7420 C.3    90  ILE90       0.0266
      6  CG1       34.3310   20.2230   57.9810 C.3    90  ILE90       0.0019
      7  CG2       35.6290   18.2200   58.8220 C.3    90  ILE90       0.0020
      8  CD1       32.9890   19.5340   57.7700 C.3    90  ILE90       0.0001
      9  N         38.9550   19.1670   58.3790 N.am   91  THR91      -0.1939
     10  CA        40.1150   18.2880   58.2870 C.3    91  THR91       0.2028
     11  C         40.3340   17.5930   59.6270 C.2    91  THR91       0.2642
     12  O         39.8660   18.0680   60.6710 O.2    91  THR91      -0.2714
     13  CB        41.4060   19.0500   57.9120 C.3    91  THR91       0.1808
     14  OG1       41.8150   19.8600   59.0210 O.3    91  THR91      -0.2208
     15  CG2       41.1830   19.9320   56.6820 C.3    91  THR91       0.0379
     16  N         41.0470   16.4740   59.5810 N.am   92  LEU92      -0.1977
     17  CA        41.3280   15.6860   60.7760 C.3    92  LEU92       0.1596
     18  C         42.0910   16.4930   61.8290 C.2    92  LEU92       0.2287
     19  O         41.6770   16.5580   62.9960 O.2    92  LEU92      -0.2864
     20  CB        42.1150   14.4230   60.3970 C.3    92  LEU92       0.0297
     21  CG        42.5540   13.5370   61.5640 C.3    92  LEU92       0.0022
     22  CD1       41.3550   13.0860   62.3820 C.3    92  LEU92       0.0001
     23  CD2       43.3250   12.3340   61.0480 C.3    92  LEU92       0.0001
     24  N         28.1450   19.8150   60.7270 N.3   102  LYS102     -0.1231
     25  CA        28.0590   19.1180   59.4530 C.3   102  LYS102      0.1678
     26  C         28.3260   20.1310   58.3340 C.2   102  LYS102      0.2434
     27  O         28.0680   21.3280   58.4860 O.2   102  LYS102     -0.2733
     28  CB        26.6770   18.4780   59.2750 C.3   102  LYS102      0.0284
     29  CG        26.6050   17.0080   59.6890 C.3   102  LYS102      0.0035
     30  CD        26.9260   16.8290   61.1350 C.3   102  LYS102      0.0206
     31  CE        26.8530   15.3730   61.5670 C.3   102  LYS102      0.1093
     32  NZ        26.8390   15.4120   63.0280 N.3   102  LYS102     -0.1314
     33  N         28.8770   19.6640   57.2140 N.am  103  PRO103     -0.2718
     34  CA        29.3080   20.6400   56.2060 C.3   103  PRO103      0.1535
     35  C         28.1500   21.3890   55.5600 C.2   103  PRO103      0.2599
     36  O         27.0400   20.8690   55.4310 O.2   103  PRO103     -0.2715
     37  CB        30.0700   19.7860   55.1790 C.3   103  PRO103      0.0310
     38  CG        29.5140   18.3930   55.3510 C.3   103  PRO103      0.0237
     39  CD        29.2220   18.2800   56.8490 C.3   103  PRO103      0.0939
     40  N         28.4050   22.6380   55.1730 N.am  104  PHE104     -0.1960
     41  CA        27.3680   23.4350   54.5190 C.3   104  PHE104      0.1771
     42  C         27.5600   23.5460   53.0050 C.2   104  PHE104      0.2619
     43  O         26.6780   24.0480   52.3060 O.2   104  PHE104     -0.2715
     44  CB        27.2500   24.8460   55.1390 C.3   104  PHE104      0.0574
     45  CG        28.5010   25.6870   55.0250 C.ar  104  PHE104     -0.0200
     46  CD1       28.7550   26.4360   53.8850 C.ar  104  PHE104     -0.0042
     47  CD2       29.4070   25.7550   56.0800 C.ar  104  PHE104     -0.0042
     48  CE1       29.8940   27.2220   53.7890 C.ar  104  PHE104     -0.0003
     49  CE2       30.5510   26.5400   55.9920 C.ar  104  PHE104     -0.0003
     50  CZ        30.7930   27.2700   54.8340 C.ar  104  PHE104     -0.0000
     51  N         28.7190   23.1120   52.5160 N.am  105  MET105     -0.1963
     52  CA        29.0500   23.2010   51.0940 C.3   105  MET105      0.1736
     53  C         30.1050   22.1550   50.7660 C.2   105  MET105      0.2617
     54  O         31.0240   21.9130   51.5650 O.2   105  MET105     -0.2715
     55  CB        29.5350   24.6180   50.7220 C.3   105  MET105      0.0427
     56  CG        29.8230   24.8030   49.2300 C.3   105  MET105      0.0599
     57  SD        30.3320   26.4830   48.7970 S.3   105  MET105     -0.1393
     58  CE        28.9210   27.4230   49.3510 C.3   105  MET105      0.0692
     59  N         29.9660   21.5320   49.5970 N.am  106  SER106     -0.1950
     60  CA        30.9170   20.5170   49.1610 C.3   106  SER106      0.1924
     61  C         31.9550   21.1210   48.2220 C.2   106  SER106      0.2314
     62  O         31.6830   22.1120   47.5380 O.2   106  SER106     -0.2863
     63  CB        30.1890   19.3660   48.4640 C.3   106  SER106      0.2116
     64  OG        29.5210   19.8370   47.3050 O.3   106  SER106     -0.2180
     65  N         37.3600   14.9710   47.7620 N.3   215  SER215     -0.1202
     66  CA        35.9690   15.3220   47.9820 C.3   215  SER215      0.2020
     67  C         35.7470   15.6000   49.4550 C.2   215  SER215      0.2619
     68  O         35.9470   14.7150   50.2950 O.2   215  SER215     -0.2717
     69  CB        35.0660   14.1630   47.5650 C.3   215  SER215      0.2103
     70  OG        33.7120   14.5190   47.7690 O.3   215  SER215     -0.2182
     71  N         35.3480   16.8260   49.7890 N.am  216  LYS216     -0.1965
     72  CA        35.1820   17.1700   51.1900 C.3   216  LYS216      0.1728
     73  C         34.2070   18.3240   51.3510 C.2   216  LYS216      0.2616
     74  O         33.4410   18.6290   50.4420 O.2   216  LYS216     -0.2715
     75  CB        36.5380   17.4910   51.7970 C.3   216  LYS216      0.0311
     76  CG        37.2680   18.6070   51.0700 C.3   216  LYS216      0.0038
     77  CD        38.7640   18.4930   51.2820 C.3   216  LYS216      0.0206
     78  CE        39.5200   19.5800   50.5150 C.3   216  LYS216      0.1093
     79  NZ        40.9810   19.3110   50.6100 N.3   216  LYS216     -0.1314
     80  N         34.2290   18.9710   52.5140 N.am  217  GLY217     -0.1955
     81  CA        33.2450   19.9960   52.7820 C.3   217  GLY217      0.1869
     82  C         33.7660   21.0860   53.6890 C.2   217  GLY217      0.2309
     83  O         34.7570   20.8890   54.3970 O.2   217  GLY217     -0.2863
     84  N         22.4000   24.6280   60.4840 N.3   236  VAL236     -0.1231
     85  CA        22.9540   24.1990   59.1960 C.3   236  VAL236      0.1692
     86  C         22.0850   23.1100   58.5630 C.2   236  VAL236      0.2591
     87  O         21.7760   23.1700   57.3620 O.2   236  VAL236     -0.2718
     88  CB        24.4070   23.7110   59.3410 C.3   236  VAL236      0.0266
     89  CG1       24.8730   23.0260   58.0540 C.3   236  VAL236      0.0020
     90  CG2       25.3210   24.8830   59.6850 C.3   236  VAL236      0.0020
     91  N         21.6630   22.1350   59.3640 N.am  237  LEU237     -0.1980
     92  CA        20.8090   21.0760   58.8210 C.3   237  LEU237      0.1596
     93  C         19.4590   21.6210   58.3500 C.2   237  LEU237      0.2287
     94  O         18.9550   21.2200   57.2930 O.2   237  LEU237     -0.2864
     95  CB        20.6210   19.9490   59.8410 C.3   237  LEU237      0.0297
     96  CG        21.6930   18.8530   59.8020 C.3   237  LEU237      0.0022
     97  CD1       23.0530   19.3720   60.2170 C.3   237  LEU237      0.0001
     98  CD2       21.2880   17.6710   60.6750 C.3   237  LEU237      0.0001
     99  N         19.9880   23.5520   55.0880 N.3   240  SER240     -0.1202
    100  CA        20.1660   22.5720   54.0250 C.3   240  SER240      0.2020
    101  C         18.8210   22.0180   53.5740 C.2   240  SER240      0.2618
    102  O         18.4820   22.0550   52.3790 O.2   240  SER240     -0.2717
    103  CB        21.0620   21.4400   54.5210 C.3   240  SER240      0.2103
    104  OG        21.0700   20.3590   53.5900 O.3   240  SER240     -0.2182
    105  N         18.0500   21.5230   54.5340 N.am  241  GLU241     -0.1979
    106  CA        16.7890   20.8500   54.2100 C.3   241  GLU241      0.1602
    107  C         15.7270   21.7790   53.6250 C.2   241  GLU241      0.2287
    108  O         14.8790   21.3460   52.8500 O.2   241  GLU241     -0.2864
    109  CB        16.2610   20.0980   55.4240 C.3   241  GLU241      0.0415
    110  CG        17.1070   18.8720   55.7020 C.3   241  GLU241      0.1163
    111  CD        16.6270   18.0570   56.8710 C.2   241  GLU241      0.3649
    112  OE1       15.5690   18.3620   57.4470 O.co2 241  GLU241     -0.2457
    113  OE2       17.3180   17.0710   57.1920 O.co2 241  GLU241     -0.2457
    114  N         20.5550   26.7850   51.5670 N.3   245  LEU245     -0.1231
    115  CA        21.9360   26.6900   51.1090 C.3   245  LEU245      0.1693
    116  C         22.0330   26.6750   49.5740 C.2   245  LEU245      0.2592
    117  O         22.9350   27.2870   48.9960 O.2   245  LEU245     -0.2718
    118  CB        22.6370   25.4530   51.6950 C.3   245  LEU245      0.0284
    119  CG        22.6960   25.3960   53.2280 C.3   245  LEU245      0.0019
    120  CD1       23.4540   24.1510   53.6940 C.3   245  LEU245      0.0001
    121  CD2       23.3070   26.6630   53.8220 C.3   245  LEU245      0.0001
    122  N         21.1140   25.9590   48.9200 N.am  246  ASP246     -0.1974
    123  CA        21.0910   25.9490   47.4590 C.3   246  ASP246      0.1709
    124  C         20.8020   27.3430   46.8990 C.2   246  ASP246      0.2293
    125  O         21.4710   27.7860   45.9580 O.2   246  ASP246     -0.2864
    126  CB        20.0700   24.9340   46.9340 C.3   246  ASP246      0.1436
    127  CG        20.4180   23.5000   47.3100 C.2   246  ASP246      0.3671
    128  OD1       21.5860   23.1030   47.1240 O.co2 246  ASP246     -0.2456
    129  OD2       19.5160   22.7710   47.7660 O.co2 246  ASP246     -0.2456
@<TRIPOS>BOND
     1   125   124    2
     2   124   123    1
     3   126   127    1
     4   126   123    1
     5   128   127   ar
     6    64    63    1
     7   127   129   ar
     8   123   122    1
     9    62    61    2
    10    69    70    1
    11    69    66    1
    12    65    66    1
    13    66    67    1
    14    61    60    1
    15    63    60    1
    16    57    56    1
    17    57    58    1
    18   122   116   am
    19   117   116    2
    20    60    59    1
    21    56    55    1
    22    67    71   am
    23    67    68    2
    24   116   115    1
    25    59    53   am
    26    71    72    1
    27    74    73    2
    28    78    79    1
    29    78    77    1
    30    55    52    1
    31    53    52    1
    32    53    54    2
    33    76    77    1
    34    76    75    1
    35    52    51    1
    36   115   114    1
    37   115   118    1
    38    72    73    1
    39    72    75    1
    40    73    80   am
    41   118   119    1
    42    43    42    2
    43   102   101    2
    44    80    81    1
    45    51    42   am
    46    81    82    1
    47   108   107    2
    48    42    41    1
    49   119   120    1
    50   119   121    1
    51   101   100    1
    52   101   105   am
    53   104   103    1
    54   107   106    1
    55    82    83    2
    56    48    46   ar
    57    48    50   ar
    58    46    45   ar
    59   100   103    1
    60   100    99    1
    61   106   105    1
    62   106   109    1
    63    41    44    1
    64    41    40    1
    65    50    49   ar
    66    45    44    1
    67    45    47   ar
    68    40    35   am
    69    37    38    1
    70    37    34    1
    71    38    39    1
    72   109   110    1
    73    36    35    2
    74    35    34    1
    75   110   111    1
    76    49    47   ar
    77    34    33    1
    78     4     3    2
    79     1     2    1
    80    15    13    1
    81    39    33    1
    82   111   113   ar
    83   111   112   ar
    84    33    26   am
    85    94    93    2
    86    87    86    2
    87     3     2    1
    88     3     9   am
    89     2     5    1
    90     5     6    1
    91     5     7    1
    92     8     6    1
    93    13    10    1
    94    13    14    1
    95    89    88    1
    96    10     9    1
    97    10    11    1
    98    26    27    2
    99    26    25    1
   100    93    92    1
   101    86    85    1
   102    86    91   am
   103    92    91    1
   104    92    95    1
   105    85    88    1
   106    85    84    1
   107    28    25    1
   108    28    29    1
   109    88    90    1
   110    25    24    1
   111    16    11   am
   112    16    17    1
   113    11    12    2
   114    29    30    1
   115    96    95    1
   116    96    97    1
   117    96    98    1
   118    20    17    1
   119    20    21    1
   120    17    18    1
   121    23    21    1
   122    30    31    1
   123    21    22    1
   124    31    32    1
   125    18    19    2
