@<TRIPOS>MOLECULE
tmp/4u2aA00.pdb
 110 108 0 0 0
SMALL
GASTEIGER

@<TRIPOS>ATOM
      1  N        -16.4260  -20.2180  -30.2040 N.3    86  ALA86      -0.1231
      2  CA       -17.6450  -20.7920  -29.7250 C.3    86  ALA86       0.1694
      3  C        -17.4910  -21.0670  -28.2640 C.2    86  ALA86       0.2592
      4  O        -16.3480  -21.2500  -27.8090 O.2    86  ALA86      -0.2718
      5  CB       -17.9400  -22.1250  -30.4830 C.3    86  ALA86       0.0304
      6  N        -18.5860  -21.2690  -27.5230 N.am   87  ASP87      -0.1974
      7  CA       -19.9720  -21.0280  -27.9200 C.3    87  ASP87       0.1709
      8  C        -20.6080  -19.7820  -27.2450 C.2    87  ASP87       0.2293
      9  O        -21.5030  -19.1790  -27.8280 O.2    87  ASP87      -0.2864
     10  CB       -20.8400  -22.2540  -27.5800 C.3    87  ASP87       0.1436
     11  CG       -20.8710  -23.2870  -28.7120 C.2    87  ASP87       0.3671
     12  OD1      -21.4320  -23.0080  -29.7690 O.co2  87  ASP87      -0.2456
     13  OD2      -20.2350  -24.3350  -28.5740 O.co2  87  ASP87      -0.2456
     14  N        -27.4290  -29.4760  -22.0050 N.3   102  LYS102     -0.1231
     15  CA       -26.5300  -29.6990  -23.1410 C.3   102  LYS102      0.1693
     16  C        -25.3550  -28.7430  -23.3660 C.2   102  LYS102      0.2592
     17  O        -25.4980  -27.5260  -23.2430 O.2   102  LYS102     -0.2718
     18  CB       -27.3090  -29.6200  -24.4570 C.3   102  LYS102      0.0285
     19  CG       -28.3240  -30.7350  -24.6460 C.3   102  LYS102      0.0035
     20  CD       -28.4300  -31.1430  -26.1070 C.3   102  LYS102      0.0206
     21  CE       -27.1650  -31.8400  -26.5790 C.3   102  LYS102      0.1093
     22  NZ       -27.3130  -32.3870  -27.9560 N.3   102  LYS102     -0.1314
     23  N        -24.1960  -29.3090  -23.7040 N.am  103  ASP103     -0.1960
     24  CA       -23.0260  -28.5220  -24.0530 C.3   103  ASP103      0.1840
     25  C        -23.0370  -27.9040  -25.4520 C.2   103  ASP103      0.2623
     26  O        -24.0310  -27.8960  -26.1980 O.2   103  ASP103     -0.2715
     27  CB       -21.7770  -29.3880  -23.8160 C.3   103  ASP103      0.1450
     28  CG       -21.5840  -30.4720  -24.8760 C.2   103  ASP103      0.3671
     29  OD1      -22.3720  -30.5240  -25.8680 O.co2 103  ASP103     -0.2456
     30  OD2      -20.6360  -31.2880  -24.6590 O.co2 103  ASP103     -0.2456
     31  N        -21.9230  -27.2900  -25.8170 N.am  104  GLY104     -0.1940
     32  CA       -21.8110  -26.6630  -27.0970 C.3   104  GLY104      0.2014
     33  C        -22.7700  -25.5220  -27.3110 C.2   104  GLY104      0.2639
     34  O        -22.9110  -24.6610  -26.4610 O.2   104  GLY104     -0.2714
     35  N        -23.4790  -25.5260  -28.4270 N.am  105  GLY105     -0.1939
     36  CA       -24.4110  -24.4160  -28.7560 C.3   105  GLY105      0.2014
     37  C        -25.5580  -24.2330  -27.7570 C.2   105  GLY105      0.2638
     38  O        -26.2050  -23.2260  -27.7820 O.2   105  GLY105     -0.2714
     39  N        -25.8400  -25.2280  -26.9370 N.am  106  PHE106     -0.1973
     40  CA       -26.9210  -25.1660  -25.9620 C.3   106  PHE106      0.1639
     41  C        -26.5090  -24.4170  -24.7080 C.2   106  PHE106      0.2290
     42  O        -27.3360  -24.1850  -23.8210 O.2   106  PHE106     -0.2864
     43  CB       -27.4410  -26.5500  -25.6510 C.3   106  PHE106      0.0560
     44  CG       -28.2150  -27.1570  -26.8210 C.ar  106  PHE106     -0.0200
     45  CD1      -29.5330  -26.8530  -27.0200 C.ar  106  PHE106     -0.0042
     46  CD2      -27.5640  -28.0290  -27.6840 C.ar  106  PHE106     -0.0042
     47  CE1      -30.2260  -27.4020  -28.1230 C.ar  106  PHE106     -0.0003
     48  CE2      -28.2430  -28.5770  -28.7890 C.ar  106  PHE106     -0.0003
     49  CZ       -29.5450  -28.2180  -29.0000 C.ar  106  PHE106     -0.0000
     50  N        -21.1020  -17.9920  -31.5600 N.3   123  PHE123     -0.1241
     51  CA       -21.1410  -18.9370  -32.6980 C.3   123  PHE123      0.1605
     52  C        -22.5140  -19.0790  -33.2480 C.2   123  PHE123      0.2264
     53  O        -23.4390  -19.3840  -32.5470 O.2   123  PHE123     -0.2867
     54  CB       -20.5920  -20.2680  -32.2280 C.3   123  PHE123      0.0534
     55  CG       -20.5460  -21.3530  -33.3760 C.ar  123  PHE123     -0.0203
     56  CD1      -19.4560  -21.4650  -34.1620 C.ar  123  PHE123     -0.0042
     57  CD2      -21.6600  -22.1240  -33.6400 C.ar  123  PHE123     -0.0042
     58  CE1      -19.4180  -22.3960  -35.2370 C.ar  123  PHE123     -0.0003
     59  CE2      -21.6400  -23.0650  -34.6870 C.ar  123  PHE123     -0.0003
     60  CZ       -20.4860  -23.1920  -35.4510 C.ar  123  PHE123     -0.0000
     61  N        -25.2420  -20.9320  -34.6620 N.3   125  ASN125     -0.1240
     62  CA       -25.8930  -22.2400  -34.8280 C.3   125  ASN125      0.1653
     63  C        -27.0400  -22.1680  -35.8150 C.2   125  ASN125      0.2266
     64  O        -27.4070  -21.0770  -36.3100 O.2   125  ASN125     -0.2867
     65  CB       -26.4050  -22.7770  -33.4730 C.3   125  ASN125      0.1155
     66  CG       -25.2510  -23.1750  -32.5690 C.2   125  ASN125      0.2627
     67  OD1      -24.6800  -24.3030  -32.6770 O.2   125  ASN125     -0.2716
     68  ND2      -24.8590  -22.2790  -31.7160 N.am  125  ASN125     -0.0877
     69  N        -30.0870  -22.3680  -35.3250 N.3   127  TRP127     -0.1241
     70  CA       -31.1630  -21.5520  -34.7570 C.3   127  TRP127      0.1605
     71  C        -30.8940  -20.0260  -34.5510 C.2   127  TRP127      0.2264
     72  O        -31.7650  -19.2960  -34.0780 O.2   127  TRP127     -0.2867
     73  CB       -31.6060  -22.1380  -33.4320 C.3   127  TRP127      0.0550
     74  CG       -30.4760  -22.3220  -32.4350 C.ar  127  TRP127      0.0003
     75  CD1      -29.8330  -21.3030  -31.6810 C.ar  127  TRP127      0.0946
     76  CD2      -29.8080  -23.5250  -32.1160 C.ar  127  TRP127      0.0152
     77  NE1      -28.7890  -21.8570  -30.9910 N.ar  127  TRP127     -0.2442
     78  CE2      -28.7690  -23.2060  -31.2090 C.ar  127  TRP127      0.0810
     79  CE3      -29.9510  -24.8460  -32.5290 C.ar  127  TRP127      0.0012
     80  CZ2      -27.9740  -24.1440  -30.6680 C.ar  127  TRP127      0.0191
     81  CZ3      -29.1650  -25.7620  -31.9920 C.ar  127  TRP127      0.0001
     82  CH2      -28.1560  -25.4290  -31.0790 C.ar  127  TRP127      0.0015
     83  N        -16.4320  -24.4050  -27.6270 N.3   208  GLY208     -0.1210
     84  CA       -16.8740  -25.1800  -28.8320 C.3   208  GLY208      0.1956
     85  C        -16.6280  -26.6590  -28.7840 C.2   208  GLY208      0.2612
     86  O        -15.8160  -27.1400  -28.0010 O.2   208  GLY208     -0.2717
     87  N        -17.3300  -27.3880  -29.6660 N.am  209  LEU209     -0.1965
     88  CA       -17.1160  -28.8230  -29.7570 C.3   209  LEU209      0.1728
     89  C        -15.9690  -29.2310  -30.6770 C.2   209  LEU209      0.2616
     90  O        -15.8260  -30.4300  -30.9880 O.2   209  LEU209     -0.2715
     91  CB       -18.3820  -29.5050  -30.1340 C.3   209  LEU209      0.0311
     92  CG       -19.5940  -29.1890  -29.2430 C.3   209  LEU209      0.0022
     93  CD1      -20.8210  -29.9850  -29.7270 C.3   209  LEU209      0.0001
     94  CD2      -19.2800  -29.3710  -27.7780 C.3   209  LEU209      0.0001
     95  N        -15.1210  -28.3020  -31.0370 N.am  210  SER210     -0.1950
     96  CA       -13.9770  -28.5920  -31.9340 C.3   210  SER210      0.1924
     97  C        -12.7940  -27.8050  -31.4290 C.2   210  SER210      0.2314
     98  O        -12.9170  -26.8070  -30.6980 O.2   210  SER210     -0.2863
     99  CB       -14.3310  -28.2220  -33.3570 C.3   210  SER210      0.2116
    100  OG       -14.5730  -26.7990  -33.4850 O.3   210  SER210     -0.2180
    101  N        -12.3880  -24.1100  -32.2250 N.3   213  HIS213     -0.1241
    102  CA       -13.4910  -23.1430  -31.8260 C.3   213  HIS213      0.1621
    103  C        -13.5040  -22.9940  -30.2940 C.2   213  HIS213      0.2264
    104  O        -14.4730  -23.3360  -29.6540 O.2   213  HIS213     -0.2867
    105  CB       -14.8280  -23.6220  -32.3370 C.3   213  HIS213      0.0745
    106  CG       -15.0190  -23.4370  -33.8110 C.ar  213  HIS213      0.0817
    107  ND1      -14.4570  -24.2960  -34.7360 N.ar  213  HIS213     -0.2268
    108  CD2      -15.6820  -22.5060  -34.5310 C.ar  213  HIS213      0.1154
    109  CE1      -14.8180  -23.9340  -35.9490 C.ar  213  HIS213      0.1986
    110  NE2      -15.5630  -22.8480  -35.8510 N.ar  213  HIS213     -0.2212
@<TRIPOS>BOND
     1    64    63    2
     2   109   110   ar
     3   109   107   ar
     4   110   108   ar
     5    63    62    1
     6    60    58   ar
     7    60    59   ar
     8    69    70    1
     9    58    56   ar
    10    62    61    1
    11    62    65    1
    12    70    71    1
    13    70    73    1
    14   107   106   ar
    15    59    57   ar
    16    71    72    2
    17   108   106   ar
    18    56    55   ar
    19   106   105    1
    20    57    55   ar
    21   100    99    1
    22    65    66    1
    23    73    74    1
    24    55    54    1
    25    99    96    1
    26    52    51    1
    27    52    53    2
    28    51    54    1
    29    51    50    1
    30    67    66    2
    31    66    68   am
    32    79    76   ar
    33    79    81   ar
    34    74    76   ar
    35    74    75   ar
    36   105   102    1
    37   101   102    1
    38    76    78   ar
    39    81    82   ar
    40    96    97    1
    41    96    95    1
    42   102   103    1
    43    75    77   ar
    44    97    98    2
    45    78    77   ar
    46    78    80   ar
    47    82    80   ar
    48    95    89   am
    49    90    89    2
    50    89    88    1
    51     5     2    1
    52   103   104    2
    53     1     2    1
    54    91    88    1
    55    91    92    1
    56    12    11   ar
    57    88    87    1
    58    93    92    1
    59     2     3    1
    60    87    85   am
    61    92    94    1
    62    49    48   ar
    63    49    47   ar
    64    84    85    1
    65    84    83    1
    66    48    46   ar
    67    85    86    2
    68    36    35    1
    69    36    37    1
    70    11    13   ar
    71    11    10    1
    72    35    33   am
    73     3     4    2
    74     3     6   am
    75    47    45   ar
    76    22    21    1
    77     7    10    1
    78     7     6    1
    79     7     8    1
    80     9     8    2
    81    38    37    2
    82    37    39   am
    83    46    44   ar
    84    33    32    1
    85    33    34    2
    86    32    31    1
    87    45    44   ar
    88    39    40    1
    89    44    43    1
    90    21    20    1
    91    26    25    2
    92    20    19    1
    93    40    43    1
    94    40    41    1
    95    29    28   ar
    96    31    25   am
    97    25    24    1
    98    28    30   ar
    99    28    27    1
   100    41    42    2
   101    19    18    1
   102    18    15    1
   103    24    27    1
   104    24    23    1
   105    23    16   am
   106    16    17    2
   107    16    15    1
   108    15    14    1
