@<TRIPOS>MOLECULE
tmp/4u2kB00.pdb
 132 125 0 0 0
SMALL
GASTEIGER

@<TRIPOS>ATOM
      1  N         19.1550   30.4020   -1.5140 N.3    67  ILE67      -0.1245
      2  CA        18.0020   30.3990   -2.4130 C.3    67  ILE67       0.1561
      3  C         16.7710   29.7650   -1.7840 C.2    67  ILE67       0.2260
      4  O         16.8220   28.6410   -1.3090 O.2    67  ILE67      -0.2867
      5  CB        18.3130   29.6780   -3.7270 C.3    67  ILE67       0.0252
      6  CG1       19.5400   30.3050   -4.3880 C.3    67  ILE67       0.0019
      7  CG2       17.1040   29.7230   -4.6610 C.3    67  ILE67       0.0019
      8  CD1       19.9340   29.6490   -5.6830 C.3    67  ILE67       0.0001
      9  N         15.1330   43.1810    1.1060 N.3    89  ARG89      -0.1245
     10  CA        15.5270   42.2240    0.1050 C.3    89  ARG89       0.1563
     11  C         16.0220   42.9840   -1.1110 C.2    89  ARG89       0.2260
     12  O         15.3440   43.8890   -1.5790 O.2    89  ARG89      -0.2867
     13  CB        14.3460   41.3510   -0.2840 C.3    89  ARG89       0.0307
     14  CG        14.6690   40.4090   -1.3980 C.3    89  ARG89       0.0489
     15  CD        15.7010   39.4630   -0.9510 C.3    89  ARG89       0.2205
     16  NE        16.0790   38.5150   -1.9860 N.pl3  89  ARG89      -0.0865
     17  CZ        16.8200   37.4390   -1.7530 C.cat  89  ARG89       0.5346
     18  NH1       17.2430   37.1740   -0.5120 N.pl3  89  ARG89       0.1354
     19  NH2       17.1260   36.6280   -2.7520 N.pl3  89  ARG89       0.1354
     20  N         18.0670   40.0900   -8.2320 N.3    92  THR92      -0.1203
     21  CA        17.7660   40.2050   -9.6500 C.3    92  THR92       0.1994
     22  C         16.4300   39.5520   -9.8870 C.2    92  THR92       0.2619
     23  O         16.0150   38.6890   -9.1090 O.2    92  THR92      -0.2717
     24  CB        18.7840   39.4690  -10.5270 C.3    92  THR92       0.1784
     25  OG1       18.8690   38.0920  -10.1220 O.3    92  THR92      -0.2211
     26  CG2       20.1370   40.1290  -10.4360 C.3    92  THR92       0.0376
     27  N         15.7560   39.9510  -10.9600 N.am   93  THR93      -0.1938
     28  CA        14.4720   39.3450  -11.2740 C.3    93  THR93       0.2028
     29  C         14.2160   39.3110  -12.7750 C.2    93  THR93       0.2642
     30  O         14.9440   39.9260  -13.5560 O.2    93  THR93      -0.2714
     31  CB        13.3130   40.0670  -10.5670 C.3    93  THR93       0.1808
     32  OG1       12.1020   39.3410  -10.7930 O.3    93  THR93      -0.2208
     33  CG2       13.1470   41.4950  -11.0950 C.3    93  THR93       0.0379
     34  N         13.1800   38.5750  -13.1690 N.am   94  GLY94      -0.1954
     35  CA        12.7770   38.5100  -14.5610 C.3    94  GLY94       0.1869
     36  C         11.3380   38.9560  -14.7550 C.2    94  GLY94       0.2309
     37  O         10.4000   38.3400  -14.2390 O.2    94  GLY94      -0.2863
     38  N         12.5890   27.4920   -9.6400 N.3   160  PHE160     -0.1241
     39  CA        13.1070   28.3170  -10.7090 C.3   160  PHE160      0.1605
     40  C         12.4830   27.8660  -12.0200 C.2   160  PHE160      0.2264
     41  O         12.2830   28.6620  -12.9380 O.2   160  PHE160     -0.2867
     42  CB        14.6400   28.2340  -10.8290 C.3   160  PHE160      0.0534
     43  CG        15.2020   29.1370  -11.9060 C.ar  160  PHE160     -0.0203
     44  CD1       15.4900   30.4650  -11.6290 C.ar  160  PHE160     -0.0042
     45  CD2       15.3770   28.6750  -13.2110 C.ar  160  PHE160     -0.0042
     46  CE1       15.9790   31.3120  -12.6140 C.ar  160  PHE160     -0.0003
     47  CE2       15.8760   29.5130  -14.2120 C.ar  160  PHE160     -0.0003
     48  CZ        16.1700   30.8350  -13.9160 C.ar  160  PHE160     -0.0000
     49  N          7.7140   28.7930  -12.4640 N.3   164  GLN164     -0.1245
     50  CA         7.7650   29.9720  -13.3370 C.3   164  GLN164      0.1566
     51  C          7.4160   29.5670  -14.7720 C.2   164  GLN164      0.2260
     52  O          7.7320   30.2680  -15.7370 O.2   164  GLN164     -0.2867
     53  CB         9.1380   30.6500  -13.2520 C.3   164  GLN164      0.0367
     54  CG         9.5830   30.9310  -11.7770 C.3   164  GLN164      0.0905
     55  CD        10.9010   31.7060  -11.6700 C.2   164  GLN164      0.2608
     56  OE1       11.3980   32.2130  -12.6580 O.2   164  GLN164     -0.2717
     57  NE2       11.4650   31.7890  -10.4580 N.am  164  GLN164     -0.0878
     58  N          8.6150   27.3680  -16.9070 N.3   166  ARG166     -0.1245
     59  CA         9.6500   27.0790  -17.9040 C.3   166  ARG166      0.1563
     60  C          9.4790   25.6710  -18.3820 C.2   166  ARG166      0.2260
     61  O          9.2390   24.7730  -17.5930 O.2   166  ARG166     -0.2867
     62  CB        11.0590   27.2740  -17.3300 C.3   166  ARG166      0.0307
     63  CG        11.3860   28.7270  -17.1290 C.3   166  ARG166      0.0489
     64  CD        12.8180   28.9750  -16.6890 C.3   166  ARG166      0.2205
     65  NE        13.1330   30.3880  -16.8960 N.pl3 166  ARG166     -0.0865
     66  CZ        12.8540   31.3510  -16.0270 C.cat 166  ARG166      0.5346
     67  NH1       12.2930   31.0520  -14.8600 N.pl3 166  ARG166      0.1354
     68  NH2       13.1560   32.6100  -16.3160 N.pl3 166  ARG166      0.1354
     69  N          8.7990   37.4330  -11.7790 N.3   193  PHE193     -0.1227
     70  CA         8.9600   36.1880  -11.0520 C.3   193  PHE193      0.1736
     71  C         10.1790   36.2750  -10.1500 C.2   193  PHE193      0.2595
     72  O         11.2320   36.7670  -10.5680 O.2   193  PHE193     -0.2718
     73  CB         9.1990   35.0250  -12.0100 C.3   193  PHE193      0.0547
     74  CG         7.9470   34.3550  -12.5220 C.ar  193  PHE193     -0.0202
     75  CD1        7.0750   33.7180  -11.6610 C.ar  193  PHE193     -0.0042
     76  CD2        7.6950   34.2860  -13.8980 C.ar  193  PHE193     -0.0042
     77  CE1        5.9200   33.0750  -12.1400 C.ar  193  PHE193     -0.0003
     78  CE2        6.5500   33.6450  -14.3880 C.ar  193  PHE193     -0.0003
     79  CZ         5.6650   33.0320  -13.5090 C.ar  193  PHE193     -0.0000
     80  N         10.0480   35.7900   -8.9200 N.am  194  GLU194     -0.1965
     81  CA        11.2320   35.5120   -8.1070 C.3   194  GLU194      0.1733
     82  C         10.9420   34.4650   -7.0280 C.2   194  GLU194      0.2616
     83  O          9.8720   33.8340   -7.0350 O.2   194  GLU194     -0.2715
     84  CB        11.8560   36.8020   -7.5480 C.3   194  GLU194      0.0429
     85  CG        10.8920   37.6520   -6.7730 C.3   194  GLU194      0.1163
     86  CD        10.7040   37.1060   -5.4020 C.2   194  GLU194      0.3649
     87  OE1        9.6200   36.5430   -5.1170 O.co2 194  GLU194     -0.2457
     88  OE2       11.6700   37.1990   -4.6330 O.co2 194  GLU194     -0.2457
     89  N         11.8780   34.2560   -6.1100 N.am  195  MET195     -0.1963
     90  CA        11.7790   33.0560   -5.2930 C.3   195  MET195      0.1736
     91  C         11.8100   33.2170   -3.7820 C.2   195  MET195      0.2616
     92  O         11.8230   32.2150   -3.0810 O.2   195  MET195     -0.2715
     93  CB        12.8440   32.0490   -5.7120 C.3   195  MET195      0.0427
     94  CG        12.7800   31.6620   -7.1860 C.3   195  MET195      0.0599
     95  SD        14.0390   30.4160   -7.5190 S.3   195  MET195     -0.1393
     96  CE        13.8100   29.4280   -6.0340 C.3   195  MET195      0.0692
     97  N         11.8090   34.4500   -3.2820 N.am  196  GLU196     -0.1977
     98  CA        11.9240   34.6580   -1.8440 C.3   196  GLU196      0.1602
     99  C         10.8760   35.5990   -1.2460 C.2   196  GLU196      0.2287
    100  O         10.6220   35.5390   -0.0590 O.2   196  GLU196     -0.2864
    101  CB        13.3330   35.1590   -1.4650 C.3   196  GLU196      0.0415
    102  CG        14.4570   34.1340   -1.6250 C.3   196  GLU196      0.1163
    103  CD        14.8920   34.0140   -3.0660 C.2   196  GLU196      0.3649
    104  OE1       14.7130   35.0170   -3.7860 O.co2 196  GLU196     -0.2457
    105  OE2       15.3970   32.9420   -3.4810 O.co2 196  GLU196     -0.2457
    106  N         16.7950   41.7660  -15.1350 N.3   218  ILE218     -0.1231
    107  CA        17.8970   41.2010  -15.9440 C.3   218  ILE218      0.1692
    108  C         17.4070   40.3810  -17.1500 C.2   218  ILE218      0.2591
    109  O         18.2080   39.9030  -17.9540 O.2   218  ILE218     -0.2718
    110  CB        18.8470   40.2790  -15.1110 C.3   218  ILE218      0.0266
    111  CG1       18.0880   39.0530  -14.5890 C.3   218  ILE218      0.0019
    112  CG2       19.5080   41.0630  -13.9900 C.3   218  ILE218      0.0020
    113  CD1       18.9650   37.9540  -13.9600 C.3   218  ILE218      0.0001
    114  N         16.0960   40.1910  -17.2470 N.am  219  ILE219     -0.1980
    115  CA        15.5110   39.4460  -18.3530 C.3   219  ILE219      0.1595
    116  C         14.0080   39.7070  -18.4240 C.2   219  ILE219      0.2287
    117  O         13.3530   39.9880  -17.4110 O.2   219  ILE219     -0.2864
    118  CB        15.8110   37.9220  -18.2500 C.3   219  ILE219      0.0276
    119  CG1       15.6800   37.2370  -19.6130 C.3   219  ILE219      0.0022
    120  CG2       14.9230   37.2480  -17.2110 C.3   219  ILE219      0.0022
    121  CD1       16.1920   35.7940  -19.6320 C.3   219  ILE219      0.0001
    122  N         10.8820   37.7170  -20.3380 N.3   221  ARG221     -0.1245
    123  CA        10.5840   36.5100  -21.0990 C.3   221  ARG221      0.1563
    124  C          9.6940   36.8150  -22.3050 C.2   221  ARG221      0.2260
    125  O          9.5260   35.9720  -23.1800 O.2   221  ARG221     -0.2867
    126  CB         9.8980   35.4530  -20.2250 C.3   221  ARG221      0.0307
    127  CG        10.2770   35.4530  -18.7500 C.3   221  ARG221      0.0489
    128  CD        10.8870   34.1170  -18.3570 C.3   221  ARG221      0.2205
    129  NE        10.0890   32.9700  -18.7900 N.pl3 221  ARG221     -0.0865
    130  CZ         9.3540   32.1990  -17.9950 C.cat 221  ARG221      0.5346
    131  NH1        9.2870   32.4350  -16.6920 N.pl3 221  ARG221      0.1354
    132  NH2        8.6890   31.1760  -18.5090 N.pl3 221  ARG221      0.1354
@<TRIPOS>BOND
     1   125   124    2
     2   124   123    1
     3   123   122    1
     4   123   126    1
     5   126   127    1
     6   121   119    1
     7   119   118    1
     8   129   128    1
     9   129   130    2
    10   127   128    1
    11   132   130    1
    12   116   115    1
    13   116   117    2
    14    60    59    1
    15    60    61    2
    16   115   118    1
    17   115   114    1
    18   118   120    1
    19   130   131    1
    20   109   108    2
    21    59    62    1
    22    59    58    1
    23    62    63    1
    24   114   108   am
    25   108   107    1
    26    63    64    1
    27    65    64    1
    28    65    66    2
    29    68    66    1
    30    66    67    1
    31   107   106    1
    32   107   110    1
    33    52    51    2
    34   110   111    1
    35   110   112    1
    36    51    50    1
    37    36    35    1
    38    36    37    2
    39   111   113    1
    40    35    34    1
    41    78    76   ar
    42    78    79   ar
    43    47    48   ar
    44    47    45   ar
    45    48    46   ar
    46    76    74   ar
    47    30    29    2
    48    79    77   ar
    49    50    53    1
    50    50    49    1
    51    53    54    1
    52    45    43   ar
    53    34    29   am
    54    41    40    2
    55    29    28    1
    56    56    55    2
    57    46    44   ar
    58    74    73    1
    59    74    75   ar
    60    77    75   ar
    61    40    39    1
    62    73    70    1
    63    43    44   ar
    64    43    42    1
    65    69    70    1
    66    54    55    1
    67    55    57   am
    68    28    27    1
    69    28    31    1
    70    33    31    1
    71    70    71    1
    72    27    22   am
    73    42    39    1
    74    32    31    1
    75    39    38    1
    76    72    71    2
    77    24    26    1
    78    24    25    1
    79    24    21    1
    80    71    80   am
    81    22    21    1
    82    22    23    2
    83    21    20    1
    84    80    81    1
    85    81    84    1
    86    81    82    1
    87    84    85    1
    88    95    94    1
    89    95    96    1
    90    94    93    1
    91    83    82    2
    92    82    89   am
    93    85    86    1
    94    89    90    1
    95    93    90    1
    96     8     6    1
    97    86    87   ar
    98    86    88   ar
    99    90    91    1
   100     7     5    1
   101     6     5    1
   102   104   103   ar
   103    91    97   am
   104    91    92    2
   105     5     2    1
   106   105   103   ar
   107    97    98    1
   108   103   102    1
   109    19    17    1
   110     2     3    1
   111     2     1    1
   112    16    17    2
   113    16    15    1
   114    98   101    1
   115    98    99    1
   116     3     4    2
   117    17    18    1
   118   102   101    1
   119    12    11    2
   120    14    15    1
   121    14    13    1
   122    99   100    2
   123    11    10    1
   124    13    10    1
   125    10     9    1
