@<TRIPOS>MOLECULE
tmp/4u2pB01.pdb
 115 109 0 0 0
SMALL
GASTEIGER

@<TRIPOS>ATOM
      1  N          1.7450  185.6050   67.6000 N.3   395  GLU395     -0.1245
      2  CA         2.5560  185.3410   66.4200 C.3   395  GLU395      0.1567
      3  C          2.3910  183.8970   65.9720 C.2   395  GLU395      0.2260
      4  O          2.5960  182.9770   66.7620 O.2   395  GLU395     -0.2867
      5  CB         4.0300  185.6420   66.6970 C.3   395  GLU395      0.0388
      6  CG         4.9410  185.4550   65.4930 C.3   395  GLU395      0.1160
      7  CD         4.8800  186.6150   64.5200 C.2   395  GLU395      0.3649
      8  OE1        5.8470  187.4050   64.4690 O.co2 395  GLU395     -0.2457
      9  OE2        3.8670  186.7380   63.8020 O.co2 395  GLU395     -0.2457
     10  N          3.4150  180.5020   66.8920 N.3   398  TYR398     -0.1241
     11  CA         3.8800  180.3930   68.2680 C.3   398  TYR398      0.1605
     12  C          2.7200  180.4940   69.2390 C.2   398  TYR398      0.2264
     13  O          2.5420  179.6430   70.1070 O.2   398  TYR398     -0.2867
     14  CB         4.9350  181.4600   68.5500 C.3   398  TYR398      0.0534
     15  CG         6.1700  181.2840   67.6960 C.ar  398  TYR398     -0.0201
     16  CD1        7.1810  180.4160   68.0780 C.ar  398  TYR398     -0.0009
     17  CD2        6.3130  181.9660   66.4950 C.ar  398  TYR398     -0.0009
     18  CE1        8.3080  180.2410   67.2970 C.ar  398  TYR398      0.0417
     19  CE2        7.4380  181.8000   65.7070 C.ar  398  TYR398      0.0417
     20  CZ         8.4320  180.9360   66.1150 C.ar  398  TYR398      0.1957
     21  OH         9.5540  180.7620   65.3390 O.3   398  TYR398     -0.2866
     22  N          8.0380  192.4690   70.7240 N.3   443  TYR443     -0.1241
     23  CA         8.6330  191.4680   71.6030 C.3   443  TYR443      0.1605
     24  C          9.5460  192.1460   72.6100 C.2   443  TYR443      0.2264
     25  O          9.3400  192.0660   73.8210 O.2   443  TYR443     -0.2867
     26  CB         9.4140  190.4240   70.7930 C.3   443  TYR443      0.0534
     27  CG         8.6350  189.7830   69.6540 C.ar  443  TYR443     -0.0201
     28  CD1        7.2620  189.9560   69.5330 C.ar  443  TYR443     -0.0009
     29  CD2        9.2810  189.0170   68.6900 C.ar  443  TYR443     -0.0009
     30  CE1        6.5630  189.4000   68.4860 C.ar  443  TYR443      0.0417
     31  CE2        8.5800  188.4430   67.6440 C.ar  443  TYR443      0.0417
     32  CZ         7.2210  188.6380   67.5520 C.ar  443  TYR443      0.1957
     33  OH         6.5150  188.0760   66.5180 O.3   443  TYR443     -0.2866
     34  N          9.1380  183.3660   71.0200 N.3   471  PRO471     -0.2102
     35  CA        10.3410  183.1960   70.1960 C.3   471  PRO471      0.1504
     36  C         11.2460  184.4120   70.3180 C.2   471  PRO471      0.2576
     37  O         11.2730  185.2560   69.4240 O.2   471  PRO471     -0.2718
     38  CB         9.7860  183.0680   68.7780 C.3   471  PRO471      0.0282
     39  CG         8.4510  183.7430   68.8400 C.3   471  PRO471      0.0208
     40  CD         7.9160  183.4090   70.2000 C.3   471  PRO471      0.0893
     41  N         11.9760  184.4920   71.4260 N.am  472  LEU472     -0.1966
     42  CA        12.7910  185.6590   71.7330 C.3   472  LEU472      0.1728
     43  C         14.2710  185.3810   71.5060 C.2   472  LEU472      0.2616
     44  O         14.8730  184.5700   72.2120 O.2   472  LEU472     -0.2715
     45  CB        12.5560  186.0900   73.1790 C.3   472  LEU472      0.0311
     46  CG        13.0810  187.4630   73.5740 C.3   472  LEU472      0.0022
     47  CD1       12.4400  188.5190   72.6980 C.3   472  LEU472      0.0001
     48  CD2       12.7800  187.7250   75.0320 C.3   472  LEU472      0.0001
     49  N         14.8560  186.0700   70.5320 N.am  473  THR473     -0.1951
     50  CA        16.2500  185.8440   70.1760 C.3   473  THR473      0.1897
     51  C         17.1440  186.2600   71.3330 C.2   473  THR473      0.2313
     52  O         16.9800  187.3430   71.8940 O.2   473  THR473     -0.2863
     53  CB        16.6630  186.6260   68.9090 C.3   473  THR473      0.1794
     54  OG1       15.7380  186.3700   67.8460 O.3   473  THR473     -0.2208
     55  CG2       18.0650  186.2290   68.4700 C.3   473  THR473      0.0378
     56  N         20.1340  192.0940   75.5520 N.3   478  ARG478     -0.1245
     57  CA        19.0800  191.5790   76.4140 C.3   478  ARG478      0.1563
     58  C         19.6060  190.8130   77.6230 C.2   478  ARG478      0.2260
     59  O         19.0450  190.9110   78.7160 O.2   478  ARG478     -0.2867
     60  CB        18.1240  190.7190   75.5980 C.3   478  ARG478      0.0307
     61  CG        17.3810  191.5440   74.5650 C.3   478  ARG478      0.0489
     62  CD        16.5180  190.7070   73.6520 C.3   478  ARG478      0.2205
     63  NE        15.7210  191.5620   72.7810 N.pl3 478  ARG478     -0.0865
     64  CZ        15.0360  191.1280   71.7310 C.cat 478  ARG478      0.5346
     65  NH1       15.0660  189.8440   71.4040 N.pl3 478  ARG478      0.1354
     66  NH2       14.3340  191.9820   70.9990 N.pl3 478  ARG478      0.1354
     67  N         17.9130  191.7360   62.6240 N.3   599  SER599     -0.1217
     68  CA        19.1560  191.0800   63.0150 C.3   599  SER599      0.1889
     69  C         19.8940  190.5120   61.8040 C.2   599  SER599      0.2288
     70  O         21.1120  190.3560   61.8310 O.2   599  SER599     -0.2866
     71  CB        18.8820  189.9690   64.0310 C.3   599  SER599      0.2089
     72  OG        18.0340  188.9790   63.4790 O.3   599  SER599     -0.2183
     73  N          7.8640  191.6540   56.7440 N.3   631  THR631     -0.1218
     74  CA         8.2530  190.3160   56.3150 C.3   631  THR631      0.1862
     75  C          7.3460  189.8550   55.1780 C.2   631  THR631      0.2287
     76  O          7.7960  189.2410   54.1960 O.2   631  THR631     -0.2866
     77  CB         8.1760  189.2960   57.4680 C.3   631  THR631      0.1770
     78  OG1        8.7210  189.8680   58.6620 O.3   631  THR631     -0.2211
     79  CG2        8.9420  188.0340   57.1140 C.3   631  THR631      0.0375
     80  N         14.7320  184.2850   58.8410 N.3   650  GLU650     -0.1245
     81  CA        14.8820  183.2590   59.8730 C.3   650  GLU650      0.1567
     82  C         14.5060  181.8760   59.3440 C.2   650  GLU650      0.2260
     83  O         13.5160  181.7320   58.6260 O.2   650  GLU650     -0.2867
     84  CB        14.0140  183.5980   61.0920 C.3   650  GLU650      0.0388
     85  CG        14.1070  185.0420   61.5930 C.3   650  GLU650      0.1160
     86  CD        15.3590  185.3250   62.4140 C.2   650  GLU650      0.3649
     87  OE1       15.2710  186.1370   63.3610 O.co2 650  GLU650     -0.2457
     88  OE2       16.4280  184.7490   62.1210 O.co2 650  GLU650     -0.2457
     89  N         13.2530  179.3740   60.8020 N.3   652  THR652     -0.1203
     90  CA        11.9370  179.0170   61.3070 C.3   652  THR652      0.1994
     91  C         10.8460  179.6050   60.4290 C.2   652  THR652      0.2617
     92  O         10.0060  178.8770   59.9020 O.2   652  THR652     -0.2717
     93  CB        11.7270  179.5070   62.7500 C.3   652  THR652      0.1784
     94  OG1       11.5560  180.9300   62.7550 O.3   652  THR652     -0.2211
     95  CG2       12.9140  179.1310   63.6150 C.3   652  THR652      0.0376
     96  N         10.8690  180.9250   60.2720 N.am  653  MET653     -0.1979
     97  CA         9.8740  181.6110   59.4610 C.3   653  MET653      0.1605
     98  C          9.8960  181.1010   58.0260 C.2   653  MET653      0.2287
     99  O          8.8500  180.9420   57.3960 O.2   653  MET653     -0.2864
    100  CB        10.1030  183.1210   59.5010 C.3   653  MET653      0.0413
    101  CG         9.0060  183.9350   58.8440 C.3   653  MET653      0.0598
    102  SD         7.4070  183.6500   59.6230 S.3   653  MET653     -0.1393
    103  CE         7.8200  183.8530   61.3530 C.3   653  MET653      0.0692
    104  N         16.4160  180.8750   70.1980 N.3   677  TYR677     -0.1241
    105  CA        15.3730  181.4710   71.0310 C.3   677  TYR677      0.1605
    106  C         15.4950  180.9650   72.4530 C.2   677  TYR677      0.2264
    107  O         15.8730  179.8190   72.6740 O.2   677  TYR677     -0.2867
    108  CB        13.9770  181.1460   70.4960 C.3   677  TYR677      0.0534
    109  CG        13.7170  181.6060   69.0850 C.ar  677  TYR677     -0.0201
    110  CD1       14.3300  182.7390   68.5810 C.ar  677  TYR677     -0.0009
    111  CD2       12.8620  180.8970   68.2530 C.ar  677  TYR677     -0.0009
    112  CE1       14.0930  183.1600   67.2890 C.ar  677  TYR677      0.0417
    113  CE2       12.6200  181.3090   66.9600 C.ar  677  TYR677      0.0417
    114  CZ        13.2380  182.4410   66.4830 C.ar  677  TYR677      0.1957
    115  OH        13.0020  182.8560   65.1930 O.3   677  TYR677     -0.2866
@<TRIPOS>BOND
     1    76    75    2
     2    75    74    1
     3    74    73    1
     4    74    77    1
     5    79    77    1
     6    99    98    2
     7    77    78    1
     8    98    97    1
     9    83    82    2
    10    80    81    1
    11   101   100    1
    12   101   102    1
    13    82    81    1
    14    97   100    1
    15    97    96    1
    16   102   103    1
    17    81    84    1
    18    92    91    2
    19    96    91   am
    20    91    90    1
    21    89    90    1
    22    84    85    1
    23    90    93    1
    24    85    86    1
    25    69    70    2
    26    69    68    1
    27    88    86   ar
    28    86    87   ar
    29    67    68    1
    30    93    94    1
    31    93    95    1
    32    68    71    1
    33    72    71    1
    34     9     7   ar
    35     8     7   ar
    36     7     6    1
    37   115   114    1
    38    21    20    1
    39     6     5    1
    40    19    20   ar
    41    19    17   ar
    42     3     2    1
    43     3     4    2
    44    20    18   ar
    45     2     5    1
    46     2     1    1
    47   114   113   ar
    48   114   112   ar
    49    17    15   ar
    50    33    32    1
    51    10    11    1
    52   113   111   ar
    53   112   110   ar
    54    18    16   ar
    55    32    31   ar
    56    32    30   ar
    57    31    29   ar
    58    15    16   ar
    59    15    14    1
    60    54    53    1
    61   111   109   ar
    62    11    14    1
    63    11    12    1
    64    55    53    1
    65    30    28   ar
    66   110   109   ar
    67    29    27   ar
    68    38    39    1
    69    38    35    1
    70    39    40    1
    71    53    50    1
    72   109   108    1
    73    12    13    2
    74    37    36    2
    75    28    27   ar
    76    27    26    1
    77    50    49    1
    78    50    51    1
    79    35    36    1
    80    35    34    1
    81   104   105    1
    82    40    34    1
    83    36    41   am
    84   108   105    1
    85    49    43   am
    86    22    23    1
    87    26    23    1
    88    66    64    1
    89   105   106    1
    90    51    52    2
    91    65    64    1
    92    41    42    1
    93    43    42    1
    94    43    44    2
    95    23    24    1
    96    64    63    2
    97    42    45    1
    98   106   107    2
    99    24    25    2
   100    47    46    1
   101    63    62    1
   102    45    46    1
   103    46    48    1
   104    62    61    1
   105    61    60    1
   106    56    57    1
   107    60    57    1
   108    57    58    1
   109    58    59    2
