@<TRIPOS>MOLECULE
tmp/4u2qC00.pdb
 144 136 0 0 0
SMALL
GASTEIGER

@<TRIPOS>ATOM
      1  N         94.9770  -17.1420  269.5820 N.3   393  GLU393     -0.1245
      2  CA        93.9360  -16.6540  270.4810 C.3   393  GLU393      0.1567
      3  C         93.9770  -17.4090  271.8030 C.2   393  GLU393      0.2260
      4  O         93.9230  -18.6370  271.8220 O.2   393  GLU393     -0.2867
      5  CB        92.5510  -16.7700  269.8380 C.3   393  GLU393      0.0388
      6  CG        91.4350  -16.1860  270.6930 C.3   393  GLU393      0.1160
      7  CD        91.4730  -14.6690  270.7350 C.2   393  GLU393      0.3649
      8  OE1       90.8730  -14.0790  271.6580 O.co2 393  GLU393     -0.2457
      9  OE2       92.1020  -14.0670  269.8400 O.co2 393  GLU393     -0.2457
     10  N         89.4210  -14.9220  260.5050 N.3   441  TYR441     -0.1241
     11  CA        88.7090  -16.1960  260.4430 C.3   441  TYR441      0.1605
     12  C         88.1410  -16.4000  259.0550 C.2   441  TYR441      0.2264
     13  O         87.8600  -17.5200  258.6270 O.2   441  TYR441     -0.2867
     14  CB        87.5630  -16.2290  261.4470 C.3   441  TYR441      0.0534
     15  CG        87.9670  -16.2090  262.8950 C.ar  441  TYR441     -0.0201
     16  CD1       88.0390  -17.3840  263.6290 C.ar  441  TYR441     -0.0009
     17  CD2       88.2870  -15.0180  263.5300 C.ar  441  TYR441     -0.0009
     18  CE1       88.4120  -17.3730  264.9550 C.ar  441  TYR441      0.0417
     19  CE2       88.6600  -14.9950  264.8550 C.ar  441  TYR441      0.0417
     20  CZ        88.7220  -16.1760  265.5650 C.ar  441  TYR441      0.1957
     21  OH        89.0960  -16.1600  266.8900 O.3   441  TYR441     -0.2866
     22  N         89.0520  -21.7430  266.9640 N.3   469  PRO469     -0.2116
     23  CA        87.7060  -21.3430  267.3920 C.3   469  PRO469      0.1372
     24  C         86.8840  -20.7040  266.2730 C.2   469  PRO469      0.2244
     25  O         86.5730  -19.5170  266.3530 O.2   469  PRO469     -0.2868
     26  CB        87.9770  -20.3320  268.5120 C.3   469  PRO469      0.0268
     27  CG        89.3830  -19.8820  268.3010 C.3   469  PRO469      0.0207
     28  CD        90.0930  -21.0830  267.7710 C.3   469  PRO469      0.0892
     29  N         83.4740  -20.2580  264.4970 N.3   471  THR471     -0.1218
     30  CA        82.0480  -20.4400  264.7410 C.3   471  THR471      0.1862
     31  C         81.3720  -20.9960  263.4980 C.2   471  THR471      0.2287
     32  O         81.5570  -20.4750  262.3980 O.2   471  THR471     -0.2866
     33  CB        81.3620  -19.1170  265.1430 C.3   471  THR471      0.1770
     34  OG1       82.0280  -18.5560  266.2800 O.3   471  THR471     -0.2211
     35  CG2       79.8970  -19.3570  265.4890 C.3   471  THR471      0.0375
     36  N         79.5830  -19.6230  256.0060 N.3   476  ARG476     -0.1245
     37  CA        80.8480  -20.3460  255.9560 C.3   476  ARG476      0.1563
     38  C         80.6440  -21.7900  255.5120 C.2   476  ARG476      0.2260
     39  O         81.4760  -22.3550  254.8050 O.2   476  ARG476     -0.2867
     40  CB        81.5350  -20.2950  257.3190 C.3   476  ARG476      0.0307
     41  CG        82.0420  -18.9110  257.6850 C.3   476  ARG476      0.0489
     42  CD        82.4960  -18.8410  259.1300 C.3   476  ARG476      0.2205
     43  NE        83.0100  -17.5160  259.4640 N.pl3 476  ARG476     -0.0865
     44  CZ        83.2820  -17.1080  260.6980 C.cat 476  ARG476      0.5346
     45  NH1       83.0850  -17.9220  261.7260 N.pl3 476  ARG476      0.1354
     46  NH2       83.7470  -15.8840  260.9060 N.pl3 476  ARG476      0.1354
     47  N         82.1920   -6.8800  268.2550 N.3   586  LEU586     -0.1245
     48  CA        83.4110   -6.6980  267.4750 C.3   586  LEU586      0.1561
     49  C         83.1430   -6.0120  266.1390 C.2   586  LEU586      0.2260
     50  O         82.0140   -6.0100  265.6480 O.2   586  LEU586     -0.2867
     51  CB        84.0940   -8.0460  267.2600 C.3   586  LEU586      0.0270
     52  CG        84.9150   -8.4770  268.4750 C.3   586  LEU586      0.0019
     53  CD1       85.2110   -9.9580  268.4290 C.3   586  LEU586      0.0001
     54  CD2       86.2100   -7.6830  268.5450 C.3   586  LEU586      0.0001
     55  N         84.1170   -6.9490  263.3490 N.3   588  SER588     -0.1202
     56  CA        83.8450   -7.9940  262.3630 C.3   588  SER588      0.2020
     57  C         83.7260   -9.3500  263.0490 C.2   588  SER588      0.2619
     58  O         84.4010   -9.6070  264.0430 O.2   588  SER588     -0.2717
     59  CB        84.9360   -8.0320  261.2890 C.3   588  SER588      0.2103
     60  OG        86.2090   -8.2920  261.8510 O.3   588  SER588     -0.2182
     61  N         82.8640  -10.2140  262.5240 N.am  589  GLY589     -0.1942
     62  CA        82.7030  -11.5430  263.0820 C.3   589  GLY589      0.2014
     63  C         81.2710  -12.0400  263.0470 C.2   589  GLY589      0.2640
     64  O         80.3780  -11.3470  262.5630 O.2   589  GLY589     -0.2714
     65  N         81.0550  -13.2350  263.5910 N.am  590  SER590     -0.1935
     66  CA        79.7460  -13.8870  263.5680 C.3   590  SER590      0.2055
     67  C         78.7270  -13.2600  264.5160 C.2   590  SER590      0.2644
     68  O         77.5260  -13.3830  264.3020 O.2   590  SER590     -0.2714
     69  CB        79.8920  -15.3750  263.8880 C.3   590  SER590      0.2130
     70  OG        80.6760  -16.0310  262.9050 O.3   590  SER590     -0.2179
     71  N         79.2070  -12.6290  265.5820 N.am  591  THR591     -0.1936
     72  CA        78.3270  -11.9800  266.5530 C.3   591  THR591      0.2028
     73  C         77.6930  -10.7350  265.9410 C.2   591  THR591      0.2642
     74  O         76.4710  -10.5270  266.0060 O.2   591  THR591     -0.2714
     75  CB        79.0950  -11.5930  267.8350 C.3   591  THR591      0.1808
     76  OG1       79.6760  -12.7670  268.4170 O.3   591  THR591     -0.2208
     77  CG2       78.1700  -10.9360  268.8460 C.3   591  THR591      0.0379
     78  N         78.5430   -9.9290  265.3180 N.am  592  LYS592     -0.1977
     79  CA        78.1220   -8.7140  264.6400 C.3   592  LYS592      0.1596
     80  C         77.1170   -9.0320  263.5440 C.2   592  LYS592      0.2287
     81  O         76.1230   -8.3280  263.3780 O.2   592  LYS592     -0.2864
     82  CB        79.3380   -8.0030  264.0460 C.3   592  LYS592      0.0298
     83  CG        79.0400   -6.6870  263.3580 C.3   592  LYS592      0.0038
     84  CD        80.3140   -6.0940  262.7790 C.3   592  LYS592      0.0206
     85  CE        80.0530   -4.7700  262.0810 C.3   592  LYS592      0.1093
     86  NZ        81.2990   -4.1980  261.4990 N.3   592  LYS592     -0.1314
     87  N         88.0100   -3.6670  268.0020 N.3   620  ARG620     -0.1231
     88  CA        88.8090   -4.4250  267.0440 C.3   620  ARG620      0.1694
     89  C         89.1640   -5.8200  267.5510 C.2   620  ARG620      0.2593
     90  O         89.1080   -6.7960  266.8020 O.2   620  ARG620     -0.2718
     91  CB        90.0870   -3.6580  266.6970 C.3   620  ARG620      0.0321
     92  CG        89.8980   -2.3090  265.9910 C.3   620  ARG620      0.0489
     93  CD        89.0700   -2.3370  264.7070 C.3   620  ARG620      0.2205
     94  NE        89.5190   -3.3650  263.7770 N.pl3 620  ARG620     -0.0865
     95  CZ        90.7310   -3.4110  263.2070 C.cat 620  ARG620      0.5346
     96  NH1       91.6190   -2.4370  263.3170 N.pl3 620  ARG620      0.1354
     97  NH2       91.0270   -4.4420  262.4220 N.pl3 620  ARG620      0.1354
     98  N         89.5390   -5.9070  268.8240 N.am  621  THR621     -0.1939
     99  CA        89.9520   -7.1750  269.4180 C.3   621  THR621      0.2028
    100  C         89.1960   -7.4800  270.7100 C.2   621  THR621      0.2642
    101  O         88.5010   -6.6200  271.2530 O.2   621  THR621     -0.2714
    102  CB        91.4670   -7.1920  269.7110 C.3   621  THR621      0.1808
    103  OG1       91.8030   -6.1070  270.5840 O.3   621  THR621     -0.2208
    104  CG2       92.2640   -7.0660  268.4190 C.3   621  THR621      0.0379
    105  N         89.3340   -8.7120  271.1890 N.am  622  THR622     -0.1950
    106  CA        88.6970   -9.1420  272.4280 C.3   622  THR622      0.1897
    107  C         89.3150   -8.4240  273.6250 C.2   622  THR622      0.2313
    108  O         88.6060   -7.9400  274.5180 O.2   622  THR622     -0.2863
    109  CB        88.8260  -10.6680  272.6230 C.3   622  THR622      0.1794
    110  OG1       88.2500  -11.3480  271.5010 O.3   622  THR622     -0.2208
    111  CG2       88.1240  -11.1100  273.8980 C.3   622  THR622      0.0378
    112  N         79.6240   -7.5000  274.4510 N.3   639  LEU639     -0.1231
    113  CA        78.9200   -8.6640  273.9270 C.3   639  LEU639      0.1693
    114  C         79.9010   -9.5770  273.2110 C.2   639  LEU639      0.2592
    115  O         80.4420   -9.2190  272.1630 O.2   639  LEU639     -0.2718
    116  CB        77.8160   -8.2300  272.9630 C.3   639  LEU639      0.0284
    117  CG        76.6430   -7.4330  273.5300 C.3   639  LEU639      0.0019
    118  CD1       75.9650   -6.6520  272.4190 C.3   639  LEU639      0.0001
    119  CD2       75.6510   -8.3610  274.2050 C.3   639  LEU639      0.0001
    120  N         80.1490  -10.7470  273.7880 N.am  640  LEU640     -0.1966
    121  CA        81.1090  -11.6800  273.2020 C.3   640  LEU640      0.1728
    122  C         80.6610  -13.1130  273.4120 C.2   640  LEU640      0.2616
    123  O         79.7900  -13.3690  274.2350 O.2   640  LEU640     -0.2715
    124  CB        82.5050  -11.4800  273.7920 C.3   640  LEU640      0.0311
    125  CG        82.7990  -12.0790  275.1680 C.3   640  LEU640      0.0022
    126  CD1       84.2900  -12.0120  275.4600 C.3   640  LEU640      0.0001
    127  CD2       82.0140  -11.3730  276.2630 C.3   640  LEU640      0.0001
    128  N         81.2800  -14.0480  272.6980 N.am  641  GLU641     -0.1977
    129  CA        80.9420  -15.4560  272.8550 C.3   641  GLU641      0.1602
    130  C         81.2190  -15.9040  274.2840 C.2   641  GLU641      0.2287
    131  O         82.1370  -15.4040  274.9340 O.2   641  GLU641     -0.2864
    132  CB        81.7250  -16.3130  271.8620 C.3   641  GLU641      0.0415
    133  CG        81.3700  -16.0560  270.4090 C.3   641  GLU641      0.1163
    134  CD        82.2560  -16.8240  269.4530 C.2   641  GLU641      0.3649
    135  OE1       83.4150  -17.1100  269.8180 O.co2 641  GLU641     -0.2457
    136  OE2       81.7950  -17.1460  268.3380 O.co2 641  GLU641     -0.2457
    137  N         85.0660  -17.1540  275.6130 N.3   644  MET644     -0.1245
    138  CA        86.0520  -16.1350  275.9500 C.3   644  MET644      0.1570
    139  C         85.6550  -15.3990  277.2220 C.2   644  MET644      0.2261
    140  O         86.5090  -14.9990  278.0080 O.2   644  MET644     -0.2867
    141  CB        86.2100  -15.1290  274.8050 C.3   644  MET644      0.0387
    142  CG        86.9230  -15.6580  273.5700 C.3   644  MET644      0.0595
    143  SD        85.9400  -16.8510  272.6420 S.3   644  MET644     -0.1393
    144  CE        86.9840  -17.1020  271.2070 C.3   644  MET644      0.0692
@<TRIPOS>BOND
     1    39    38    2
     2    38    37    1
     3    37    36    1
     4    37    40    1
     5    40    41    1
     6    41    42    1
     7    13    12    2
     8    12    11    1
     9    42    43    1
    10    43    44    2
    11    11    10    1
    12    11    14    1
    13    44    46    1
    14    44    45    1
    15    59    60    1
    16    59    56    1
    17    14    15    1
    18    86    85    1
    19    85    84    1
    20    56    57    1
    21    56    55    1
    22    32    31    2
    23    97    95    1
    24    61    57   am
    25    61    62    1
    26    64    63    2
    27    84    83    1
    28    15    17   ar
    29    15    16   ar
    30    70    69    1
    31    63    62    1
    32    63    65   am
    33    57    58    2
    34    95    96    1
    35    95    94    2
    36    83    82    1
    37    81    80    2
    38    31    30    1
    39    17    19   ar
    40    80    79    1
    41    66    65    1
    42    66    69    1
    43    66    67    1
    44    16    18   ar
    45    94    93    1
    46    82    79    1
    47    68    67    2
    48    29    30    1
    49    67    71   am
    50    79    78    1
    51    93    92    1
    52    30    33    1
    53    19    20   ar
    54    18    20   ar
    55    33    35    1
    56    33    34    1
    57    78    73   am
    58    20    21    1
    59    71    72    1
    60    50    49    2
    61    73    74    2
    62    73    72    1
    63    92    91    1
    64    49    48    1
    65    24    25    2
    66    24    23    1
    67    72    75    1
    68    91    88    1
    69    90    89    2
    70    22    23    1
    71    22    28    1
    72    88    89    1
    73    88    87    1
    74    51    48    1
    75    51    52    1
    76    23    26    1
    77    48    47    1
    78    89    98   am
    79    28    27    1
    80    75    76    1
    81    75    77    1
    82    27    26    1
    83   136   134   ar
    84   104   102    1
    85    53    52    1
    86    52    54    1
    87    98    99    1
    88    99   102    1
    89    99   100    1
    90   134   135   ar
    91   134   133    1
    92     1     2    1
    93   102   103    1
    94     5     2    1
    95     5     6    1
    96     9     7   ar
    97   133   132    1
    98     2     3    1
    99     6     7    1
   100   100   105   am
   101   100   101    2
   102     7     8   ar
   103   105   106    1
   104   144   143    1
   105   110   109    1
   106     3     4    2
   107   132   129    1
   108   115   114    2
   109   118   117    1
   110   106   109    1
   111   106   107    1
   112   109   111    1
   113   143   142    1
   114   128   129    1
   115   128   122   am
   116   129   130    1
   117   116   117    1
   118   116   113    1
   119   121   122    1
   120   121   120    1
   121   121   124    1
   122   114   120   am
   123   114   113    1
   124   122   123    2
   125   117   119    1
   126   142   141    1
   127   107   108    2
   128   124   125    1
   129   113   112    1
   130   130   131    2
   131   141   138    1
   132   125   126    1
   133   125   127    1
   134   137   138    1
   135   138   139    1
   136   139   140    2
