@<TRIPOS>MOLECULE
tmp/4u2yA00.pdb
 162 154 0 0 0
SMALL
GASTEIGER

@<TRIPOS>ATOM
      1  N         27.7610  -34.4650  267.7520 N.3   250  LYS250     -0.1245
      2  CA        26.8390  -35.5670  267.9830 C.3   250  LYS250      0.1561
      3  C         25.6150  -35.5340  267.0660 C.2   250  LYS250      0.2260
      4  O         25.1610  -34.4670  266.6320 O.2   250  LYS250     -0.2867
      5  CB        26.4110  -35.5940  269.4400 C.3   250  LYS250      0.0271
      6  CG        27.5440  -36.0570  270.3470 C.3   250  LYS250      0.0035
      7  CD        27.0560  -36.2740  271.7530 C.3   250  LYS250      0.0206
      8  CE        27.9880  -37.1530  272.5500 C.3   250  LYS250      0.1093
      9  NZ        27.3770  -37.4400  273.8630 N.3   250  LYS250     -0.1314
     10  N         21.6220  -38.4870  270.5120 N.3   254  ASN254     -0.1240
     11  CA        22.9160  -38.6120  271.1900 C.3   254  ASN254      0.1653
     12  C         23.8000  -39.6730  270.5530 C.2   254  ASN254      0.2266
     13  O         24.5380  -40.4010  271.2410 O.2   254  ASN254     -0.2867
     14  CB        22.7280  -38.9500  272.6690 C.3   254  ASN254      0.1155
     15  CG        23.9720  -38.6840  273.4930 C.2   254  ASN254      0.2627
     16  OD1       24.8380  -37.9180  273.0840 O.2   254  ASN254     -0.2716
     17  ND2       24.0680  -39.3230  274.6630 N.am  254  ASN254     -0.0877
     18  N         24.8320  -30.5250  269.4610 N.3   265  SER265     -0.1217
     19  CA        24.4950  -29.9750  270.7660 C.3   265  SER265      0.1889
     20  C         25.0290  -28.5670  270.9160 C.2   265  SER265      0.2288
     21  O         26.2130  -28.3310  270.7400 O.2   265  SER265     -0.2866
     22  CB        25.0940  -30.8510  271.8770 C.3   265  SER265      0.2089
     23  OG        24.9620  -30.2380  273.1500 O.3   265  SER265     -0.2183
     24  N         25.7450  -27.2050  273.5120 N.3   267  TRP267     -0.1227
     25  CA        26.7480  -27.1690  274.5520 C.3   267  TRP267      0.1737
     26  C         28.1490  -27.4720  274.0050 C.2   267  TRP267      0.2595
     27  O         29.1330  -27.2830  274.7110 O.2   267  TRP267     -0.2718
     28  CB        26.3830  -28.1160  275.7260 C.3   267  TRP267      0.0564
     29  CG        25.2550  -27.5560  276.5680 C.ar  267  TRP267      0.0003
     30  CD1       25.3900  -26.7890  277.7020 C.ar  267  TRP267      0.0946
     31  CD2       23.8370  -27.7090  276.3620 C.ar  267  TRP267      0.0152
     32  NE1       24.1560  -26.4470  278.1960 N.ar  267  TRP267     -0.2442
     33  CE2       23.1850  -26.9960  277.4010 C.ar  267  TRP267      0.0810
     34  CE3       23.0590  -28.3680  275.4050 C.ar  267  TRP267      0.0012
     35  CZ2       21.7870  -26.9280  277.5110 C.ar  267  TRP267      0.0191
     36  CZ3       21.6630  -28.3000  275.5110 C.ar  267  TRP267      0.0001
     37  CH2       21.0440  -27.5770  276.5610 C.ar  267  TRP267      0.0015
     38  N         28.2580  -27.8390  272.7370 N.am  268  ALA268     -0.1980
     39  CA        29.5810  -28.0400  272.1240 C.3   268  ALA268      0.1597
     40  C         30.0860  -26.7460  271.5460 C.2   268  ALA268      0.2287
     41  O         30.0760  -26.5490  270.3400 O.2   268  ALA268     -0.2864
     42  CB        29.5460  -29.1180  271.0480 C.3   268  ALA268      0.0319
     43  N         33.4780  -24.9190  278.7090 N.3   310  GLN310     -0.1245
     44  CA        33.9650  -26.1170  278.0360 C.3   310  GLN310      0.1566
     45  C         34.0270  -25.7950  276.5500 C.2   310  GLN310      0.2260
     46  O         33.5180  -24.7470  276.1350 O.2   310  GLN310     -0.2867
     47  CB        33.0490  -27.3070  278.2860 C.3   310  GLN310      0.0367
     48  CG        31.6680  -27.1060  277.6790 C.3   310  GLN310      0.0905
     49  CD        30.5900  -27.9850  278.3210 C.2   310  GLN310      0.2608
     50  OE1       30.7530  -28.5170  279.4410 O.2   310  GLN310     -0.2717
     51  NE2       29.4780  -28.1440  277.6100 N.am  310  GLN310     -0.0878
     52  N         27.5430  -40.7260  281.8200 N.3   341  LYS341     -0.1231
     53  CA        27.3720  -39.9100  280.6180 C.3   341  LYS341      0.1693
     54  C         28.7380  -39.5500  280.0250 C.2   341  LYS341      0.2592
     55  O         29.7020  -39.2860  280.7510 O.2   341  LYS341     -0.2718
     56  CB        26.5410  -38.6480  280.9120 C.3   341  LYS341      0.0285
     57  CG        25.1540  -38.9240  281.5110 C.3   341  LYS341      0.0035
     58  CD        24.3980  -37.6240  281.7550 C.3   341  LYS341      0.0206
     59  CE        23.0550  -37.8780  282.3980 C.3   341  LYS341      0.1093
     60  NZ        22.2660  -36.6210  282.5580 N.3   341  LYS341     -0.1314
     61  N         28.8080  -39.5960  278.6970 N.am  342  LYS342     -0.1966
     62  CA        29.9770  -39.1970  277.9330 C.3   342  LYS342      0.1728
     63  C         29.7220  -38.0210  277.0020 C.2   342  LYS342      0.2616
     64  O         28.6820  -37.9450  276.3430 O.2   342  LYS342     -0.2715
     65  CB        30.4850  -40.4010  277.1200 C.3   342  LYS342      0.0311
     66  CG        31.0830  -41.5120  277.9980 C.3   342  LYS342      0.0038
     67  CD        31.6590  -42.7050  277.2170 C.3   342  LYS342      0.0206
     68  CE        32.2950  -43.7090  278.1850 C.3   342  LYS342      0.1093
     69  NZ        32.8890  -44.8900  277.5030 N.3   342  LYS342     -0.1314
     70  N         30.6440  -37.0680  276.9840 N.am  343  TYR343     -0.1974
     71  CA        30.4640  -35.9020  276.1360 C.3   343  TYR343      0.1639
     72  C         31.5960  -35.8990  275.0820 C.2   343  TYR343      0.2290
     73  O         32.4610  -35.0160  275.0950 O.2   343  TYR343     -0.2864
     74  CB        30.5110  -34.6280  276.9820 C.3   343  TYR343      0.0560
     75  CG        29.5460  -34.5630  278.1800 C.ar  343  TYR343     -0.0198
     76  CD1       28.2580  -35.1140  278.1180 C.ar  343  TYR343     -0.0009
     77  CD2       29.9340  -33.9460  279.3750 C.ar  343  TYR343     -0.0009
     78  CE1       27.3800  -35.0340  279.2020 C.ar  343  TYR343      0.0417
     79  CE2       29.0770  -33.8610  280.4650 C.ar  343  TYR343      0.0417
     80  CZ        27.7950  -34.3980  280.3850 C.ar  343  TYR343      0.1957
     81  OH        26.9440  -34.3110  281.4850 O.3   343  TYR343     -0.2866
     82  N         31.8590  -34.8780  272.2610 N.3   345  ASP345     -0.1225
     83  CA        31.9350  -33.6890  271.4270 C.3   345  ASP345      0.1805
     84  C         32.6340  -32.4740  272.0940 C.2   345  ASP345      0.2597
     85  O         32.8080  -31.4270  271.4630 O.2   345  ASP345     -0.2718
     86  CB        30.5210  -33.3010  270.9380 C.3   345  ASP345      0.1424
     87  CG        29.4470  -33.2780  272.0700 C.2   345  ASP345      0.3668
     88  OD1       29.6400  -33.8620  273.1540 O.co2 345  ASP345     -0.2456
     89  OD2       28.4150  -32.5920  271.8910 O.co2 345  ASP345     -0.2456
     90  N         33.0820  -32.6170  273.3390 N.am  346  ILE346     -0.1980
     91  CA        33.7250  -31.4930  274.0310 C.3   346  ILE346      0.1595
     92  C         34.9680  -31.8750  274.8330 C.2   346  ILE346      0.2287
     93  O         35.1330  -33.0240  275.2660 O.2   346  ILE346     -0.2864
     94  CB        32.7330  -30.7660  274.9950 C.3   346  ILE346      0.0276
     95  CG1       32.0750  -31.7690  275.9280 C.3   346  ILE346      0.0022
     96  CG2       31.6800  -29.9690  274.2160 C.3   346  ILE346      0.0022
     97  CD1       31.3620  -31.1500  277.0910 C.3   346  ILE346      0.0001
     98  N         22.8130  -18.9890  283.7280 N.3   378  ARG378     -0.1245
     99  CA        22.6090  -20.3510  284.1470 C.3   378  ARG378      0.1563
    100  C         23.9270  -21.0780  283.9020 C.2   378  ARG378      0.2260
    101  O         24.3430  -21.2050  282.7660 O.2   378  ARG378     -0.2867
    102  CB        21.4470  -20.9910  283.3850 C.3   378  ARG378      0.0307
    103  CG        21.1080  -22.4130  283.8120 C.3   378  ARG378      0.0489
    104  CD        21.9330  -23.4210  283.1270 C.3   378  ARG378      0.2205
    105  NE        21.3250  -24.7340  283.2170 N.pl3 378  ARG378     -0.0865
    106  CZ        21.8870  -25.8150  282.6990 C.cat 378  ARG378      0.5346
    107  NH1       23.0590  -25.7150  282.0890 N.pl3 378  ARG378      0.1354
    108  NH2       21.2870  -26.9900  282.7920 N.pl3 378  ARG378      0.1354
    109  N         26.3470  -24.0400  283.5830 N.3   380  ASP380     -0.1225
    110  CA        26.3420  -25.4680  283.2570 C.3   380  ASP380      0.1805
    111  C         27.3660  -26.2310  284.0870 C.2   380  ASP380      0.2597
    112  O         28.5080  -25.7950  284.1370 O.2   380  ASP380     -0.2718
    113  CB        26.5860  -25.6440  281.7530 C.3   380  ASP380      0.1424
    114  CG        26.3720  -27.0680  281.2970 C.2   380  ASP380      0.3668
    115  OD1       25.2110  -27.4930  281.1600 O.co2 380  ASP380     -0.2456
    116  OD2       27.3760  -27.7600  281.0450 O.co2 380  ASP380     -0.2456
    117  N         26.9600  -27.3120  284.7770 N.am  381  ASN381     -0.1974
    118  CA        27.8900  -28.1850  285.5340 C.3   381  ASN381      0.1688
    119  C         28.9760  -27.4690  286.2890 C.2   381  ASN381      0.2292
    120  O         30.1640  -27.7340  286.0620 O.2   381  ASN381     -0.2864
    121  CB        28.5780  -29.2490  284.6800 C.3   381  ASN381      0.1181
    122  CG        27.6600  -30.2990  284.2020 C.2   381  ASN381      0.2629
    123  OD1       27.3780  -31.2340  284.9400 O.2   381  ASN381     -0.2716
    124  ND2       27.2040  -30.1930  282.9660 N.am  381  ASN381     -0.0877
    125  N         23.7040  -25.1600  287.9910 N.3   409  GLU409     -0.1245
    126  CA        23.1720  -26.4650  287.5840 C.3   409  GLU409      0.1567
    127  C         24.0430  -27.6100  288.1030 C.2   409  GLU409      0.2260
    128  O         24.7900  -28.2300  287.3470 O.2   409  GLU409     -0.2867
    129  CB        23.0280  -26.5860  286.0700 C.3   409  GLU409      0.0388
    130  CG        22.2460  -27.8540  285.6920 C.3   409  GLU409      0.1160
    131  CD        23.1280  -28.9290  285.0160 C.2   409  GLU409      0.3649
    132  OE1       24.2100  -28.5940  284.4670 O.co2 409  GLU409     -0.2457
    133  OE2       22.7530  -30.1250  285.0840 O.co2 409  GLU409     -0.2457
    134  N         17.3920  -32.7880  279.9620 N.3   466  ASP466     -0.1239
    135  CA        18.1060  -33.9810  280.4270 C.3   466  ASP466      0.1674
    136  C         17.3450  -34.8460  281.4110 C.2   466  ASP466      0.2266
    137  O         17.8320  -35.9200  281.7980 O.2   466  ASP466     -0.2867
    138  CB        19.4220  -33.5540  281.0760 C.3   466  ASP466      0.1410
    139  CG        20.1360  -32.5220  280.2550 C.2   466  ASP466      0.3668
    140  OD1       20.6980  -32.8870  279.1910 O.co2 466  ASP466     -0.2456
    141  OD2       20.1110  -31.3370  280.6710 O.co2 466  ASP466     -0.2456
    142  N         18.0890  -31.5300  272.2780 N.3   520  LYS520     -0.1231
    143  CA        19.5080  -31.2430  272.4010 C.3   520  LYS520      0.1693
    144  C         20.2680  -31.5610  271.0940 C.2   520  LYS520      0.2592
    145  O         21.3300  -30.9900  270.8390 O.2   520  LYS520     -0.2718
    146  CB        20.1080  -32.0100  273.5750 C.3   520  LYS520      0.0285
    147  CG        19.6100  -31.5630  274.9470 C.3   520  LYS520      0.0035
    148  CD        20.2930  -32.3720  276.0100 C.3   520  LYS520      0.0206
    149  CE        19.7630  -33.7800  275.9720 C.3   520  LYS520      0.1093
    150  NZ        20.4680  -34.6510  276.9190 N.3   520  LYS520     -0.1314
    151  N         19.7320  -32.4590  270.2650 N.am  521  TYR521     -0.1976
    152  CA        20.4600  -32.8990  269.0730 C.3   521  TYR521      0.1639
    153  C         19.7220  -32.6730  267.7490 C.2   521  TYR521      0.2290
    154  O         20.2670  -32.9680  266.6830 O.2   521  TYR521     -0.2864
    155  CB        20.8160  -34.3860  269.2000 C.3   521  TYR521      0.0560
    156  CG        21.2800  -34.7870  270.5880 C.ar  521  TYR521     -0.0198
    157  CD1       22.5780  -34.5070  271.0120 C.ar  521  TYR521     -0.0009
    158  CD2       20.4250  -35.4210  271.4800 C.ar  521  TYR521     -0.0009
    159  CE1       23.0200  -34.8630  272.2760 C.ar  521  TYR521      0.0417
    160  CE2       20.8620  -35.7750  272.7680 C.ar  521  TYR521      0.0417
    161  CZ        22.1630  -35.4890  273.1510 C.ar  521  TYR521      0.1957
    162  OH        22.6140  -35.8250  274.4070 O.3   521  TYR521     -0.2866
@<TRIPOS>BOND
     1     4     3    2
     2   154   153    2
     3     3     2    1
     4   153   152    1
     5     1     2    1
     6     2     5    1
     7   152   155    1
     8   152   151    1
     9   155   156    1
    10     5     6    1
    11    18    19    1
    12   151   144   am
    13    41    40    2
    14     6     7    1
    15    10    11    1
    16    12    11    1
    17    12    13    2
    18   156   157   ar
    19   156   158   ar
    20    21    20    2
    21    19    20    1
    22    19    22    1
    23   145   144    2
    24    86    83    1
    25    86    87    1
    26   157   159   ar
    27    42    39    1
    28   144   143    1
    29    11    14    1
    30    83    84    1
    31    83    82    1
    32    85    84    2
    33   158   160   ar
    34    40    39    1
    35     7     8    1
    36    22    23    1
    37    89    87   ar
    38    87    88   ar
    39    84    90   am
    40    39    38    1
    41   159   161   ar
    42   142   143    1
    43   143   146    1
    44     8     9    1
    45    14    15    1
    46    38    26   am
    47   160   161   ar
    48    16    15    2
    49   161   162    1
    50    90    91    1
    51    15    17   am
    52    24    25    1
    53   146   147    1
    54    26    25    1
    55    26    27    2
    56    91    92    1
    57    91    94    1
    58    96    94    1
    59    25    28    1
    60    92    93    2
    61   147   148    1
    62    94    95    1
    63    72    73    2
    64    72    71    1
    65    34    36   ar
    66    34    31   ar
    67    36    37   ar
    68    28    29    1
    69    95    97    1
    70   149   148    1
    71   149   150    1
    72    46    45    2
    73    71    74    1
    74    71    70    1
    75    64    63    2
    76    31    29   ar
    77    31    33   ar
    78    45    44    1
    79    37    35   ar
    80    29    30   ar
    81    74    75    1
    82    70    63   am
    83    63    62    1
    84    65    62    1
    85    65    66    1
    86    67    66    1
    87    67    68    1
    88    33    35   ar
    89    33    32   ar
    90    69    68    1
    91    51    49   am
    92    48    47    1
    93    48    49    1
    94    30    32   ar
    95    62    61    1
    96    44    47    1
    97    44    43    1
    98    76    75   ar
    99    76    78   ar
   100    75    77   ar
   101    49    50    2
   102    61    54   am
   103   140   139   ar
   104    78    80   ar
   105    77    79   ar
   106   134   135    1
   107    54    53    1
   108    54    55    2
   109   139   141   ar
   110   139   138    1
   111    80    79   ar
   112    80    81    1
   113   135   138    1
   114   135   136    1
   115    53    56    1
   116    53    52    1
   117    56    57    1
   118   116   114   ar
   119   115   114   ar
   120   114   113    1
   121   136   137    2
   122    57    58    1
   123   113   110    1
   124    58    59    1
   125   107   106    1
   126    59    60    1
   127   106   108    1
   128   106   105    2
   129   101   100    2
   130   124   122   am
   131   104   105    1
   132   104   103    1
   133   110   109    1
   134   110   111    1
   135   102   103    1
   136   102    99    1
   137    98    99    1
   138   100    99    1
   139   111   112    2
   140   111   117   am
   141   122   121    1
   142   122   123    2
   143   132   131   ar
   144   121   118    1
   145   117   118    1
   146   131   133   ar
   147   131   130    1
   148   118   119    1
   149   130   129    1
   150   120   119    2
   151   129   126    1
   152   128   127    2
   153   126   125    1
   154   126   127    1
