@<TRIPOS>MOLECULE
tmp/4u31A00.pdb
 189 180 0 0 0
SMALL
GASTEIGER

@<TRIPOS>ATOM
      1  N         27.8680  -34.4090  268.4400 N.3   250  LYS250     -0.1245
      2  CA        26.9390  -35.5010  268.6760 C.3   250  LYS250      0.1561
      3  C         25.7500  -35.4450  267.7300 C.2   250  LYS250      0.2260
      4  O         25.3320  -34.3650  267.3060 O.2   250  LYS250     -0.2867
      5  CB        26.4670  -35.4810  270.1170 C.3   250  LYS250      0.0271
      6  CG        27.5830  -35.8760  271.0560 C.3   250  LYS250      0.0035
      7  CD        27.0720  -36.1110  272.4100 C.3   250  LYS250      0.0206
      8  CE        28.0360  -36.9560  273.2090 C.3   250  LYS250      0.1093
      9  NZ        27.3920  -37.1620  274.5100 N.3   250  LYS250     -0.1314
     10  N         21.7080  -38.4500  271.1140 N.3   254  ASN254     -0.1240
     11  CA        22.9920  -38.6090  271.7860 C.3   254  ASN254      0.1653
     12  C         23.8270  -39.6920  271.1170 C.2   254  ASN254      0.2266
     13  O         24.5240  -40.4680  271.7810 O.2   254  ASN254     -0.2867
     14  CB        22.8060  -38.9340  273.2690 C.3   254  ASN254      0.1155
     15  CG        24.0690  -38.6860  274.0770 C.2   254  ASN254      0.2627
     16  OD1       24.9430  -37.9360  273.6470 O.2   254  ASN254     -0.2716
     17  ND2       24.1710  -39.3120  275.2430 N.am  254  ASN254     -0.0877
     18  N         24.9700  -30.4260  270.2020 N.3   265  SER265     -0.1217
     19  CA        24.6080  -29.8830  271.5150 C.3   265  SER265      0.1889
     20  C         25.1100  -28.4490  271.6990 C.2   265  SER265      0.2288
     21  O         26.2760  -28.1740  271.4450 O.2   265  SER265     -0.2866
     22  CB        25.1750  -30.7860  272.6170 C.3   265  SER265      0.2089
     23  OG        25.0230  -30.1800  273.8940 O.3   265  SER265     -0.2183
     24  N         25.9150  -27.1140  274.3290 N.3   267  TRP267     -0.1227
     25  CA        26.9310  -27.0830  275.3690 C.3   267  TRP267      0.1737
     26  C         28.3260  -27.4070  274.8270 C.2   267  TRP267      0.2595
     27  O         29.3160  -27.2890  275.5520 O.2   267  TRP267     -0.2718
     28  CB        26.5400  -28.0220  276.5170 C.3   267  TRP267      0.0564
     29  CG        25.3860  -27.4580  277.3570 C.ar  267  TRP267      0.0003
     30  CD1       25.4910  -26.7120  278.4980 C.ar  267  TRP267      0.0946
     31  CD2       23.9750  -27.6080  277.1050 C.ar  267  TRP267      0.0152
     32  NE1       24.2350  -26.3860  278.9680 N.ar  267  TRP267     -0.2442
     33  CE2       23.2920  -26.9240  278.1330 C.ar  267  TRP267      0.0810
     34  CE3       23.2290  -28.2460  276.1000 C.ar  267  TRP267      0.0012
     35  CZ2       21.8940  -26.8530  278.1930 C.ar  267  TRP267      0.0191
     36  CZ3       21.8420  -28.1910  276.1610 C.ar  267  TRP267      0.0001
     37  CH2       21.1860  -27.4910  277.2080 C.ar  267  TRP267      0.0015
     38  N         28.4140  -27.7740  273.5460 N.am  268  ALA268     -0.1980
     39  CA        29.7200  -27.9890  272.9160 C.3   268  ALA268      0.1597
     40  C         30.2160  -26.6870  272.3170 C.2   268  ALA268      0.2287
     41  O         30.2180  -26.4980  271.1000 O.2   268  ALA268     -0.2864
     42  CB        29.6350  -29.0990  271.8420 C.3   268  ALA268      0.0319
     43  N         33.5870  -24.8250  279.5720 N.3   310  GLN310     -0.1245
     44  CA        34.0820  -26.0290  278.9110 C.3   310  GLN310      0.1566
     45  C         34.1380  -25.6660  277.4270 C.2   310  GLN310      0.2260
     46  O         33.5580  -24.6560  277.0360 O.2   310  GLN310     -0.2867
     47  CB        33.1660  -27.2240  279.1440 C.3   310  GLN310      0.0367
     48  CG        31.7940  -27.0330  278.5110 C.3   310  GLN310      0.0905
     49  CD        30.7420  -27.9110  279.1400 C.2   310  GLN310      0.2608
     50  OE1       30.9310  -28.4240  280.2430 O.2   310  GLN310     -0.2717
     51  NE2       29.6260  -28.1020  278.4390 N.am  310  GLN310     -0.0878
     52  N         30.5460  -37.0270  283.1790 N.3   338  ASN338     -0.1240
     53  CA        29.8770  -36.9170  284.4660 C.3   338  ASN338      0.1653
     54  C         29.3600  -38.3100  284.7560 C.2   338  ASN338      0.2266
     55  O         28.1890  -38.5890  284.5200 O.2   338  ASN338     -0.2867
     56  CB        28.7440  -35.8850  284.4200 C.3   338  ASN338      0.1155
     57  CG        28.4380  -35.2860  285.7840 C.2   338  ASN338      0.2627
     58  OD1       28.7230  -35.8910  286.8200 O.2   338  ASN338     -0.2716
     59  ND2       27.8530  -34.0880  285.7890 N.am  338  ASN338     -0.0877
     60  N         27.6810  -40.6300  282.5980 N.3   341  LYS341     -0.1245
     61  CA        27.4740  -39.8770  281.3650 C.3   341  LYS341      0.1561
     62  C         28.8230  -39.5570  280.7150 C.2   341  LYS341      0.2260
     63  O         29.7720  -39.2120  281.4180 O.2   341  LYS341     -0.2867
     64  CB        26.7020  -38.5820  281.6460 C.3   341  LYS341      0.0271
     65  CG        25.3390  -38.7880  282.3360 C.3   341  LYS341      0.0035
     66  CD        24.6290  -37.4500  282.5630 C.3   341  LYS341      0.0206
     67  CE        23.3130  -37.6240  283.3130 C.3   341  LYS341      0.1093
     68  NZ        22.6070  -36.3200  283.4630 N.3   341  LYS341     -0.1314
     69  N         30.6970  -37.1490  277.6590 N.3   343  TYR343     -0.1241
     70  CA        30.5200  -35.9830  276.8150 C.3   343  TYR343      0.1605
     71  C         31.6490  -35.9060  275.7910 C.2   343  TYR343      0.2264
     72  O         32.5360  -35.0580  275.8990 O.2   343  TYR343     -0.2867
     73  CB        30.4850  -34.7150  277.6740 C.3   343  TYR343      0.0534
     74  CG        29.4470  -34.7680  278.7820 C.ar  343  TYR343     -0.0201
     75  CD1       28.2220  -35.3970  278.5800 C.ar  343  TYR343     -0.0009
     76  CD2       29.6890  -34.1800  280.0220 C.ar  343  TYR343     -0.0009
     77  CE1       27.2540  -35.4370  279.5880 C.ar  343  TYR343      0.0417
     78  CE2       28.7330  -34.2170  281.0410 C.ar  343  TYR343      0.0417
     79  CZ        27.5160  -34.8440  280.8120 C.ar  343  TYR343      0.1957
     80  OH        26.5580  -34.8980  281.8070 O.3   343  TYR343     -0.2866
     81  N         31.9040  -34.7210  272.9800 N.3   345  ASP345     -0.1225
     82  CA        31.9900  -33.5250  272.1570 C.3   345  ASP345      0.1805
     83  C         32.6660  -32.3400  272.8620 C.2   345  ASP345      0.2597
     84  O         32.8020  -31.2730  272.2750 O.2   345  ASP345     -0.2718
     85  CB        30.5850  -33.1170  271.6620 C.3   345  ASP345      0.1424
     86  CG        29.5310  -33.0740  272.7880 C.2   345  ASP345      0.3668
     87  OD1       29.7490  -33.6480  273.8760 O.co2 345  ASP345     -0.2456
     88  OD2       28.4550  -32.4840  272.5520 O.co2 345  ASP345     -0.2456
     89  N         33.0860  -32.5130  274.1140 N.am  346  ILE346     -0.1980
     90  CA        33.7200  -31.3960  274.8210 C.3   346  ILE346      0.1595
     91  C         34.9570  -31.7650  275.6350 C.2   346  ILE346      0.2287
     92  O         35.1220  -32.9010  276.0720 O.2   346  ILE346     -0.2864
     93  CB        32.7340  -30.7090  275.7910 C.3   346  ILE346      0.0276
     94  CG1       32.0930  -31.7430  276.7050 C.3   346  ILE346      0.0022
     95  CG2       31.6830  -29.9150  275.0170 C.3   346  ILE346      0.0022
     96  CD1       31.3910  -31.1280  277.9250 C.3   346  ILE346      0.0001
     97  N         22.8310  -19.0600  284.6200 N.3   378  ARG378     -0.1245
     98  CA        22.6450  -20.4420  285.0460 C.3   378  ARG378      0.1563
     99  C         23.9790  -21.1310  284.8200 C.2   378  ARG378      0.2260
    100  O         24.4050  -21.2990  283.6780 O.2   378  ARG378     -0.2867
    101  CB        21.5060  -21.1160  284.2530 C.3   378  ARG378      0.0307
    102  CG        21.1750  -22.5710  284.6470 C.3   378  ARG378      0.0489
    103  CD        22.0730  -23.5590  283.9070 C.3   378  ARG378      0.2205
    104  NE        21.5580  -24.9310  283.9020 N.pl3 378  ARG378     -0.0865
    105  CZ        22.2150  -25.9390  283.3370 C.cat 378  ARG378      0.5346
    106  NH1       23.3990  -25.7030  282.7680 N.pl3 378  ARG378      0.1354
    107  NH2       21.7070  -27.1700  283.3390 N.pl3 378  ARG378      0.1354
    108  N         26.4880  -23.9910  284.5310 N.3   380  ASP380     -0.1225
    109  CA        26.5010  -25.4160  284.2260 C.3   380  ASP380      0.1805
    110  C         27.5270  -26.1570  285.0890 C.2   380  ASP380      0.2597
    111  O         28.6990  -25.7660  285.1100 O.2   380  ASP380     -0.2718
    112  CB        26.8250  -25.6050  282.7370 C.3   380  ASP380      0.1424
    113  CG        26.6290  -27.0310  282.2640 C.2   380  ASP380      0.3668
    114  OD1       25.4590  -27.4210  282.0710 O.co2 380  ASP380     -0.2456
    115  OD2       27.6390  -27.7500  282.0580 O.co2 380  ASP380     -0.2456
    116  N         27.0890  -27.2060  285.7890 N.am  381  ASN381     -0.1974
    117  CA        27.9860  -28.0820  286.5640 C.3   381  ASN381      0.1688
    118  C         29.0980  -27.3530  287.3180 C.2   381  ASN381      0.2292
    119  O         30.2890  -27.6010  287.0690 O.2   381  ASN381     -0.2864
    120  CB        28.6470  -29.1180  285.6440 C.3   381  ASN381      0.1181
    121  CG        27.6550  -30.1140  285.0750 C.2   381  ASN381      0.2629
    122  OD1       26.9020  -30.7480  285.8070 O.2   381  ASN381     -0.2716
    123  ND2       27.6420  -30.2390  283.7570 N.am  381  ASN381     -0.0877
    124  N         30.1870  -27.7470  290.1130 N.3   383  HIS383     -0.1241
    125  CA        30.9090  -28.6440  291.0150 C.3   383  HIS383      0.1621
    126  C         32.0490  -29.4130  290.3250 C.2   383  HIS383      0.2264
    127  O         32.7530  -30.1940  290.9740 O.2   383  HIS383     -0.2867
    128  CB        29.9380  -29.6340  291.6600 C.3   383  HIS383      0.0745
    129  CG        29.2290  -30.5090  290.6710 C.ar  383  HIS383      0.0817
    130  ND1       28.3990  -30.0030  289.6920 N.ar  383  HIS383     -0.2268
    131  CD2       29.2450  -31.8520  290.4960 C.ar  383  HIS383      0.1154
    132  CE1       27.9280  -31.0000  288.9620 C.ar  383  HIS383      0.1986
    133  NE2       28.4230  -32.1320  289.4320 N.ar  383  HIS383     -0.2212
    134  N         23.9080  -25.1120  288.9630 N.3   409  GLU409     -0.1245
    135  CA        23.3770  -26.3930  288.5030 C.3   409  GLU409      0.1567
    136  C         24.2680  -27.5340  288.9860 C.2   409  GLU409      0.2260
    137  O         25.0040  -28.1480  288.2070 O.2   409  GLU409     -0.2867
    138  CB        23.2400  -26.4250  286.9770 C.3   409  GLU409      0.0388
    139  CG        22.4600  -27.6390  286.4970 C.3   409  GLU409      0.1160
    140  CD        23.3150  -28.6670  285.7630 C.2   409  GLU409      0.3649
    141  OE1       24.4020  -28.3160  285.2530 O.co2 409  GLU409     -0.2457
    142  OE2       22.8800  -29.8340  285.6840 O.co2 409  GLU409     -0.2457
    143  N         23.9200  -30.9760  290.7430 N.3   411  PHE411     -0.1241
    144  CA        23.2560  -32.1530  291.2670 C.3   411  PHE411      0.1605
    145  C         24.3570  -33.0790  291.7390 C.2   411  PHE411      0.2264
    146  O         24.9210  -33.8210  290.9460 O.2   411  PHE411     -0.2867
    147  CB        22.3900  -32.8540  290.2110 C.3   411  PHE411      0.0534
    148  CG        21.3010  -31.9990  289.6180 C.ar  411  PHE411     -0.0203
    149  CD1       20.1820  -31.6520  290.3580 C.ar  411  PHE411     -0.0042
    150  CD2       21.3650  -31.6030  288.2840 C.ar  411  PHE411     -0.0042
    151  CE1       19.1680  -30.8930  289.8050 C.ar  411  PHE411     -0.0003
    152  CE2       20.3520  -30.8420  287.7180 C.ar  411  PHE411     -0.0003
    153  CZ        19.2520  -30.4870  288.4780 C.ar  411  PHE411     -0.0000
    154  N         15.9810  -30.6250  280.5250 N.3   465  PRO465     -0.2102
    155  CA        16.1960  -31.4770  279.3410 C.3   465  PRO465      0.1504
    156  C         16.9190  -32.7830  279.6650 C.2   465  PRO465      0.2575
    157  O         16.9210  -33.7080  278.8370 O.2   465  PRO465     -0.2718
    158  CB        17.0480  -30.5970  278.4250 C.3   465  PRO465      0.0282
    159  CG        16.7260  -29.1920  278.8430 C.3   465  PRO465      0.0208
    160  CD        16.5910  -29.2950  280.3520 C.3   465  PRO465      0.0893
    161  N         17.5020  -32.8580  280.8590 N.am  466  ASP466     -0.1974
    162  CA        18.1960  -34.0570  281.3330 C.3   466  ASP466      0.1708
    163  C         17.4080  -34.8950  282.3240 C.2   466  ASP466      0.2293
    164  O         17.8770  -35.9570  282.7330 O.2   466  ASP466     -0.2864
    165  CB        19.5180  -33.6880  282.0150 C.3   466  ASP466      0.1436
    166  CG        20.3100  -32.6750  281.2390 C.2   466  ASP466      0.3671
    167  OD1       20.8980  -33.0530  280.2040 O.co2 466  ASP466     -0.2456
    168  OD2       20.3530  -31.5030  281.6790 O.co2 466  ASP466     -0.2456
    169  N         18.2440  -31.4790  272.9920 N.3   520  LYS520     -0.1231
    170  CA        19.6600  -31.1540  273.1380 C.3   520  LYS520      0.1693
    171  C         20.4350  -31.4440  271.8500 C.2   520  LYS520      0.2592
    172  O         21.4800  -30.8400  271.6050 O.2   520  LYS520     -0.2718
    173  CB        20.2720  -31.9340  274.3040 C.3   520  LYS520      0.0285
    174  CG        19.7300  -31.5510  275.6830 C.3   520  LYS520      0.0035
    175  CD        20.4250  -32.3430  276.8050 C.3   520  LYS520      0.0206
    176  CE        19.9880  -33.8090  276.8180 C.3   520  LYS520      0.1093
    177  NZ        20.7350  -34.6130  277.8400 N.3   520  LYS520     -0.1314
    178  N         19.9170  -32.3620  271.0280 N.am  521  TYR521     -0.1976
    179  CA        20.6350  -32.8160  269.8300 C.3   521  TYR521      0.1639
    180  C         19.8910  -32.6050  268.5160 C.2   521  TYR521      0.2290
    181  O         20.3750  -33.0170  267.4600 O.2   521  TYR521     -0.2864
    182  CB        20.9730  -34.3060  269.9450 C.3   521  TYR521      0.0560
    183  CG        21.4260  -34.7090  271.3170 C.ar  521  TYR521     -0.0198
    184  CD1       22.7160  -34.4390  271.7470 C.ar  521  TYR521     -0.0009
    185  CD2       20.5600  -35.3480  272.1900 C.ar  521  TYR521     -0.0009
    186  CE1       23.1360  -34.8080  273.0090 C.ar  521  TYR521      0.0417
    187  CE2       20.9670  -35.7150  273.4550 C.ar  521  TYR521      0.0417
    188  CZ        22.2610  -35.4450  273.8570 C.ar  521  TYR521      0.1957
    189  OH        22.6600  -35.8030  275.1230 O.3   521  TYR521     -0.2866
@<TRIPOS>BOND
     1     4     3    2
     2   181   180    2
     3     3     2    1
     4     1     2    1
     5   180   179    1
     6     2     5    1
     7   179   182    1
     8   179   178    1
     9   182   183    1
    10     5     6    1
    11    18    19    1
    12   178   171   am
    13     6     7    1
    14    41    40    2
    15    10    11    1
    16    12    13    2
    17    12    11    1
    18   183   184   ar
    19   183   185   ar
    20    21    20    2
    21    19    20    1
    22    19    22    1
    23   172   171    2
    24    85    82    1
    25    85    86    1
    26   184   186   ar
    27    11    14    1
    28    42    39    1
    29   171   170    1
    30    82    83    1
    31    82    81    1
    32   185   187   ar
    33    84    83    2
    34    40    39    1
    35     7     8    1
    36    88    86   ar
    37    22    23    1
    38    86    87   ar
    39    83    89   am
    40    39    38    1
    41   169   170    1
    42   186   188   ar
    43   170   173    1
    44     8     9    1
    45    14    15    1
    46   187   188   ar
    47    38    26   am
    48    16    15    2
    49   188   189    1
    50    15    17   am
    51    89    90    1
    52   173   174    1
    53    24    25    1
    54    90    91    1
    55    90    93    1
    56    26    25    1
    57    26    27    2
    58    95    93    1
    59    25    28    1
    60    91    92    2
    61   174   175    1
    62    93    94    1
    63    71    72    2
    64    71    70    1
    65    34    36   ar
    66    34    31   ar
    67    36    37   ar
    68    28    29    1
    69    94    96    1
    70   175   176    1
    71    70    69    1
    72    70    73    1
    73   176   177    1
    74    46    45    2
    75    31    29   ar
    76    31    33   ar
    77    37    35   ar
    78    29    30   ar
    79    45    44    1
    80    73    74    1
    81    33    35   ar
    82    33    32   ar
    83   158   159    1
    84   158   155    1
    85    51    49   am
    86    30    32   ar
    87    48    49    1
    88    48    47    1
    89    75    74   ar
    90    75    77   ar
    91    74    76   ar
    92   157   156    2
    93   159   160    1
    94    44    47    1
    95    44    43    1
    96    49    50    2
    97   155   156    1
    98   155   154    1
    99    77    79   ar
   100   156   161   am
   101    76    78   ar
   102   167   166   ar
   103   160   154    1
   104    62    61    1
   105    62    63    2
   106    79    78   ar
   107    79    80    1
   108   161   162    1
   109   166   168   ar
   110   166   165    1
   111   162   165    1
   112   162   163    1
   113    61    64    1
   114    61    60    1
   115    64    65    1
   116   115   113   ar
   117   114   113   ar
   118   113   112    1
   119   163   164    2
   120    65    66    1
   121    66    67    1
   122   112   109    1
   123   106   105    1
   124    52    53    1
   125    67    68    1
   126   105   107    1
   127   105   104    2
   128   100    99    2
   129   123   121   am
   130   104   103    1
   131   103   102    1
   132   109   108    1
   133   109   110    1
   134   101   102    1
   135   101    98    1
   136    56    53    1
   137    56    57    1
   138    53    54    1
   139    55    54    2
   140    97    98    1
   141    99    98    1
   142   121   120    1
   143   121   122    2
   144   110   111    2
   145   110   116   am
   146   141   140   ar
   147   120   117    1
   148   142   140   ar
   149   140   139    1
   150    57    59   am
   151    57    58    2
   152   116   117    1
   153   139   138    1
   154   117   118    1
   155   138   135    1
   156   119   118    2
   157   152   150   ar
   158   152   153   ar
   159   137   136    2
   160   150   148   ar
   161   153   151   ar
   162   135   134    1
   163   135   136    1
   164   132   133   ar
   165   132   130   ar
   166   133   131   ar
   167   148   147    1
   168   148   149   ar
   169   130   129   ar
   170   151   149   ar
   171   124   125    1
   172   147   144    1
   173   126   127    2
   174   126   125    1
   175   131   129   ar
   176   129   128    1
   177   143   144    1
   178   146   145    2
   179   125   128    1
   180   144   145    1
