@<TRIPOS>MOLECULE
tmp/4u33F00.pdb
 169 161 0 0 0
SMALL
GASTEIGER

@<TRIPOS>ATOM
      1  N         42.4870   50.5110   20.2820 N.3   250  LYS250     -0.1245
      2  CA        42.4720   51.9180   19.8980 C.3   250  LYS250      0.1561
      3  C         42.7430   52.8320   21.0890 C.2   250  LYS250      0.2260
      4  O         42.3550   52.5340   22.2080 O.2   250  LYS250     -0.2867
      5  CB        41.1350   52.2600   19.2570 C.3   250  LYS250      0.0271
      6  CG        40.9750   51.7530   17.8400 C.3   250  LYS250      0.0035
      7  CD        39.6680   52.2080   17.2560 C.3   250  LYS250      0.0206
      8  CE        39.6550   52.0880   15.7600 C.3   250  LYS250      0.1093
      9  NZ        38.5480   52.8850   15.1770 N.3   250  LYS250     -0.1314
     10  N         40.0310   57.8190   19.3450 N.3   254  ASN254     -0.1240
     11  CA        40.0780   56.9720   18.1580 C.3   254  ASN254      0.1653
     12  C         41.4530   56.9370   17.5440 C.2   254  ASN254      0.2266
     13  O         41.5980   56.5640   16.3860 O.2   254  ASN254     -0.2867
     14  CB        39.0820   57.4170   17.0920 C.3   254  ASN254      0.1155
     15  CG        38.5720   56.2570   16.2690 C.2   254  ASN254      0.2627
     16  OD1       38.8780   55.1130   16.5590 O.2   254  ASN254     -0.2716
     17  ND2       37.8310   56.5490   15.2140 N.am  254  ASN254     -0.0877
     18  N         38.0490   50.2310   23.2090 N.3   265  SER265     -0.1217
     19  CA        36.6120   50.2870   23.0490 C.3   265  SER265      0.1889
     20  C         35.9830   48.9700   23.3630 C.2   265  SER265      0.2288
     21  O         36.4230   47.9570   22.8670 O.2   265  SER265     -0.2866
     22  CB        36.2370   50.6500   21.6350 C.3   265  SER265      0.2089
     23  OG        35.3050   49.6920   21.1720 O.3   265  SER265     -0.2183
     24  N         33.6680   47.5860   22.1950 N.3   267  TRP267     -0.1227
     25  CA        33.1870   46.9020   21.0070 C.3   267  TRP267      0.1737
     26  C         34.2630   46.0760   20.3310 C.2   267  TRP267      0.2595
     27  O         33.9870   45.3410   19.3950 O.2   267  TRP267     -0.2718
     28  CB        32.5670   47.9070   20.0480 C.3   267  TRP267      0.0564
     29  CG        31.2720   48.3970   20.5950 C.ar  267  TRP267      0.0003
     30  CD1       30.0610   47.8050   20.4710 C.ar  267  TRP267      0.0946
     31  CD2       31.0690   49.5550   21.3930 C.ar  267  TRP267      0.0152
     32  NE1       29.1120   48.5280   21.1290 N.ar  267  TRP267     -0.2442
     33  CE2       29.7120   49.6120   21.7060 C.ar  267  TRP267      0.0810
     34  CE3       31.9070   50.5560   21.8720 C.ar  267  TRP267      0.0012
     35  CZ2       29.1720   50.6220   22.4670 C.ar  267  TRP267      0.0191
     36  CZ3       31.3640   51.5630   22.6270 C.ar  267  TRP267      0.0001
     37  CH2       30.0140   51.5890   22.9170 C.ar  267  TRP267      0.0015
     38  N         35.4940   46.2160   20.8040 N.am  268  ALA268     -0.1980
     39  CA        36.5770   45.3350   20.3940 C.3   268  ALA268      0.1597
     40  C         36.5220   44.0390   21.1890 C.2   268  ALA268      0.2287
     41  O         37.4090   43.7560   21.9800 O.2   268  ALA268     -0.2864
     42  CB        37.9050   46.0110   20.5910 C.3   268  ALA268      0.0319
     43  N         31.1600   40.7690   16.2620 N.3   310  GLN310     -0.1245
     44  CA        32.4450   41.1630   15.7170 C.3   310  GLN310      0.1566
     45  C         33.4730   40.5280   16.6150 C.2   310  GLN310      0.2260
     46  O         33.1200   40.0080   17.6590 O.2   310  GLN310     -0.2867
     47  CB        32.6340   42.6730   15.7060 C.3   310  GLN310      0.0367
     48  CG        31.4050   43.4810   16.0150 C.3   310  GLN310      0.0905
     49  CD        31.7260   44.9240   16.2880 C.2   310  GLN310      0.2608
     50  OE1       31.2780   45.8160   15.5750 O.2   310  GLN310     -0.2717
     51  NE2       32.5040   45.1670   17.3290 N.am  310  GLN310     -0.0878
     52  N         36.0010   53.5090   10.0560 N.3   342  LYS342     -0.1231
     53  CA        36.9310   52.3960    9.9840 C.3   342  LYS342      0.1693
     54  C         37.0990   51.7600   11.3560 C.2   342  LYS342      0.2592
     55  O         37.3170   52.4530   12.3460 O.2   342  LYS342     -0.2718
     56  CB        38.2770   52.8640    9.4430 C.3   342  LYS342      0.0285
     57  CG        38.2070   53.5160    8.0660 C.3   342  LYS342      0.0035
     58  CD        39.5260   53.3670    7.3180 C.3   342  LYS342      0.0206
     59  CE        39.3690   53.6160    5.8270 C.3   342  LYS342      0.1093
     60  NZ        40.6720   53.4870    5.1140 N.3   342  LYS342     -0.1314
     61  N         37.0150   50.4380   11.4150 N.am  343  TYR343     -0.1976
     62  CA        37.0580   49.7410   12.6910 C.3   343  TYR343      0.1639
     63  C         38.2950   48.8510   12.7820 C.2   343  TYR343      0.2290
     64  O         38.1920   47.6260   12.8080 O.2   343  TYR343     -0.2864
     65  CB        35.8000   48.8900   12.8810 C.3   343  TYR343      0.0560
     66  CG        34.4710   49.6200   12.7960 C.ar  343  TYR343     -0.0198
     67  CD1       34.3780   50.9800   13.0340 C.ar  343  TYR343     -0.0009
     68  CD2       33.2980   48.9280   12.5080 C.ar  343  TYR343     -0.0009
     69  CE1       33.1600   51.6340   12.9620 C.ar  343  TYR343      0.0417
     70  CE2       32.0790   49.5720   12.4390 C.ar  343  TYR343      0.0417
     71  CZ        32.0160   50.9250   12.6660 C.ar  343  TYR343      0.1957
     72  OH        30.8080   51.5800   12.5990 O.3   343  TYR343     -0.2866
     73  N         40.1810   47.8750   15.0160 N.3   345  ASP345     -0.1225
     74  CA        40.3490   46.9570   16.1230 C.3   345  ASP345      0.1805
     75  C         39.5100   45.6910   16.0380 C.2   345  ASP345      0.2597
     76  O         39.5380   44.8880   16.9610 O.2   345  ASP345     -0.2718
     77  CB        40.0790   47.6750   17.4390 C.3   345  ASP345      0.1424
     78  CG        38.9470   48.6510   17.3400 C.2   345  ASP345      0.3668
     79  OD1       38.6340   49.0610   16.2110 O.co2 345  ASP345     -0.2456
     80  OD2       38.3770   49.0160   18.3860 O.co2 345  ASP345     -0.2456
     81  N         38.7500   45.4990   14.9650 N.am  346  ILE346     -0.1980
     82  CA        37.9340   44.2860   14.8790 C.3   346  ILE346      0.1595
     83  C         37.8500   43.5930   13.5260 C.2   346  ILE346      0.2287
     84  O         38.1400   44.1790   12.4970 O.2   346  ILE346     -0.2864
     85  CB        36.5010   44.5710   15.2990 C.3   346  ILE346      0.0276
     86  CG1       36.0320   45.8700   14.6650 C.3   346  ILE346      0.0022
     87  CG2       36.3990   44.6770   16.7900 C.3   346  ILE346      0.0022
     88  CD1       34.5550   46.0630   14.7410 C.3   346  ILE346      0.0001
     89  N         20.6370   45.0040   22.7430 N.3   378  ARG378     -0.1245
     90  CA        20.7640   46.0820   21.7960 C.3   378  ARG378      0.1563
     91  C         21.6400   45.5770   20.6850 C.2   378  ARG378      0.2260
     92  O         22.8470   45.6880   20.7570 O.2   378  ARG378     -0.2867
     93  CB        21.3670   47.3150   22.4400 C.3   378  ARG378      0.0307
     94  CG        21.4920   48.5030   21.5230 C.3   378  ARG378      0.0489
     95  CD        22.8590   48.6810   20.9600 C.3   378  ARG378      0.2205
     96  NE        23.1140   50.0760   20.6450 N.pl3 378  ARG378     -0.0865
     97  CZ        24.2330   50.5110   20.0890 C.cat 378  ARG378      0.5346
     98  NH1       25.1940   49.6540   19.7980 N.pl3 378  ARG378      0.1354
     99  NH2       24.3950   51.7960   19.8350 N.pl3 378  ARG378      0.1354
    100  N         23.7790   45.2690   17.5330 N.3   380  ASP380     -0.1225
    101  CA        24.6460   46.3290   17.1130 C.3   380  ASP380      0.1805
    102  C         24.8960   46.2180   15.6250 C.2   380  ASP380      0.2597
    103  O         25.2790   45.1600   15.1430 O.2   380  ASP380     -0.2718
    104  CB        25.9330   46.2410   17.9140 C.3   380  ASP380      0.1424
    105  CG        26.9160   47.2740   17.5300 C.2   380  ASP380      0.3668
    106  OD1       26.5560   48.1740   16.7560 O.co2 380  ASP380     -0.2456
    107  OD2       28.0480   47.2020   18.0240 O.co2 380  ASP380     -0.2456
    108  N         24.6340   47.3040   14.9020 N.am  381  ASN381     -0.1974
    109  CA        24.8170   47.3510   13.4550 C.3   381  ASN381      0.1688
    110  C         24.2240   46.1870   12.7000 C.2   381  ASN381      0.2292
    111  O         24.9000   45.5880   11.8980 O.2   381  ASN381     -0.2864
    112  CB        26.2940   47.4300   13.1210 C.3   381  ASN381      0.1181
    113  CG        26.8290   48.8140   13.2230 C.2   381  ASN381      0.2629
    114  OD1       26.0730   49.7740   13.2840 O.2   381  ASN381     -0.2716
    115  ND2       28.1430   48.9370   13.2580 N.am  381  ASN381     -0.0877
    116  N         20.1370   48.7840   16.1160 N.3   409  GLU409     -0.1245
    117  CA        20.7850   50.0560   15.8560 C.3   409  GLU409      0.1567
    118  C         21.1510   50.1270   14.3990 C.2   409  GLU409      0.2260
    119  O         22.3150   50.0820   14.0450 O.2   409  GLU409     -0.2867
    120  CB        22.0230   50.2150   16.7330 C.3   409  GLU409      0.0388
    121  CG        22.7420   51.5330   16.6170 C.3   409  GLU409      0.1160
    122  CD        24.1160   51.3930   16.0270 C.2   409  GLU409      0.3649
    123  OE1       24.3220   51.7990   14.8710 O.co2 409  GLU409     -0.2457
    124  OE2       25.0070   50.8920   16.7320 O.co2 409  GLU409     -0.2457
    125  N         26.7340   57.4690   22.3200 N.3   464  PRO464     -0.2102
    126  CA        28.1630   57.7680   22.3630 C.3   464  PRO464      0.1504
    127  C         28.7360   58.1800   21.0150 C.2   464  PRO464      0.2575
    128  O         29.7430   58.8670   20.9630 O.2   464  PRO464     -0.2718
    129  CB        28.7790   56.4570   22.8190 C.3   464  PRO464      0.0282
    130  CG        27.6480   55.5170   23.0700 C.3   464  PRO464      0.0208
    131  CD        26.4090   56.2870   23.1220 C.3   464  PRO464      0.0893
    132  N         28.1070   57.7280   19.9400 N.am  465  ASP465     -0.1974
    133  CA        28.5220   58.0410   18.5790 C.3   465  ASP465      0.1708
    134  C         27.9090   59.3000   17.9750 C.2   465  ASP465      0.2293
    135  O         28.3620   59.7710   16.9460 O.2   465  ASP465     -0.2864
    136  CB        28.1910   56.8580   17.6850 C.3   465  ASP465      0.1436
    137  CG        28.6550   55.5620   18.2700 C.2   465  ASP465      0.3671
    138  OD1       29.8290   55.4900   18.6690 O.co2 465  ASP465     -0.2456
    139  OD2       27.8450   54.6280   18.3660 O.co2 465  ASP465     -0.2456
    140  N         31.3470   63.4430   16.9190 N.3   513  GLU513     -0.1245
    141  CA        31.9980   62.6090   17.9170 C.3   513  GLU513      0.1567
    142  C         32.3160   63.3730   19.1830 C.2   513  GLU513      0.2260
    143  O         32.8170   64.4940   19.1540 O.2   513  GLU513     -0.2867
    144  CB        33.2650   61.9980   17.3490 C.3   513  GLU513      0.0388
    145  CG        32.9700   60.9000   16.3780 C.3   513  GLU513      0.1160
    146  CD        32.7050   59.5980   17.0710 C.2   513  GLU513      0.3649
    147  OE1       32.9250   59.5260   18.3020 O.co2 513  GLU513     -0.2457
    148  OE2       32.2430   58.6600   16.3870 O.co2 513  GLU513     -0.2457
    149  N         34.2100   55.9840   24.7550 N.3   519  LYS519     -0.1231
    150  CA        34.4850   54.6920   24.1610 C.3   519  LYS519      0.1693
    151  C         35.9490   54.3560   24.3010 C.2   519  LYS519      0.2592
    152  O         36.3230   53.2070   24.4720 O.2   519  LYS519     -0.2718
    153  CB        34.0690   54.6620   22.7000 C.3   519  LYS519      0.0285
    154  CG        32.7400   55.2930   22.4180 C.3   519  LYS519      0.0035
    155  CD        32.3230   55.0600   20.9920 C.3   519  LYS519      0.0206
    156  CE        32.7010   56.2450   20.1400 C.3   519  LYS519      0.1093
    157  NZ        32.2700   56.0750   18.7450 N.3   519  LYS519     -0.1314
    158  N         36.7780   55.3750   24.1850 N.am  520  TYR520     -0.1976
    159  CA        38.2120   55.1950   24.1850 C.3   520  TYR520      0.1639
    160  C         38.8640   55.5610   25.5200 C.2   520  TYR520      0.2290
    161  O         40.0390   55.2800   25.7460 O.2   520  TYR520     -0.2864
    162  CB        38.7970   56.0240   23.0480 C.3   520  TYR520      0.0560
    163  CG        38.0060   55.9060   21.7570 C.ar  520  TYR520     -0.0198
    164  CD1       38.0700   54.7650   20.9760 C.ar  520  TYR520     -0.0009
    165  CD2       37.1750   56.9250   21.3400 C.ar  520  TYR520     -0.0009
    166  CE1       37.3470   54.6620   19.8090 C.ar  520  TYR520      0.0417
    167  CE2       36.4460   56.8240   20.1770 C.ar  520  TYR520      0.0417
    168  CZ        36.5360   55.6950   19.4190 C.ar  520  TYR520      0.1957
    169  OH        35.8060   55.6040   18.2670 O.3   520  TYR520     -0.2866
@<TRIPOS>BOND
     1    60    59    1
     2    59    58    1
     3    58    57    1
     4    57    56    1
     5    56    53    1
     6    53    52    1
     7    53    54    1
     8    54    61   am
     9    54    55    2
    10    61    62    1
    11   111   110    2
    12    70    68   ar
    13    70    71   ar
    14    84    83    2
    15    68    66   ar
    16    72    71    1
    17    71    69   ar
    18    62    63    1
    19    62    65    1
    20   110   109    1
    21    63    64    2
    22    66    65    1
    23    66    67   ar
    24    69    67   ar
    25   112   113    1
    26   112   109    1
    27   113   115   am
    28   113   114    2
    29   109   108    1
    30    83    82    1
    31   119   118    2
    32   118   117    1
    33    86    88    1
    34    86    85    1
    35   123   122   ar
    36    82    81    1
    37    82    85    1
    38   108   102   am
    39    81    75   am
    40    73    74    1
    41   103   102    2
    42     9     8    1
    43    17    15   am
    44    85    87    1
    45    50    49    2
    46   102   101    1
    47    47    44    1
    48    47    48    1
    49    44    43    1
    50    44    45    1
    51     8     7    1
    52   117   116    1
    53   117   120    1
    54    48    49    1
    55   122   121    1
    56   122   124   ar
    57    75    74    1
    58    75    76    2
    59    74    77    1
    60    79    78   ar
    61    15    16    2
    62    15    14    1
    63    49    51   am
    64   145   146    1
    65   145   144    1
    66    13    12    2
    67   148   146   ar
    68    45    46    2
    69   121   120    1
    70   106   105   ar
    71   140   141    1
    72   135   134    2
    73   146   147   ar
    74    14    11    1
    75   101   100    1
    76   101   104    1
    77     7     6    1
    78    78    77    1
    79    78    80   ar
    80   144   141    1
    81   105   104    1
    82   105   107   ar
    83    12    11    1
    84   136   137    1
    85   136   133    1
    86     6     5    1
    87   141   142    1
    88   134   133    1
    89    11    10    1
    90   169   168    1
    91   137   139   ar
    92   137   138   ar
    93   133   132    1
    94   157   156    1
    95   143   142    2
    96     5     2    1
    97    27    26    2
    98   168   166   ar
    99   168   167   ar
   100    98    97    1
   101   166   164   ar
   102    99    97    1
   103     2     1    1
   104     2     3    1
   105   132   127   am
   106    28    29    1
   107    28    25    1
   108    97    96    2
   109   156   155    1
   110   167   165   ar
   111    26    38   am
   112    26    25    1
   113    39    42    1
   114    39    38    1
   115    39    40    1
   116    30    29   ar
   117    30    32   ar
   118    29    31   ar
   119    96    95    1
   120    91    92    2
   121    91    90    1
   122    95    94    1
   123   128   127    2
   124   164   163   ar
   125   155   154    1
   126    25    24    1
   127   127   126    1
   128     3     4    2
   129    32    33   ar
   130    23    22    1
   131    40    41    2
   132   165   163   ar
   133    31    33   ar
   134    31    34   ar
   135    94    93    1
   136    22    19    1
   137    33    35   ar
   138   163   162    1
   139    90    93    1
   140    90    89    1
   141    34    36   ar
   142   125   126    1
   143   125   131    1
   144   126   129    1
   145   154   153    1
   146    35    37   ar
   147    36    37   ar
   148   153   150    1
   149   129   130    1
   150    21    20    2
   151   162   159    1
   152    19    18    1
   153    19    20    1
   154   130   131    1
   155   150   151    1
   156   150   149    1
   157   159   158    1
   158   159   160    1
   159   158   151   am
   160   151   152    2
   161   160   161    2
