@<TRIPOS>MOLECULE
tmp/4u36A00.pdb
 101 99 0 0 0
SMALL
GASTEIGER

@<TRIPOS>ATOM
      1  N        -16.5800  -20.3380  -30.1930 N.3    86  ALA86      -0.1231
      2  CA       -17.7960  -20.9710  -29.7410 C.3    86  ALA86       0.1694
      3  C        -17.6330  -21.3170  -28.2600 C.2    86  ALA86       0.2592
      4  O        -16.5150  -21.6120  -27.8350 O.2    86  ALA86      -0.2718
      5  CB       -18.1090  -22.2060  -30.5590 C.3    86  ALA86       0.0304
      6  N        -18.7070  -21.3370  -27.4830 N.am   87  ASP87      -0.1974
      7  CA       -20.0420  -20.9780  -27.9280 C.3    87  ASP87       0.1709
      8  C        -20.5360  -19.6740  -27.2890 C.2    87  ASP87       0.2293
      9  O        -21.1220  -18.8430  -27.9810 O.2    87  ASP87      -0.2864
     10  CB       -21.0240  -22.1090  -27.6340 C.3    87  ASP87       0.1436
     11  CG       -21.0060  -23.1870  -28.7040 C.2    87  ASP87       0.3671
     12  OD1      -21.6030  -23.0010  -29.7570 O.co2  87  ASP87      -0.2456
     13  OD2      -20.3620  -24.2490  -28.4460 O.co2  87  ASP87      -0.2456
     14  N        -24.2920  -29.2150  -23.6770 N.3   103  ASP103     -0.1225
     15  CA       -23.0710  -28.4630  -23.9550 C.3   103  ASP103      0.1805
     16  C        -23.1080  -27.8370  -25.3400 C.2   103  ASP103      0.2598
     17  O        -24.1240  -27.8640  -26.0120 O.2   103  ASP103     -0.2718
     18  CB       -21.8480  -29.3650  -23.7790 C.3   103  ASP103      0.1424
     19  CG       -21.7800  -30.4550  -24.8310 C.2   103  ASP103      0.3668
     20  OD1      -22.6380  -30.4950  -25.7290 O.co2 103  ASP103     -0.2456
     21  OD2      -20.8520  -31.3060  -24.7220 O.co2 103  ASP103     -0.2456
     22  N        -21.9770  -27.2620  -25.7580 N.am  104  GLY104     -0.1942
     23  CA       -21.9110  -26.6790  -27.0600 C.3   104  GLY104      0.2014
     24  C        -22.9050  -25.5300  -27.2280 C.2   104  GLY104      0.2639
     25  O        -22.9930  -24.6420  -26.3930 O.2   104  GLY104     -0.2714
     26  N        -23.6380  -25.5250  -28.3330 N.am  105  GLY105     -0.1939
     27  CA       -24.5440  -24.4350  -28.6550 C.3   105  GLY105      0.2014
     28  C        -25.6370  -24.2880  -27.6300 C.2   105  GLY105      0.2638
     29  O        -26.2900  -23.2430  -27.6540 O.2   105  GLY105     -0.2714
     30  N        -25.8790  -25.2800  -26.7780 N.am  106  PHE106     -0.1973
     31  CA       -26.9770  -25.1810  -25.8140 C.3   106  PHE106      0.1639
     32  C        -26.5840  -24.4070  -24.5670 C.2   106  PHE106      0.2290
     33  O        -27.4200  -24.1150  -23.7090 O.2   106  PHE106     -0.2864
     34  CB       -27.5180  -26.5740  -25.4730 C.3   106  PHE106      0.0560
     35  CG       -28.2580  -27.1950  -26.6130 C.ar  106  PHE106     -0.0200
     36  CD1      -29.5740  -26.8750  -26.8390 C.ar  106  PHE106     -0.0042
     37  CD2      -27.6220  -28.0730  -27.4730 C.ar  106  PHE106     -0.0042
     38  CE1      -30.2660  -27.4370  -27.9010 C.ar  106  PHE106     -0.0003
     39  CE2      -28.3030  -28.6470  -28.5280 C.ar  106  PHE106     -0.0003
     40  CZ       -29.6160  -28.3160  -28.7370 C.ar  106  PHE106     -0.0000
     41  N        -21.2570  -18.1010  -31.5560 N.3   123  PHE123     -0.1241
     42  CA       -21.3040  -19.0640  -32.6660 C.3   123  PHE123      0.1605
     43  C        -22.7070  -19.1620  -33.2280 C.2   123  PHE123      0.2264
     44  O        -23.6760  -19.3050  -32.4980 O.2   123  PHE123     -0.2867
     45  CB       -20.8110  -20.4280  -32.2090 C.3   123  PHE123      0.0534
     46  CG       -20.7490  -21.4480  -33.3230 C.ar  123  PHE123     -0.0203
     47  CD1      -19.6110  -21.5430  -34.1000 C.ar  123  PHE123     -0.0042
     48  CD2      -21.8090  -22.2880  -33.5770 C.ar  123  PHE123     -0.0042
     49  CE1      -19.5320  -22.4770  -35.1240 C.ar  123  PHE123     -0.0003
     50  CE2      -21.7540  -23.2150  -34.6050 C.ar  123  PHE123     -0.0003
     51  CZ       -20.6050  -23.3090  -35.3830 C.ar  123  PHE123     -0.0000
     52  N        -25.5090  -21.0850  -34.6110 N.3   125  ASN125     -0.1240
     53  CA       -26.1450  -22.3910  -34.7760 C.3   125  ASN125      0.1653
     54  C        -27.3970  -22.2960  -35.6330 C.2   125  ASN125      0.2266
     55  O        -27.7570  -21.2190  -36.1090 O.2   125  ASN125     -0.2867
     56  CB       -26.4990  -22.9820  -33.3980 C.3   125  ASN125      0.1155
     57  CG       -25.2880  -23.1490  -32.5220 C.2   125  ASN125      0.2627
     58  OD1      -24.9570  -22.2400  -31.7160 O.2   125  ASN125     -0.2716
     59  ND2      -24.6170  -24.2930  -32.6090 N.am  125  ASN125     -0.0877
     60  N        -30.4050  -22.2340  -34.8870 N.3   127  TRP127     -0.1241
     61  CA       -31.4740  -21.4480  -34.3170 C.3   127  TRP127      0.1605
     62  C        -31.0340  -20.0060  -34.1170 C.2   127  TRP127      0.2264
     63  O        -31.7520  -19.2260  -33.4860 O.2   127  TRP127     -0.2867
     64  CB       -31.8720  -22.0540  -32.9720 C.3   127  TRP127      0.0550
     65  CG       -30.6830  -22.3270  -32.1160 C.ar  127  TRP127      0.0003
     66  CD1      -29.8980  -21.3760  -31.4920 C.ar  127  TRP127      0.0946
     67  CD2      -30.1020  -23.5900  -31.7970 C.ar  127  TRP127      0.0152
     68  NE1      -28.8860  -21.9920  -30.8340 N.ar  127  TRP127     -0.2442
     69  CE2      -28.9770  -23.3470  -30.9780 C.ar  127  TRP127      0.0810
     70  CE3      -30.4290  -24.9130  -32.1040 C.ar  127  TRP127      0.0012
     71  CZ2      -28.1880  -24.3660  -30.4830 C.ar  127  TRP127      0.0191
     72  CZ3      -29.6430  -25.9160  -31.5980 C.ar  127  TRP127      0.0001
     73  CH2      -28.5270  -25.6410  -30.8010 C.ar  127  TRP127      0.0015
     74  N        -16.5610  -24.4800  -27.5710 N.3   208  GLY208     -0.1210
     75  CA       -17.0180  -25.2330  -28.7370 C.3   208  GLY208      0.1956
     76  C        -16.7170  -26.6990  -28.6400 C.2   208  GLY208      0.2612
     77  O        -15.8580  -27.1760  -27.9180 O.2   208  GLY208     -0.2717
     78  N        -17.4030  -27.4430  -29.5380 N.am  209  LEU209     -0.1965
     79  CA       -17.2130  -28.9090  -29.6330 C.3   209  LEU209      0.1728
     80  C        -16.0400  -29.3380  -30.4580 C.2   209  LEU209      0.2616
     81  O        -15.8640  -30.5720  -30.6610 O.2   209  LEU209     -0.2715
     82  CB       -18.5280  -29.5740  -30.1080 C.3   209  LEU209      0.0311
     83  CG       -19.7530  -29.2770  -29.1990 C.3   209  LEU209      0.0022
     84  CD1      -20.9080  -30.1640  -29.6630 C.3   209  LEU209      0.0001
     85  CD2      -19.4920  -29.4410  -27.7230 C.3   209  LEU209      0.0001
     86  N        -15.2650  -28.3990  -30.9500 N.am  210  SER210     -0.1950
     87  CA       -14.0780  -28.6870  -31.7830 C.3   210  SER210      0.1924
     88  C        -12.9080  -27.9160  -31.2680 C.2   210  SER210      0.2314
     89  O        -13.0280  -26.8680  -30.6040 O.2   210  SER210     -0.2863
     90  CB       -14.3910  -28.3230  -33.2450 C.3   210  SER210      0.2116
     91  OG       -14.6930  -26.9370  -33.3650 O.3   210  SER210     -0.2180
     92  N        -12.5300  -24.2050  -32.2240 N.3   213  HIS213     -0.1241
     93  CA       -13.6050  -23.3200  -31.7520 C.3   213  HIS213      0.1621
     94  C        -13.6030  -23.2350  -30.2290 C.2   213  HIS213      0.2264
     95  O        -14.5770  -23.6170  -29.5560 O.2   213  HIS213     -0.2867
     96  CB       -14.9600  -23.8270  -32.2500 C.3   213  HIS213      0.0745
     97  CG       -15.1690  -23.6510  -33.7220 C.ar  213  HIS213      0.0817
     98  ND1      -14.6440  -24.5030  -34.6620 N.ar  213  HIS213     -0.2268
     99  CD2      -15.8520  -22.7130  -34.4130 C.ar  213  HIS213      0.1154
    100  CE1      -14.9830  -24.0970  -35.8680 C.ar  213  HIS213      0.1986
    101  NE2      -15.7300  -23.0080  -35.7460 N.ar  213  HIS213     -0.2212
@<TRIPOS>BOND
     1    55    54    2
     2   100   101   ar
     3   100    98   ar
     4   101    99   ar
     5    54    53    1
     6    51    49   ar
     7    51    50   ar
     8    49    47   ar
     9    60    61    1
    10    53    52    1
    11    53    56    1
    12    98    97   ar
    13    50    48   ar
    14    99    97   ar
    15    61    62    1
    16    61    64    1
    17    62    63    2
    18    47    46   ar
    19    97    96    1
    20    48    46   ar
    21    56    57    1
    22    91    90    1
    23    46    45    1
    24    90    87    1
    25    43    42    1
    26    43    44    2
    27    64    65    1
    28    42    45    1
    29    42    41    1
    30    59    57   am
    31    57    58    2
    32    96    93    1
    33    92    93    1
    34    65    67   ar
    35    65    66   ar
    36    70    67   ar
    37    70    72   ar
    38    67    69   ar
    39    87    88    1
    40    87    86    1
    41    93    94    1
    42    72    73   ar
    43    66    68   ar
    44    88    89    2
    45    69    68   ar
    46    69    71   ar
    47    86    80   am
    48    73    71   ar
    49    81    80    2
    50     5     2    1
    51    80    79    1
    52    94    95    2
    53     1     2    1
    54    82    79    1
    55    82    83    1
    56    12    11   ar
    57     2     3    1
    58    84    83    1
    59    79    78    1
    60    78    76   am
    61    83    85    1
    62    40    39   ar
    63    40    38   ar
    64    75    76    1
    65    75    74    1
    66    11    13   ar
    67    11    10    1
    68    27    26    1
    69    27    28    1
    70    76    77    2
    71    39    37   ar
    72    26    24   am
    73     3     4    2
    74     3     6   am
    75     9     8    2
    76     7    10    1
    77     7     6    1
    78     7     8    1
    79    38    36   ar
    80    29    28    2
    81    28    30   am
    82    37    35   ar
    83    24    23    1
    84    24    25    2
    85    23    22    1
    86    36    35   ar
    87    30    31    1
    88    35    34    1
    89    17    16    2
    90    31    34    1
    91    31    32    1
    92    22    16   am
    93    20    19   ar
    94    16    15    1
    95    19    21   ar
    96    19    18    1
    97    32    33    2
    98    15    18    1
    99    15    14    1
