@<TRIPOS>MOLECULE
tmp/4u36A01.pdb
 88 87 0 0 0
SMALL
GASTEIGER

@<TRIPOS>ATOM
      1  N        -11.6530  -15.3600  -35.6330 N.3    83  SER83      -0.1202
      2  CA       -12.6510  -15.7260  -36.6250 C.3    83  SER83       0.2020
      3  C        -13.3890  -17.0530  -36.2560 C.2    83  SER83       0.2619
      4  O        -14.4100  -17.3870  -36.8260 O.2    83  SER83      -0.2717
      5  CB       -12.0890  -15.8740  -38.0570 C.3    83  SER83       0.2103
      6  OG       -11.2580  -17.0330  -38.2580 O.3    83  SER83      -0.2182
      7  N        -12.7780  -17.8200  -35.3730 N.am   84  LYS84      -0.1965
      8  CA       -13.2940  -19.1390  -35.0150 C.3    84  LYS84       0.1728
      9  C        -13.5440  -19.1760  -33.5180 C.2    84  LYS84       0.2616
     10  O        -12.6050  -19.1860  -32.7230 O.2    84  LYS84      -0.2715
     11  CB       -12.3120  -20.2360  -35.3910 C.3    84  LYS84       0.0311
     12  CG       -12.0240  -20.3140  -36.8840 C.3    84  LYS84       0.0038
     13  CD       -13.2650  -20.7450  -37.6400 C.3    84  LYS84       0.0206
     14  CE       -13.0570  -20.6860  -39.1420 C.3    84  LYS84       0.1093
     15  NZ       -14.2900  -21.0480  -39.8940 N.3    84  LYS84      -0.1314
     16  N        -14.8140  -19.1510  -33.1300 N.am   85  THR85      -0.1951
     17  CA       -15.1650  -19.0910  -31.7090 C.3    85  THR85       0.1897
     18  C        -16.4760  -19.7980  -31.4010 C.2    85  THR85       0.2313
     19  O        -17.3760  -19.8420  -32.2510 O.2    85  THR85      -0.2863
     20  CB       -15.2470  -17.6520  -31.2260 C.3    85  THR85       0.1794
     21  OG1      -16.3430  -17.0090  -31.8660 O.3    85  THR85      -0.2208
     22  CG2      -13.9940  -16.8630  -31.5670 C.3    85  THR85       0.0378
     23  N        -21.4040  -16.5220  -29.2880 N.3   122  THR122     -0.1203
     24  CA       -20.2510  -16.3350  -30.1620 C.3   122  THR122      0.1994
     25  C        -20.2370  -17.2690  -31.4050 C.2   122  THR122      0.2618
     26  O        -19.2850  -17.2140  -32.1810 O.2   122  THR122     -0.2717
     27  CB       -18.9430  -16.4760  -29.4140 C.3   122  THR122      0.1784
     28  OG1      -18.9090  -17.7820  -28.8650 O.3   122  THR122     -0.2211
     29  CG2      -18.7830  -15.4990  -28.2880 C.3   122  THR122      0.0376
     30  N        -21.2570  -18.1010  -31.5560 N.am  123  PHE123     -0.1961
     31  CA       -21.3040  -19.0640  -32.6660 C.3   123  PHE123      0.1771
     32  C        -22.7070  -19.1620  -33.2280 C.2   123  PHE123      0.2620
     33  O        -23.6760  -19.3050  -32.4980 O.2   123  PHE123     -0.2715
     34  CB       -20.8110  -20.4280  -32.2090 C.3   123  PHE123      0.0574
     35  CG       -20.7490  -21.4480  -33.3230 C.ar  123  PHE123     -0.0200
     36  CD1      -19.6110  -21.5430  -34.1000 C.ar  123  PHE123     -0.0042
     37  CD2      -21.8090  -22.2880  -33.5770 C.ar  123  PHE123     -0.0042
     38  CE1      -19.5320  -22.4770  -35.1240 C.ar  123  PHE123     -0.0003
     39  CE2      -21.7540  -23.2150  -34.6050 C.ar  123  PHE123     -0.0003
     40  CZ       -20.6050  -23.3090  -35.3830 C.ar  123  PHE123     -0.0000
     41  N        -22.8020  -19.1190  -34.5700 N.am  124  SER124     -0.1950
     42  CA       -24.0900  -19.2160  -35.2300 C.3   124  SER124      0.1924
     43  C        -24.5680  -20.6560  -35.4350 C.2   124  SER124      0.2314
     44  O        -24.0870  -21.3450  -36.3510 O.2   124  SER124     -0.2863
     45  CB       -24.0080  -18.4750  -36.5630 C.3   124  SER124      0.2116
     46  OG       -25.2980  -18.3780  -37.1200 O.3   124  SER124     -0.2180
     47  N        -27.2280  -14.7670  -38.0700 N.3   130  SER130     -0.1202
     48  CA       -25.9210  -14.9860  -38.6500 C.3   130  SER130      0.2020
     49  C        -24.7710  -14.4990  -37.8000 C.2   130  SER130      0.2619
     50  O        -23.7740  -15.1870  -37.6890 O.2   130  SER130     -0.2717
     51  CB       -25.9070  -14.3690  -40.0200 C.3   130  SER130      0.2103
     52  OG       -24.6470  -14.5070  -40.5930 O.3   130  SER130     -0.2182
     53  N        -24.8920  -13.2680  -37.2690 N.am  131  ALA131     -0.1965
     54  CA       -23.8250  -12.6250  -36.5430 C.3   131  ALA131      0.1728
     55  C        -23.8450  -13.0240  -35.0850 C.2   131  ALA131      0.2616
     56  O        -24.8670  -13.3610  -34.5150 O.2   131  ALA131     -0.2715
     57  CB       -23.9750  -11.0830  -36.6570 C.3   131  ALA131      0.0334
     58  N        -22.7050  -12.8780  -34.4380 N.am  132  ARG132     -0.1963
     59  CA       -22.6710  -12.9490  -32.9750 C.3   132  ARG132      0.1729
     60  C        -23.6930  -11.9870  -32.3990 C.2   132  ARG132      0.2616
     61  O        -23.8940  -10.8900  -32.9360 O.2   132  ARG132     -0.2715
     62  CB       -21.3590  -12.4280  -32.4310 C.3   132  ARG132      0.0348
     63  CG       -20.1430  -13.0170  -33.0790 C.3   132  ARG132      0.0492
     64  CD       -18.9630  -13.0780  -32.1260 C.3   132  ARG132      0.2205
     65  NE       -17.9820  -14.0520  -32.5520 N.pl3 132  ARG132     -0.0865
     66  CZ       -17.1590  -13.8860  -33.5890 C.cat 132  ARG132      0.5346
     67  NH1      -17.2040  -12.7890  -34.3250 N.pl3 132  ARG132      0.1354
     68  NH2      -16.2820  -14.8280  -33.9360 N.pl3 132  ARG132      0.1354
     69  N        -24.3540  -12.3700  -31.3190 N.am  133  HIS133     -0.1973
     70  CA       -25.4240  -11.5500  -30.7600 C.3   133  HIS133      0.1656
     71  C        -25.5920  -11.6580  -29.2730 C.2   133  HIS133      0.2291
     72  O        -25.1950  -12.6340  -28.6330 O.2   133  HIS133     -0.2864
     73  CB       -26.6880  -12.0740  -31.4490 C.3   133  HIS133      0.0771
     74  CG       -26.8560  -13.5570  -31.3340 C.ar  133  HIS133      0.0820
     75  ND1      -26.1750  -14.4310  -32.1550 N.ar  133  HIS133     -0.2267
     76  CD2      -27.6090  -14.3150  -30.5190 C.ar  133  HIS133      0.1154
     77  CE1      -26.5100  -15.6730  -31.8310 C.ar  133  HIS133      0.1986
     78  NE2      -27.3710  -15.6300  -30.8360 N.ar  133  HIS133     -0.2212
     79  N        -12.5300  -24.2050  -32.2240 N.3   213  HIS213     -0.1241
     80  CA       -13.6050  -23.3200  -31.7520 C.3   213  HIS213      0.1621
     81  C        -13.6030  -23.2350  -30.2290 C.2   213  HIS213      0.2264
     82  O        -14.5770  -23.6170  -29.5560 O.2   213  HIS213     -0.2867
     83  CB       -14.9600  -23.8270  -32.2500 C.3   213  HIS213      0.0745
     84  CG       -15.1690  -23.6510  -33.7220 C.ar  213  HIS213      0.0817
     85  ND1      -14.6440  -24.5030  -34.6620 N.ar  213  HIS213     -0.2268
     86  CD2      -15.8520  -22.7130  -34.4130 C.ar  213  HIS213      0.1154
     87  CE1      -14.9830  -24.0970  -35.8680 C.ar  213  HIS213      0.1986
     88  NE2      -15.7300  -23.0080  -35.7460 N.ar  213  HIS213     -0.2212
@<TRIPOS>BOND
     1    52    51    1
     2    51    48    1
     3    15    14    1
     4    14    13    1
     5    48    47    1
     6    48    49    1
     7     6     5    1
     8     5     2    1
     9    49    50    2
    10    49    53   am
    11    13    12    1
    12    53    54    1
    13    46    45    1
    14    12    11    1
    15     4     3    2
    16    57    54    1
    17     2     3    1
    18     2     1    1
    19    45    42    1
    20    54    55    1
    21    44    43    2
    22     3     7   am
    23    87    88   ar
    24    87    85   ar
    25    88    86   ar
    26    43    42    1
    27    11     8    1
    28    40    38   ar
    29    40    39   ar
    30     7     8    1
    31    42    41    1
    32    38    36   ar
    33    55    56    2
    34    55    58   am
    35     8     9    1
    36    85    84   ar
    37    39    37   ar
    38    41    32   am
    39    58    59    1
    40    86    84   ar
    41    67    66    1
    42    36    35   ar
    43    68    66    1
    44    84    83    1
    45    66    65    2
    46    37    35   ar
    47     9    16   am
    48     9    10    2
    49    35    34    1
    50    32    31    1
    51    32    33    2
    52    16    17    1
    53    63    62    1
    54    63    64    1
    55    59    62    1
    56    59    60    1
    57    61    60    2
    58    31    34    1
    59    31    30    1
    60    65    64    1
    61    60    69   am
    62    19    18    2
    63    83    80    1
    64    79    80    1
    65    26    25    2
    66    75    77   ar
    67    75    74   ar
    68    21    20    1
    69    77    78   ar
    70    80    81    1
    71    17    18    1
    72    17    20    1
    73    22    20    1
    74    30    25   am
    75    73    74    1
    76    73    70    1
    77    25    24    1
    78    74    76   ar
    79    69    70    1
    80    78    76   ar
    81    70    71    1
    82    81    82    2
    83    24    27    1
    84    24    23    1
    85    27    28    1
    86    27    29    1
    87    71    72    2
