@<TRIPOS>MOLECULE
tmp/4u39B00.pdb
 107 102 0 0 0
SMALL
GASTEIGER

@<TRIPOS>ATOM
      1  N        -76.9390  -59.2550  -49.4960 N.3   247  LEU247     -0.1245
      2  CA       -75.9240  -59.2370  -48.4490 C.3   247  LEU247      0.1561
      3  C        -75.4350  -60.6370  -48.0850 C.2   247  LEU247      0.2260
      4  O        -74.3590  -60.7890  -47.5150 O.2   247  LEU247     -0.2867
      5  CB       -76.4320  -58.5510  -47.1860 C.3   247  LEU247      0.0270
      6  CG       -76.7730  -57.0700  -47.1920 C.3   247  LEU247      0.0019
      7  CD1      -78.1820  -56.8580  -47.6820 C.3   247  LEU247      0.0001
      8  CD2      -76.6520  -56.5200  -45.7850 C.3   247  LEU247      0.0001
      9  N        -72.4110  -61.1160  -50.4010 N.3   250  VAL250     -0.1231
     10  CA       -71.3070  -60.2340  -50.0480 C.3   250  VAL250      0.1692
     11  C        -70.5210  -60.7270  -48.8140 C.2   250  VAL250      0.2591
     12  O        -69.3050  -60.9570  -48.9030 O.2   250  VAL250     -0.2718
     13  CB       -71.8120  -58.7930  -49.8210 C.3   250  VAL250      0.0266
     14  CG1      -72.5140  -58.2490  -51.0640 C.3   250  VAL250      0.0020
     15  CG2      -72.7180  -58.7120  -48.6030 C.3   250  VAL250      0.0020
     16  N        -71.2060  -60.9440  -47.6870 N.am  251  GLN251     -0.1979
     17  CA       -70.5130  -61.3970  -46.4780 C.3   251  GLN251      0.1601
     18  C        -69.9800  -62.8160  -46.6510 C.2   251  GLN251      0.2287
     19  O        -68.9630  -63.1620  -46.0530 O.2   251  GLN251     -0.2864
     20  CB       -71.3620  -61.3020  -45.2030 C.3   251  GLN251      0.0394
     21  CG       -72.4940  -62.3050  -45.0850 C.3   251  GLN251      0.0908
     22  CD       -73.4630  -61.9350  -43.9860 C.2   251  GLN251      0.2608
     23  OE1      -73.3550  -60.8620  -43.3980 O.2   251  GLN251     -0.2717
     24  NE2      -74.4000  -62.8320  -43.6850 N.am  251  GLN251     -0.0878
     25  N        -67.0050  -62.2080  -48.3660 N.3   254  ALA254     -0.1231
     26  CA       -66.1620  -61.4530  -47.4290 C.3   254  ALA254      0.1694
     27  C        -65.5270  -62.3280  -46.3510 C.2   254  ALA254      0.2592
     28  O        -64.3630  -62.1410  -45.9870 O.2   254  ALA254     -0.2718
     29  CB       -66.9620  -60.3320  -46.7800 C.3   254  ALA254      0.0304
     30  N        -66.3040  -63.2800  -45.8450 N.am  255  ASP255     -0.1974
     31  CA       -65.8160  -64.2250  -44.8580 C.3   255  ASP255      0.1709
     32  C        -64.6540  -65.0290  -45.4380 C.2   255  ASP255      0.2293
     33  O        -63.7030  -65.3370  -44.7260 O.2   255  ASP255     -0.2864
     34  CB       -66.9400  -65.1480  -44.3790 C.3   255  ASP255      0.1436
     35  CG       -66.6340  -65.8850  -43.0960 C.2   255  ASP255      0.3671
     36  OD1      -65.6060  -65.6890  -42.4670 O.co2 255  ASP255     -0.2456
     37  OD2      -67.5090  -66.6050  -42.6100 O.co2 255  ASP255     -0.2456
     38  N        -61.8190  -62.7970  -45.4570 N.3   258  ALA258     -0.1245
     39  CA       -61.5140  -62.5720  -44.0480 C.3   258  ALA258      0.1562
     40  C        -60.8340  -63.7640  -43.3690 C.2   258  ALA258      0.2260
     41  O        -59.9200  -63.5770  -42.5570 O.2   258  ALA258     -0.2867
     42  CB       -62.7710  -62.1820  -43.2910 C.3   258  ALA258      0.0290
     43  N        -57.5950  -63.6080  -44.5530 N.3   261  SER261     -0.1202
     44  CA       -56.8820  -62.4070  -44.1230 C.3   261  SER261      0.2020
     45  C        -56.4920  -62.5500  -42.6600 C.2   261  SER261      0.2619
     46  O        -57.0260  -63.4110  -41.9430 O.2   261  SER261     -0.2717
     47  CB       -57.7370  -61.1520  -44.3170 C.3   261  SER261      0.2103
     48  OG       -58.7580  -61.0830  -43.3990 O.3   261  SER261     -0.2182
     49  N        -55.5610  -61.7040  -42.2240 N.am  262  ASP262     -0.1959
     50  CA       -55.1270  -61.6920  -40.8320 C.3   262  ASP262      0.1840
     51  C        -56.2950  -61.3110  -39.9470 C.2   262  ASP262      0.2622
     52  O        -57.1780  -60.5750  -40.3700 O.2   262  ASP262     -0.2715
     53  CB       -53.9690  -60.7100  -40.6300 C.3   262  ASP262      0.1450
     54  CG       -53.2040  -60.9090  -39.3420 C.2   262  ASP262      0.3671
     55  OD1      -53.4520  -61.8280  -38.5780 O.co2 262  ASP262     -0.2456
     56  OD2      -52.2200  -60.1970  -39.1290 O.co2 262  ASP262     -0.2456
     57  N        -56.3100  -61.8380  -38.7280 N.am  263  GLN263     -0.1963
     58  CA       -57.3440  -61.4930  -37.7610 C.3   263  GLN263      0.1733
     59  C        -57.2430  -60.0010  -37.4670 C.2   263  GLN263      0.2616
     60  O        -58.2550  -59.3160  -37.2850 O.2   263  GLN263     -0.2715
     61  CB       -57.2060  -62.3220  -36.4800 C.3   263  GLN263      0.0408
     62  CG       -57.4210  -63.8270  -36.6280 C.3   263  GLN263      0.0908
     63  CD       -58.7770  -64.1610  -37.1950 C.2   263  GLN263      0.2608
     64  OE1      -59.7930  -63.6770  -36.6590 O.2   263  GLN263     -0.2717
     65  NE2      -58.8270  -64.8420  -38.2960 N.am  263  GLN263     -0.0878
     66  N        -56.0050  -59.5120  -37.4470 N.am  264  ASP264     -0.1957
     67  CA       -55.7120  -58.1350  -37.0900 C.3   264  ASP264      0.1840
     68  C        -55.6000  -57.2560  -38.3290 C.2   264  ASP264      0.2622
     69  O        -55.1180  -56.1240  -38.2490 O.2   264  ASP264     -0.2715
     70  CB       -54.4170  -58.0620  -36.2890 C.3   264  ASP264      0.1450
     71  CG       -54.5550  -58.3090  -34.8280 C.2   264  ASP264      0.3671
     72  OD1      -55.6470  -58.4540  -34.3210 O.co2 264  ASP264     -0.2456
     73  OD2      -53.4420  -58.2970  -34.1620 O.co2 264  ASP264     -0.2456
     74  N        -56.0730  -57.7730  -39.4630 N.am  265  VAL265     -0.1963
     75  CA       -56.0490  -57.0490  -40.7420 C.3   265  VAL265      0.1727
     76  C        -56.8130  -55.7190  -40.6620 C.2   265  VAL265      0.2616
     77  O        -57.8140  -55.6240  -39.9550 O.2   265  VAL265     -0.2715
     78  CB       -56.6410  -57.9380  -41.9080 C.3   265  VAL265      0.0290
     79  CG1      -57.7330  -57.2040  -42.6680 C.3   265  VAL265      0.0023
     80  CG2      -55.5520  -58.4670  -42.8690 C.3   265  VAL265      0.0023
     81  N        -56.3190  -54.6900  -41.3490 N.am  266  ASN266     -0.1958
     82  CA       -57.1210  -53.4950  -41.6050 C.3   266  ASN266      0.1819
     83  C        -57.8650  -53.7890  -42.8990 C.2   266  ASN266      0.2621
     84  O        -57.2760  -54.3700  -43.7990 O.2   266  ASN266     -0.2715
     85  CB       -56.2530  -52.2410  -41.7830 C.3   266  ASN266      0.1195
     86  CG       -55.7980  -51.6380  -40.4770 C.2   266  ASN266      0.2630
     87  OD1      -56.4230  -50.7130  -39.9530 O.2   266  ASN266     -0.2716
     88  ND2      -54.6820  -52.1310  -39.9610 N.am  266  ASN266     -0.0877
     89  N        -59.1530  -53.4530  -42.9970 N.am  267  MET267     -0.1977
     90  CA       -59.8900  -53.7710  -44.2260 C.3   267  MET267      0.1605
     91  C        -60.8510  -52.6850  -44.7200 C.2   267  MET267      0.2287
     92  O        -61.6030  -52.0770  -43.9500 O.2   267  MET267     -0.2864
     93  CB       -60.6530  -55.0980  -44.0760 C.3   267  MET267      0.0413
     94  CG       -61.5610  -55.4230  -45.2580 C.3   267  MET267      0.0598
     95  SD       -62.4610  -56.9880  -45.1150 S.3   267  MET267     -0.1393
     96  CE       -62.4350  -57.6390  -46.7820 C.3   267  MET267      0.0692
     97  N        -63.8420  -52.5380  -47.5050 N.3   269  PHE269     -0.1241
     98  CA       -64.6870  -53.4760  -48.2300 C.3   269  PHE269      0.1605
     99  C        -65.8400  -52.7030  -48.7840 C.2   269  PHE269      0.2264
    100  O        -66.4820  -51.9340  -48.0770 O.2   269  PHE269     -0.2867
    101  CB       -65.2290  -54.5750  -47.3000 C.3   269  PHE269      0.0534
    102  CG       -66.4510  -55.3040  -47.8430 C.ar  269  PHE269     -0.0203
    103  CD1      -66.3180  -56.5380  -48.4820 C.ar  269  PHE269     -0.0042
    104  CD2      -67.7370  -54.7530  -47.7190 C.ar  269  PHE269     -0.0042
    105  CE1      -67.4410  -57.2070  -48.9870 C.ar  269  PHE269     -0.0003
    106  CE2      -68.8570  -55.4100  -48.2240 C.ar  269  PHE269     -0.0003
    107  CZ       -68.7120  -56.6360  -48.8560 C.ar  269  PHE269     -0.0000
@<TRIPOS>BOND
     1    14    13    1
     2     9    10    1
     3    10    13    1
     4    10    11    1
     5    13    15    1
     6     1     2    1
     7   105   107   ar
     8   105   103   ar
     9    12    11    2
    10   107   106   ar
    11    11    16   am
    12    99    98    1
    13    99   100    2
    14   103   102   ar
    15     2     3    1
    16     2     5    1
    17    25    26    1
    18    98    97    1
    19    98   101    1
    20   106   104   ar
    21     3     4    2
    22   102   104   ar
    23   102   101    1
    24    16    17    1
    25     7     6    1
    26    26    29    1
    27    26    27    1
    28     6     5    1
    29     6     8    1
    30    96    95    1
    31    18    17    1
    32    18    19    2
    33    17    20    1
    34    27    28    2
    35    27    30   am
    36    30    31    1
    37    38    39    1
    38    32    31    1
    39    32    33    2
    40    94    95    1
    41    94    93    1
    42    20    21    1
    43    21    22    1
    44    31    34    1
    45    91    90    1
    46    91    92    2
    47    43    44    1
    48    34    35    1
    49    47    44    1
    50    47    48    1
    51    90    93    1
    52    90    89    1
    53    44    45    1
    54    39    40    1
    55    39    42    1
    56    22    24   am
    57    22    23    2
    58    84    83    2
    59    40    41    2
    60    35    37   ar
    61    35    36   ar
    62    89    83   am
    63    83    82    1
    64    80    78    1
    65    79    78    1
    66    45    49   am
    67    45    46    2
    68    49    50    1
    69    78    75    1
    70    85    82    1
    71    85    86    1
    72    82    81    1
    73    81    76   am
    74    50    53    1
    75    50    51    1
    76    75    76    1
    77    75    74    1
    78    76    77    2
    79    53    54    1
    80    86    88   am
    81    86    87    2
    82    52    51    2
    83    51    57   am
    84    74    68   am
    85    54    56   ar
    86    54    55   ar
    87    57    58    1
    88    68    69    2
    89    68    67    1
    90    65    63   am
    91    58    59    1
    92    58    61    1
    93    59    66   am
    94    59    60    2
    95    66    67    1
    96    63    64    2
    97    63    62    1
    98    67    70    1
    99    62    61    1
   100    70    71    1
   101    71    72   ar
   102    71    73   ar
