@<TRIPOS>MOLECULE
tmp/4u39D00.pdb
 99 93 0 0 0
SMALL
GASTEIGER

@<TRIPOS>ATOM
      1  N        -68.1990  -50.0610  -21.3890 N.3   238  LEU238     -0.1245
      2  CA       -68.0170  -50.8970  -22.5700 C.3   238  LEU238      0.1561
      3  C        -66.6480  -50.7150  -23.2160 C.2   238  LEU238      0.2260
      4  O        -66.2440  -51.5320  -24.0370 O.2   238  LEU238     -0.2867
      5  CB       -69.1300  -50.6780  -23.6020 C.3   238  LEU238      0.0270
      6  CG       -70.5100  -51.1330  -23.1230 C.3   238  LEU238      0.0019
      7  CD1      -71.2420  -50.0260  -22.3670 C.3   238  LEU238      0.0001
      8  CD2      -71.3460  -51.7110  -24.2550 C.3   238  LEU238      0.0001
      9  N        -64.6870  -53.2500  -21.1620 N.3   241  VAL241     -0.1231
     10  CA       -65.1710  -54.5720  -21.5020 C.3   241  VAL241      0.1692
     11  C        -64.6220  -55.0410  -22.8490 C.2   241  VAL241      0.2591
     12  O        -64.0520  -56.1290  -22.9450 O.2   241  VAL241     -0.2718
     13  CB       -66.7120  -54.6060  -21.5440 C.3   241  VAL241      0.0266
     14  CG1      -67.1740  -55.9590  -21.9850 C.3   241  VAL241      0.0020
     15  CG2      -67.2930  -54.3220  -20.1790 C.3   241  VAL241      0.0020
     16  N        -64.7810  -54.2150  -23.8830 N.am  242  GLN242     -0.1979
     17  CA       -64.3670  -54.6080  -25.2310 C.3   242  GLN242      0.1601
     18  C        -62.8520  -54.7130  -25.3880 C.2   242  GLN242      0.2287
     19  O        -62.3790  -55.6220  -26.0680 O.2   242  GLN242     -0.2864
     20  CB       -65.0020  -53.6960  -26.3040 C.3   242  GLN242      0.0394
     21  CG       -64.5060  -52.2560  -26.3640 C.3   242  GLN242      0.0908
     22  CD       -65.4980  -51.3280  -27.0650 C.2   242  GLN242      0.2608
     23  OE1      -66.6190  -51.7240  -27.3890 O.2   242  GLN242     -0.2717
     24  NE2      -65.0860  -50.0850  -27.2920 N.am  242  GLN242     -0.0878
     25  N        -62.2310  -57.8770  -24.0990 N.3   245  ALA245     -0.1231
     26  CA       -62.7200  -58.8590  -25.0520 C.3   245  ALA245      0.1694
     27  C        -61.7710  -59.0410  -26.2440 C.2   245  ALA245      0.2592
     28  O        -61.5340  -60.1710  -26.7030 O.2   245  ALA245     -0.2718
     29  CB       -64.0910  -58.4720  -25.5260 C.3   245  ALA245      0.0304
     30  N        -61.2180  -57.9270  -26.7290 N.am  246  ASP246     -0.1974
     31  CA       -60.2670  -57.9650  -27.8380 C.3   246  ASP246      0.1709
     32  C        -59.0710  -58.8140  -27.4630 C.2   246  ASP246      0.2293
     33  O        -58.5240  -59.5270  -28.2990 O.2   246  ASP246     -0.2864
     34  CB       -59.7980  -56.5630  -28.2390 C.3   246  ASP246      0.1436
     35  CG       -60.8000  -55.8280  -29.1100 C.2   246  ASP246      0.3671
     36  OD1      -61.7600  -56.4570  -29.6120 O.co2 246  ASP246     -0.2456
     37  OD2      -60.6030  -54.6110  -29.3080 O.co2 246  ASP246     -0.2456
     38  N        -60.1200  -62.5030  -27.5090 N.3   249  ALA249     -0.1231
     39  CA       -60.3870  -62.8630  -28.9040 C.3   249  ALA249      0.1694
     40  C        -59.1170  -62.9670  -29.7480 C.2   249  ALA249      0.2592
     41  O        -58.9970  -63.8610  -30.5860 O.2   249  ALA249     -0.2718
     42  CB       -61.3470  -61.8840  -29.5260 C.3   249  ALA249      0.0304
     43  N        -58.1870  -62.0400  -29.5310 N.am  250  SER250     -0.1952
     44  CA       -56.9000  -62.0560  -30.2150 C.3   250  SER250      0.1924
     45  C        -56.1560  -63.3160  -29.8250 C.2   250  SER250      0.2314
     46  O        -55.4780  -63.9330  -30.6410 O.2   250  SER250     -0.2863
     47  CB       -56.0710  -60.8270  -29.8430 C.3   250  SER250      0.2116
     48  OG       -56.5650  -59.6630  -30.4860 O.3   250  SER250     -0.2180
     49  N        -59.0530  -68.5270  -31.0900 N.3   253  ASP253     -0.1225
     50  CA       -59.3030  -68.8220  -32.4960 C.3   253  ASP253      0.1805
     51  C        -60.3130  -67.8280  -33.0890 C.2   253  ASP253      0.2598
     52  O        -61.1640  -67.2970  -32.3780 O.2   253  ASP253     -0.2718
     53  CB       -59.8380  -70.2560  -32.6190 C.3   253  ASP253      0.1424
     54  CG       -59.9820  -70.7230  -34.0670 C.2   253  ASP253      0.3668
     55  OD1      -58.9980  -71.2650  -34.6180 O.co2 253  ASP253     -0.2456
     56  OD2      -61.0780  -70.5640  -34.6500 O.co2 253  ASP253     -0.2456
     57  N        -60.1820  -67.5410  -34.3820 N.am  254  GLN254     -0.1965
     58  CA       -61.1150  -66.6510  -35.0820 C.3   254  GLN254      0.1733
     59  C        -62.5320  -67.2190  -35.2070 C.2   254  GLN254      0.2616
     60  O        -63.5190  -66.5200  -34.9520 O.2   254  GLN254     -0.2715
     61  CB       -60.5790  -66.3150  -36.4820 C.3   254  GLN254      0.0408
     62  CG       -59.2800  -65.5130  -36.5280 C.3   254  GLN254      0.0908
     63  CD       -59.3890  -64.1990  -35.7990 C.2   254  GLN254      0.2608
     64  OE1      -60.3280  -63.4280  -36.0780 O.2   254  GLN254     -0.2717
     65  NE2      -58.5700  -63.9740  -34.8210 N.am  254  GLN254     -0.0878
     66  N        -62.6170  -68.5060  -35.5430 N.am  255  ASP255     -0.1957
     67  CA       -63.8910  -69.1590  -35.8510 C.3   255  ASP255      0.1840
     68  C        -64.4460  -69.8190  -34.5900 C.2   255  ASP255      0.2621
     69  O        -65.4000  -70.6100  -34.6460 O.2   255  ASP255     -0.2715
     70  CB       -63.6850  -70.2100  -36.9540 C.3   255  ASP255      0.1450
     71  CG       -64.9910  -70.6770  -37.5850 C.2   255  ASP255      0.3671
     72  OD1      -65.6110  -69.8770  -38.3170 O.co2 255  ASP255     -0.2456
     73  OD2      -65.3950  -71.8390  -37.3430 O.co2 255  ASP255     -0.2456
     74  N        -63.8450  -69.4640  -33.4530 N.am  256  VAL256     -0.1977
     75  CA       -64.2140  -70.0040  -32.1400 C.3   256  VAL256      0.1596
     76  C        -65.6630  -69.6930  -31.7660 C.2   256  VAL256      0.2287
     77  O        -66.1810  -68.6170  -32.0740 O.2   256  VAL256     -0.2864
     78  CB       -63.2320  -69.5080  -31.0370 C.3   256  VAL256      0.0276
     79  CG1      -63.8460  -68.3860  -30.2190 C.3   256  VAL256      0.0022
     80  CG2      -62.8010  -70.6620  -30.1460 C.3   256  VAL256      0.0022
     81  N        -68.1990  -68.6640  -28.9180 N.3   258  MET258     -0.1245
     82  CA       -67.9530  -67.9220  -27.6800 C.3   258  MET258      0.1570
     83  C        -69.1340  -67.3640  -26.9070 C.2   258  MET258      0.2261
     84  O        -70.0160  -66.7160  -27.4620 O.2   258  MET258     -0.2867
     85  CB       -66.9640  -66.7860  -27.9530 C.3   258  MET258      0.0387
     86  CG       -66.8760  -65.7800  -26.8350 C.3   258  MET258      0.0595
     87  SD       -65.5940  -64.5460  -27.1120 S.3   258  MET258     -0.1393
     88  CE       -65.1810  -64.1180  -25.4060 C.3   258  MET258      0.0692
     89  N        -69.7730  -64.7730  -23.8180 N.3   260  PHE260     -0.1241
     90  CA       -69.0230  -63.6990  -23.2220 C.3   260  PHE260      0.1605
     91  C        -70.0370  -62.8960  -22.4980 C.2   260  PHE260      0.2264
     92  O        -71.1140  -62.6810  -23.0110 O.2   260  PHE260     -0.2867
     93  CB       -68.3660  -62.8320  -24.2990 C.3   260  PHE260      0.0534
     94  CG       -67.8450  -61.5070  -23.7970 C.ar  260  PHE260     -0.0203
     95  CD1      -66.4800  -61.3300  -23.5980 C.ar  260  PHE260     -0.0042
     96  CD2      -68.7020  -60.4290  -23.5510 C.ar  260  PHE260     -0.0042
     97  CE1      -65.9790  -60.1170  -23.1330 C.ar  260  PHE260     -0.0003
     98  CE2      -68.2050  -59.2170  -23.0850 C.ar  260  PHE260     -0.0003
     99  CZ       -66.8420  -59.0620  -22.8840 C.ar  260  PHE260     -0.0000
@<TRIPOS>BOND
     1    72    71   ar
     2    71    73   ar
     3    71    70    1
     4    70    67    1
     5    62    61    1
     6    62    63    1
     7    61    58    1
     8    64    63    2
     9    67    66    1
    10    67    68    1
    11    63    65   am
    12    66    59   am
    13    59    58    1
    14    59    60    2
    15    58    57    1
    16    56    54   ar
    17    69    68    2
    18    55    54   ar
    19    68    74   am
    20    57    51   am
    21    54    53    1
    22    74    75    1
    23    51    50    1
    24    51    52    2
    25    53    50    1
    26    50    49    1
    27    75    76    1
    28    75    78    1
    29    77    76    2
    30    78    79    1
    31    78    80    1
    32    46    45    2
    33    41    40    2
    34    48    47    1
    35    44    47    1
    36    44    45    1
    37    44    43    1
    38    40    43   am
    39    40    39    1
    40    36    35   ar
    41    42    39    1
    42    37    35   ar
    43    35    34    1
    44    81    82    1
    45    39    38    1
    46    33    32    2
    47    34    31    1
    48    85    82    1
    49    85    86    1
    50    31    32    1
    51    31    30    1
    52    82    83    1
    53    84    83    2
    54    23    22    2
    55    24    22   am
    56    87    86    1
    57    87    88    1
    58    22    21    1
    59    30    27   am
    60    28    27    2
    61    21    20    1
    62    20    17    1
    63    27    26    1
    64    19    18    2
    65    29    26    1
    66    18    17    1
    67    17    16    1
    68    26    25    1
    69    93    94    1
    70    93    90    1
    71     8     6    1
    72     4     3    2
    73    16    11   am
    74    89    90    1
    75    94    95   ar
    76    94    96   ar
    77     5     6    1
    78     5     2    1
    79    95    97   ar
    80    96    98   ar
    81    90    91    1
    82     3     2    1
    83    97    99   ar
    84     6     7    1
    85    98    99   ar
    86    92    91    2
    87    12    11    2
    88    11    10    1
    89     2     1    1
    90    14    13    1
    91    13    10    1
    92    13    15    1
    93    10     9    1
