@<TRIPOS>MOLECULE
tmp/4u3bA00.pdb
 179 171 0 0 0
SMALL
GASTEIGER

@<TRIPOS>ATOM
      1  N        -14.7970   25.3750   -4.9410 N.3    17  ILE17      -0.1231
      2  CA       -14.3640   24.0790   -5.4580 C.3    17  ILE17       0.1692
      3  C        -14.8450   22.8910   -4.6500 C.2    17  ILE17       0.2592
      4  O        -15.1230   21.8380   -5.2190 O.2    17  ILE17      -0.2718
      5  CB       -12.8310   24.0520   -5.6470 C.3    17  ILE17       0.0266
      6  CG1      -12.4450   22.9470   -6.6450 C.3    17  ILE17       0.0019
      7  CG2      -12.0640   23.8630   -4.3040 C.3    17  ILE17       0.0020
      8  CD1      -10.9710   22.8810   -6.9880 C.3    17  ILE17       0.0001
      9  N        -14.9940   23.0660   -3.3380 N.am   18  HIS18      -0.1976
     10  CA       -15.4580   21.9650   -2.4920 C.3    18  HIS18       0.1656
     11  C        -16.9570   21.8980   -2.2870 C.2    18  HIS18       0.2291
     12  O        -17.5360   20.8060   -2.3470 O.2    18  HIS18      -0.2864
     13  CB       -14.7270   21.9970   -1.1510 C.3    18  HIS18       0.0771
     14  CG       -13.3260   21.5170   -1.2640 C.ar   18  HIS18       0.0820
     15  ND1      -13.0300   20.2920   -1.8490 N.ar   18  HIS18      -0.2267
     16  CD2      -12.1660   22.1140   -0.8750 C.ar   18  HIS18       0.1154
     17  CE1      -11.7140   20.1730   -1.8020 C.ar   18  HIS18       0.1986
     18  NE2      -11.1480   21.2600   -1.2530 N.ar   18  HIS18      -0.2212
     19  N         -7.4570   18.6970    2.1440 N.3    57  HIS57      -0.1241
     20  CA        -7.7910   19.1370    0.7910 C.3    57  HIS57       0.1621
     21  C         -8.0880   20.6080    0.6630 C.2    57  HIS57       0.2264
     22  O         -8.3950   21.0530   -0.4390 O.2    57  HIS57      -0.2867
     23  CB        -8.8740   18.2940    0.0920 C.3    57  HIS57       0.0745
     24  CG        -8.6510   16.8050    0.2190 C.ar   57  HIS57       0.0817
     25  ND1       -7.6230   16.1550   -0.4590 N.ar   57  HIS57      -0.2268
     26  CD2       -9.2760   15.9210    1.0270 C.ar   57  HIS57       0.1154
     27  CE1       -7.6970   14.8730   -0.0650 C.ar   57  HIS57       0.1986
     28  NE2       -8.6650   14.6870    0.8250 N.ar   57  HIS57      -0.2212
     29  N        -11.5500   26.9310    2.2670 N.3    70  THR70      -0.1218
     30  CA       -10.6200   27.2160    1.1930 C.3    70  THR70       0.1862
     31  C        -10.1050   28.6230    1.2070 C.2    70  THR70       0.2287
     32  O        -10.2390   29.3810    0.2130 O.2    70  THR70      -0.2866
     33  CB       -11.2420   26.8120   -0.1710 C.3    70  THR70       0.1770
     34  OG1      -11.9620   25.5480   -0.0150 O.3    70  THR70      -0.2211
     35  CG2      -10.1780   26.6330   -1.2840 C.3    70  THR70       0.0375
     36  N         -6.8570   29.4510    1.5270 N.3    72  GLU72      -0.1231
     37  CA        -5.4300   29.5240    1.2120 C.3    72  GLU72       0.1699
     38  C         -5.0410   30.3770    0.0250 C.2    72  GLU72       0.2592
     39  O         -3.9790   30.9940    0.0550 O.2    72  GLU72      -0.2718
     40  CB        -4.8480   28.1040    1.0490 C.3    72  GLU72       0.0402
     41  CG        -5.5430   27.2210    0.0120 C.3    72  GLU72       0.1161
     42  CD        -6.6400   26.2890    0.4970 C.2    72  GLU72       0.3649
     43  OE1       -7.3500   26.6160    1.4670 O.co2  72  GLU72      -0.2457
     44  OE2       -6.9030   25.3070   -0.2360 O.co2  72  GLU72      -0.2457
     45  N         -5.9040   30.4410   -1.0000 N.am   73  HIS73      -0.1976
     46  CA        -5.5170   31.1920   -2.1960 C.3    73  HIS73       0.1656
     47  C         -5.6550   32.6810   -1.9940 C.2    73  HIS73       0.2291
     48  O         -4.7400   33.4560   -2.3540 O.2    73  HIS73      -0.2864
     49  CB        -6.2810   30.7320   -3.4610 C.3    73  HIS73       0.0771
     50  CG        -6.1000   29.2720   -3.7730 C.ar   73  HIS73       0.0820
     51  ND1       -6.8660   28.6550   -4.7510 N.ar   73  HIS73      -0.2267
     52  CD2       -5.2160   28.3690   -3.2800 C.ar   73  HIS73       0.1154
     53  CE1       -6.4580   27.3900   -4.7800 C.ar   73  HIS73       0.1986
     54  NE2       -5.5050   27.1570   -3.8780 N.ar   73  HIS73      -0.2212
     55  N         -4.7170   25.0760   -8.9090 N.3   178  THR178     -0.1203
     56  CA        -4.9620   23.9030   -8.1050 C.3   178  THR178      0.1994
     57  C         -4.9860   22.6960   -9.1100 C.2   178  THR178      0.2618
     58  O         -5.3280   22.8580  -10.2980 O.2   178  THR178     -0.2717
     59  CB        -6.2240   24.0670   -7.3090 C.3   178  THR178      0.1784
     60  OG1       -6.2660   22.9670   -6.3880 O.3   178  THR178     -0.2211
     61  CG2       -7.4440   24.1330   -8.1670 C.3   178  THR178      0.0376
     62  N         -4.6760   21.5170   -8.6150 N.am  179  PHE179     -0.1961
     63  CA        -4.5500   20.3430   -9.4700 C.3   179  PHE179      0.1771
     64  C         -5.0080   19.1360   -8.7050 C.2   179  PHE179      0.2619
     65  O         -5.0470   19.1330   -7.4630 O.2   179  PHE179     -0.2715
     66  CB        -3.0850   20.1990   -9.9630 C.3   179  PHE179      0.0574
     67  CG        -2.0860   19.9630   -8.8580 C.ar  179  PHE179     -0.0200
     68  CD1       -1.7280   18.6700   -8.4920 C.ar  179  PHE179     -0.0042
     69  CD2       -1.5440   21.0270   -8.1440 C.ar  179  PHE179     -0.0042
     70  CE1       -0.8200   18.4410   -7.4600 C.ar  179  PHE179     -0.0003
     71  CE2       -0.6350   20.7950   -7.1030 C.ar  179  PHE179     -0.0003
     72  CZ        -0.2800   19.5080   -6.7650 C.ar  179  PHE179     -0.0000
     73  N         -5.3610   18.0900   -9.4720 N.am  180  ALA180     -0.1977
     74  CA        -5.8310   16.8250   -8.8930 C.3   180  ALA180      0.1597
     75  C         -5.4680   15.6900   -9.7920 C.2   180  ALA180      0.2287
     76  O         -5.3000   15.8770  -11.0050 O.2   180  ALA180     -0.2864
     77  CB        -7.3610   16.8460   -8.7310 C.3   180  ALA180      0.0319
     78  N         -9.8950   11.4860   -7.3000 N.3   185  ILE185     -0.1245
     79  CA       -11.1560   12.2210   -7.3610 C.3   185  ILE185      0.1561
     80  C        -12.3040   11.4510   -6.6890 C.2   185  ILE185      0.2260
     81  O        -13.0720   12.0620   -5.9380 O.2   185  ILE185     -0.2867
     82  CB       -11.4620   12.7450   -8.7940 C.3   185  ILE185      0.0252
     83  CG1      -10.4560   13.8850   -9.1590 C.3   185  ILE185      0.0019
     84  CG2      -12.9230   13.2370   -8.9380 C.3   185  ILE185      0.0019
     85  CD1      -10.4460   14.3000  -10.6370 C.3   185  ILE185      0.0001
     86  N        -12.1530   12.1330   -2.9660 N.3   188  ILE188     -0.1231
     87  CA       -12.5590   13.5000   -2.6510 C.3   188  ILE188      0.1692
     88  C        -14.0840   13.6400   -2.6800 C.2   188  ILE188      0.2591
     89  O        -14.6670   14.2210   -1.7470 O.2   188  ILE188     -0.2718
     90  CB       -11.8340   14.4670   -3.6070 C.3   188  ILE188      0.0266
     91  CG1      -10.3280   14.4080   -3.2740 C.3   188  ILE188      0.0019
     92  CG2      -12.4080   15.8930   -3.4190 C.3   188  ILE188      0.0020
     93  CD1       -9.3530   15.0730   -4.1830 C.3   188  ILE188      0.0001
     94  N        -14.7310   13.0690   -3.7120 N.am  189  LYS189     -0.1980
     95  CA       -16.1860   13.1450   -3.8080 C.3   189  LYS189      0.1596
     96  C        -16.8490   12.3530   -2.6760 C.2   189  LYS189      0.2287
     97  O        -17.8550   12.8130   -2.1160 O.2   189  LYS189     -0.2864
     98  CB       -16.6820   12.6120   -5.1620 C.3   189  LYS189      0.0298
     99  CG       -16.1180   13.3400   -6.3930 C.3   189  LYS189      0.0038
    100  CD       -16.7480   14.7170   -6.5990 C.3   189  LYS189      0.0206
    101  CE       -16.4290   15.2670   -7.9770 C.3   189  LYS189      0.1093
    102  NZ       -17.0740   16.5940   -8.2070 N.3   189  LYS189     -0.1314
    103  N        -14.9290   18.4550   -3.1610 N.3   194  GLY194     -0.1225
    104  CA       -14.7420   18.6090   -4.6070 C.3   194  GLY194      0.1811
    105  C        -16.0030   18.7880   -5.4240 C.2   194  GLY194      0.2280
    106  O        -15.9660   18.5450   -6.6350 O.2   194  GLY194     -0.2866
    107  N        -15.5070   21.1000   -8.4030 N.3   197  GLY197     -0.1210
    108  CA       -14.3350   20.8580   -9.2340 C.3   197  GLY197      0.1956
    109  C        -14.6840   20.5360  -10.6690 C.2   197  GLY197      0.2613
    110  O        -15.6200   19.7790  -10.9530 O.2   197  GLY197     -0.2717
    111  N        -13.8930   21.1090  -11.6070 N.am  198  SER198     -0.1938
    112  CA       -14.0870   20.8540  -13.0300 C.3   198  SER198      0.2055
    113  C        -12.7860   21.1930  -13.7460 C.2   198  SER198      0.2642
    114  O        -11.8670   21.7840  -13.1580 O.2   198  SER198     -0.2714
    115  CB       -15.2100   21.7300  -13.6000 C.3   198  SER198      0.2130
    116  OG       -14.7640   23.0670  -13.7970 O.3   198  SER198     -0.2179
    117  N        -12.7510   20.9340  -15.0540 N.am  199  LEU199     -0.1977
    118  CA       -11.6190   21.3030  -15.8880 C.3   199  LEU199      0.1596
    119  C        -11.5230   22.8050  -16.0870 C.2   199  LEU199      0.2287
    120  O        -10.4940   23.2790  -16.5830 O.2   199  LEU199     -0.2864
    121  CB       -11.6160   20.5560  -17.2320 C.3   199  LEU199      0.0297
    122  CG       -11.5430   19.0370  -17.1440 C.3   199  LEU199      0.0022
    123  CD1      -11.4710   18.4210  -18.5440 C.3   199  LEU199      0.0001
    124  CD2      -10.3170   18.5810  -16.3340 C.3   199  LEU199      0.0001
    125  N         -9.5170   23.4300  -12.3370 N.3   202  THR202     -0.1218
    126  CA        -8.5150   22.4980  -11.8140 C.3   202  THR202      0.1862
    127  C         -7.7260   21.9130  -12.9740 C.2   202  THR202      0.2287
    128  O         -8.3230   21.5500  -13.9830 O.2   202  THR202     -0.2866
    129  CB        -9.2040   21.3160  -11.0640 C.3   202  THR202      0.1770
    130  OG1      -10.0990   21.8160  -10.0560 O.3   202  THR202     -0.2211
    131  CG2       -8.2170   20.3920  -10.3740 C.3   202  THR202      0.0375
    132  N         -6.3360   18.6740  -14.1380 N.3   204  VAL204     -0.1245
    133  CA        -6.5600   17.2760  -13.7850 C.3   204  VAL204      0.1561
    134  C         -5.6290   16.4040  -14.6080 C.2   204  VAL204      0.2260
    135  O         -5.5590   16.5280  -15.8420 O.2   204  VAL204     -0.2867
    136  CB        -8.0390   16.8520  -13.9170 C.3   204  VAL204      0.0252
    137  CG1       -8.2290   15.3950  -13.5250 C.3   204  VAL204      0.0019
    138  CG2       -8.9120   17.7480  -13.0330 C.3   204  VAL204      0.0019
    139  N          2.0290   25.7350   -7.7360 N.3   225  HIS225     -0.1226
    140  CA         0.8150   25.8860   -6.9570 C.3   225  HIS225      0.1752
    141  C          1.0390   25.5030   -5.4960 C.2   225  HIS225      0.2595
    142  O          0.4940   26.1710   -4.6140 O.2   225  HIS225     -0.2718
    143  CB        -0.3470   25.0830   -7.5490 C.3   225  HIS225      0.0759
    144  CG        -1.6240   25.4020   -6.8220 C.ar  225  HIS225      0.0818
    145  ND1       -2.3300   26.5620   -7.1050 N.ar  225  HIS225     -0.2268
    146  CD2       -2.2240   24.7630   -5.7930 C.ar  225  HIS225      0.1154
    147  CE1       -3.3580   26.5850   -6.2480 C.ar  225  HIS225      0.1986
    148  NE2       -3.3050   25.5710   -5.4030 N.ar  225  HIS225     -0.2212
    149  N          1.7930   24.4480   -5.2080 N.am  226  LYS226     -0.1980
    150  CA         2.0580   24.0640   -3.8330 C.3   226  LYS226      0.1596
    151  C          2.8450   25.1300   -3.0740 C.2   226  LYS226      0.2287
    152  O          2.5850   25.3450   -1.8890 O.2   226  LYS226     -0.2864
    153  CB         2.8030   22.7200   -3.7950 C.3   226  LYS226      0.0298
    154  CG         1.9560   21.5330   -4.3370 C.3   226  LYS226      0.0038
    155  CD         0.7660   21.1870   -3.4860 C.3   226  LYS226      0.0206
    156  CE         1.1820   20.5130   -2.2200 C.3   226  LYS226      0.1093
    157  NZ         0.0180   19.9100   -1.4890 N.3   226  LYS226     -0.1314
    158  N          0.1980   27.6790   -2.2230 N.3   229  ASP229     -0.1239
    159  CA        -0.6320   27.2460   -1.0850 C.3   229  ASP229      0.1674
    160  C          0.1430   27.4630    0.2380 C.2   229  ASP229      0.2266
    161  O         -0.4450   27.9200    1.2210 O.2   229  ASP229     -0.2867
    162  CB        -0.9290   25.7430   -1.1860 C.3   229  ASP229      0.1410
    163  CG        -2.0420   25.3380   -2.1240 C.2   229  ASP229      0.3668
    164  OD1       -2.8660   26.2280   -2.5190 O.co2 229  ASP229     -0.2456
    165  OD2       -2.0980   24.1470   -2.4760 O.co2 229  ASP229     -0.2456
    166  N          1.5280   19.2500    2.6470 N.3   251  GLY251     -0.1210
    167  CA         0.1460   19.5940    2.3320 C.3   251  GLY251      0.1956
    168  C         -0.3490   20.5390    3.4150 C.2   251  GLY251      0.2611
    169  O          0.4110   20.9220    4.3070 O.2   251  GLY251     -0.2717
    170  N         -1.6420   20.8890    3.3820 N.am  252  HIS252     -0.1975
    171  CA        -2.1500   21.8590    4.3530 C.3   252  HIS252      0.1656
    172  C         -1.9620   21.3870    5.8080 C.2   252  HIS252      0.2291
    173  O         -1.6780   22.2070    6.6730 O.2   252  HIS252     -0.2864
    174  CB        -3.6240   22.1610    4.0900 C.3   252  HIS252      0.0771
    175  CG        -3.8780   22.7090    2.7360 C.ar  252  HIS252      0.0820
    176  ND1       -3.3260   23.9180    2.3060 N.ar  252  HIS252     -0.2267
    177  CD2       -4.5620   22.1590    1.7090 C.ar  252  HIS252      0.1154
    178  CE1       -3.7510   24.0790    1.0510 C.ar  252  HIS252      0.1986
    179  NE2       -4.4710   23.0410    0.6450 N.ar  252  HIS252     -0.2212
@<TRIPOS>BOND
     1   123   122    1
     2   121   122    1
     3   121   118    1
     4   122   124    1
     5   120   119    2
     6   119   118    1
     7   118   117    1
     8   135   134    2
     9   117   113   am
    10   134   133    1
    11   132   133    1
    12   128   127    2
    13   136   133    1
    14   136   137    1
    15   136   138    1
    16   116   115    1
    17   113   114    2
    18   113   112    1
    19   115   112    1
    20   112   111    1
    21   127   126    1
    22   125   126    1
    23   126   129    1
    24   111   109   am
    25   129   131    1
    26   129   130    1
    27    76    75    2
    28   110   109    2
    29   109   108    1
    30    85    83    1
    31    58    57    2
    32    66    63    1
    33    66    67    1
    34    75    74    1
    35    73    74    1
    36    73    64   am
    37    63    64    1
    38    63    62    1
    39   108   107    1
    40    83    82    1
    41    57    62   am
    42    57    56    1
    43    84    82    1
    44    55    56    1
    45    74    77    1
    46    67    68   ar
    47    67    69   ar
    48    82    79    1
    49    64    65    2
    50    68    70   ar
    51   102   101    1
    52    61    59    1
    53    69    71   ar
    54    56    59    1
    55   101   100    1
    56   139   140    1
    57   143   140    1
    58   143   144    1
    59    70    72   ar
    60    79    78    1
    61    79    80    1
    62    59    60    1
    63   145   144   ar
    64   145   147   ar
    65    71    72   ar
    66     8     6    1
    67   140   141    1
    68   144   146   ar
    69    80    81    2
    70     6     5    1
    71   106   105    2
    72   100    99    1
    73    99    98    1
    74   147   148   ar
    75   146   148   ar
    76     5     2    1
    77     5     7    1
    78   141   149   am
    79   141   142    2
    80     2     1    1
    81     2     3    1
    82   105   104    1
    83     4     3    2
    84   149   150    1
    85    98    95    1
    86    53    51   ar
    87    53    54   ar
    88    51    50   ar
    89     3     9   am
    90   104   103    1
    91   154   153    1
    92   154   155    1
    93    93    91    1
    94    54    52   ar
    95   150   153    1
    96   150   151    1
    97    95    94    1
    98    95    96    1
    99    50    49    1
   100    50    52   ar
   101    94    88   am
   102    90    92    1
   103    90    91    1
   104    90    87    1
   105   155   156    1
   106    49    46    1
   107     9    10    1
   108   151   152    2
   109    86    87    1
   110    88    87    1
   111    88    89    2
   112    96    97    2
   113   164   163   ar
   114    10    11    1
   115    10    13    1
   116   165   163   ar
   117    48    47    2
   118    12    11    2
   119   158   159    1
   120   156   157    1
   121    46    47    1
   122    46    45    1
   123   163   162    1
   124    15    17   ar
   125    15    14   ar
   126    17    18   ar
   127    35    33    1
   128    14    13    1
   129    14    16   ar
   130    18    16   ar
   131   162   159    1
   132   159   160    1
   133    45    38   am
   134    25    27   ar
   135    25    24   ar
   136    22    21    2
   137    44    42   ar
   138    33    34    1
   139    33    30    1
   140    27    28   ar
   141    41    42    1
   142    41    40    1
   143    38    39    2
   144    38    37    1
   145    23    24    1
   146    23    20    1
   147    32    31    2
   148    24    26   ar
   149   160   161    2
   150    42    43   ar
   151   179   178   ar
   152   179   177   ar
   153    21    20    1
   154    20    19    1
   155    28    26   ar
   156    40    37    1
   157   178   176   ar
   158    30    31    1
   159    30    29    1
   160    37    36    1
   161   177   175   ar
   162   176   175   ar
   163   167   166    1
   164   167   168    1
   165   175   174    1
   166   170   168   am
   167   170   171    1
   168   168   169    2
   169   174   171    1
   170   171   172    1
   171   172   173    2
