@<TRIPOS>MOLECULE
tmp/4u3cE01.pdb
 138 136 0 0 0
SMALL
GASTEIGER

@<TRIPOS>ATOM
      1  N        -72.3080  -18.8840   68.9650 N.3   435  THR435     -0.1203
      2  CA       -71.5050  -17.6700   68.9720 C.3   435  THR435      0.1994
      3  C        -72.1240  -16.5450   69.7890 C.2   435  THR435      0.2619
      4  O        -71.5780  -15.4460   69.8220 O.2   435  THR435     -0.2717
      5  CB       -71.2870  -17.1270   67.5380 C.3   435  THR435      0.1784
      6  OG1      -72.5540  -16.9580   66.8880 O.3   435  THR435     -0.2211
      7  CG2      -70.4100  -18.0640   66.7160 C.3   435  THR435      0.0376
      8  N        -73.2300  -16.7960   70.4850 N.am  436  THR436     -0.1938
      9  CA       -73.7670  -15.7190   71.3000 C.3   436  THR436      0.2028
     10  C        -73.5670  -16.0410   72.7670 C.2   436  THR436      0.2642
     11  O        -73.3790  -17.1960   73.1600 O.2   436  THR436     -0.2714
     12  CB       -75.2730  -15.4470   71.0410 C.3   436  THR436      0.1808
     13  OG1      -76.0920  -16.5020   71.5640 O.3   436  THR436     -0.2208
     14  CG2      -75.5380  -15.1850   69.5560 C.3   436  THR436      0.0379
     15  N        -73.5970  -14.9860   73.5640 N.am  437  LYS437     -0.1977
     16  CA       -73.3120  -15.0400   74.9820 C.3   437  LYS437      0.1596
     17  C        -74.1990  -16.0700   75.6470 C.2   437  LYS437      0.2287
     18  O        -73.7430  -16.8920   76.4380 O.2   437  LYS437     -0.2864
     19  CB       -73.5420  -13.6500   75.5620 C.3   437  LYS437      0.0298
     20  CG       -73.3590  -12.6240   74.4460 C.3   437  LYS437      0.0038
     21  CD       -71.8970  -12.5220   74.0330 C.3   437  LYS437      0.0206
     22  CE       -71.6020  -11.3390   73.1320 C.3   437  LYS437      0.1093
     23  NZ       -72.5100  -10.1790   73.3740 N.3   437  LYS437     -0.1314
     24  N        -68.3450  -16.4850   61.0370 N.3   469  VAL469     -0.1245
     25  CA       -67.8690  -15.6010   62.0990 C.3   469  VAL469      0.1561
     26  C        -66.3430  -15.4590   62.0030 C.2   469  VAL469      0.2260
     27  O        -65.7790  -14.4110   62.3210 O.2   469  VAL469     -0.2867
     28  CB       -68.2940  -16.1190   63.5180 C.3   469  VAL469      0.0252
     29  CG1      -67.6730  -17.4680   63.8400 C.3   469  VAL469      0.0019
     30  CG2      -67.9660  -15.1050   64.6070 C.3   469  VAL469      0.0019
     31  N        -64.3880  -11.4420   61.1490 N.3   473  ASN473     -0.1225
     32  CA       -63.9490  -10.7930   62.3820 C.3   473  ASN473      0.1785
     33  C        -62.4290  -10.7250   62.4960 C.2   473  ASN473      0.2598
     34  O        -61.8990  -10.2120   63.4830 O.2   473  ASN473     -0.2718
     35  CB       -64.5610  -11.4740   63.6030 C.3   473  ASN473      0.1169
     36  CG       -66.0730  -11.4000   63.6010 C.2   473  ASN473      0.2627
     37  OD1      -66.6600  -10.4320   64.0960 O.2   473  ASN473     -0.2716
     38  ND2      -66.7120  -12.4000   63.0050 N.am  473  ASN473     -0.0877
     39  N        -61.7310  -11.2270   61.4800 N.am  474  GLY474     -0.1943
     40  CA       -60.2930  -11.0490   61.4030 C.3   474  GLY474      0.1998
     41  C        -59.5200  -11.9460   62.3580 C.2   474  GLY474      0.2481
     42  O        -60.1110  -12.7540   63.0830 O.2   474  GLY474     -0.2729
     43  N        -58.1810  -11.8440   62.3290 N.am  475  PRO475     -0.2715
     44  CA       -57.2870  -12.8060   62.9840 C.3   475  PRO475      0.1536
     45  C        -57.5340  -12.8910   64.4870 C.2   475  PRO475      0.2599
     46  O        -57.2160  -13.9060   65.1130 O.2   475  PRO475     -0.2715
     47  CB       -55.8970  -12.2420   62.6880 C.3   475  PRO475      0.0310
     48  CG       -56.1090  -10.7980   62.4370 C.3   475  PRO475      0.0237
     49  CD       -57.4590  -10.6650   61.8190 C.3   475  PRO475      0.0939
     50  N        -58.1430  -11.8400   65.0320 N.am  476  GLY476     -0.1941
     51  CA       -58.4810  -11.7430   66.4430 C.3   476  GLY476      0.2014
     52  C        -59.4040  -12.8560   66.8960 C.2   476  GLY476      0.2638
     53  O        -59.2240  -13.4360   67.9740 O.2   476  GLY476     -0.2714
     54  N        -60.4140  -13.1240   66.0690 N.am  477  MET477     -0.1976
     55  CA       -61.4720  -14.0850   66.3780 C.3   477  MET477      0.1605
     56  C        -60.9160  -15.4910   66.5100 C.2   477  MET477      0.2287
     57  O        -61.4230  -16.3020   67.2960 O.2   477  MET477     -0.2864
     58  CB       -62.5690  -14.0540   65.3180 C.3   477  MET477      0.0413
     59  CG       -63.7950  -14.8660   65.7050 C.3   477  MET477      0.0598
     60  SD       -64.7320  -14.0460   67.0050 S.3   477  MET477     -0.1393
     61  CE       -65.8500  -15.3410   67.5480 C.3   477  MET477      0.0692
     62  N        -72.7500   -7.3170   77.9300 N.3   567  ASP567     -0.1225
     63  CA       -73.3950   -8.2400   77.0300 C.3   567  ASP567      0.1805
     64  C        -72.3580   -8.9000   76.1540 C.2   567  ASP567      0.2597
     65  O        -72.6030   -9.9660   75.6360 O.2   567  ASP567     -0.2718
     66  CB       -74.4300   -7.5180   76.1640 C.3   567  ASP567      0.1424
     67  CG       -75.6510   -7.0780   76.9530 C.2   567  ASP567      0.3668
     68  OD1      -76.3720   -7.9580   77.4760 O.co2 567  ASP567     -0.2456
     69  OD2      -75.8860   -5.8520   77.0540 O.co2 567  ASP567     -0.2456
     70  N        -71.1810   -8.2880   76.0390 N.am  568  ALA568     -0.1979
     71  CA       -70.1210   -8.7870   75.1570 C.3   568  ALA568      0.1597
     72  C        -69.0440   -9.6560   75.8240 C.2   568  ALA568      0.2287
     73  O        -68.1400  -10.1620   75.1480 O.2   568  ALA568     -0.2864
     74  CB       -69.4590   -7.6050   74.4540 C.3   568  ALA568      0.0319
     75  N        -65.9560  -11.6040   73.1230 N.3   589  LEU589     -0.1231
     76  CA       -66.4850  -12.1170   71.8730 C.3   589  LEU589      0.1693
     77  C        -66.3960  -11.0350   70.8060 C.2   589  LEU589      0.2592
     78  O        -66.7270  -11.2810   69.6430 O.2   589  LEU589     -0.2718
     79  CB       -67.8950  -12.6870   72.0260 C.3   589  LEU589      0.0284
     80  CG       -67.8400  -13.7450   73.1280 C.3   589  LEU589      0.0019
     81  CD1      -69.1880  -14.3490   73.4380 C.3   589  LEU589      0.0001
     82  CD2      -66.8460  -14.8280   72.7350 C.3   589  LEU589      0.0001
     83  N        -65.9350   -9.8410   71.1810 N.am  590  ASN590     -0.1960
     84  CA       -65.7510   -8.8500   70.1400 C.3   590  ASN590      0.1819
     85  C        -64.2610   -8.7030   69.9050 C.2   590  ASN590      0.2621
     86  O        -63.4840   -8.3230   70.7810 O.2   590  ASN590     -0.2715
     87  CB       -66.3650   -7.5080   70.6040 C.3   590  ASN590      0.1195
     88  CG       -66.0530   -6.3210   69.6810 C.2   590  ASN590      0.2630
     89  OD1      -66.0280   -6.4340   68.4590 O.2   590  ASN590     -0.2716
     90  ND2      -65.7570   -5.1790   70.2930 N.am  590  ASN590     -0.0877
     91  N        -63.8980   -9.0300   68.6720 N.am  591  ALA591     -0.1963
     92  CA       -62.5220   -9.0700   68.2160 C.3   591  ALA591      0.1728
     93  C        -61.9990   -7.6820   67.9070 C.2   591  ALA591      0.2616
     94  O        -60.7940   -7.4590   67.8290 O.2   591  ALA591     -0.2715
     95  CB       -62.3950   -9.9700   66.9920 C.3   591  ALA591      0.0334
     96  N        -62.9240   -6.7410   67.7430 N.am  592  PHE592     -0.1960
     97  CA       -62.5490   -5.4510   67.1930 C.3   592  PHE592      0.1771
     98  C        -62.3800   -4.3460   68.2180 C.2   592  PHE592      0.2620
     99  O        -61.4890   -3.5000   68.1100 O.2   592  PHE592     -0.2715
    100  CB       -63.6850   -5.0050   66.2720 C.3   592  PHE592      0.0574
    101  CG       -63.7270   -5.7080   64.9590 C.ar  592  PHE592     -0.0200
    102  CD1      -62.6280   -5.7780   64.1420 C.ar  592  PHE592     -0.0042
    103  CD2      -64.9040   -6.3190   64.5530 C.ar  592  PHE592     -0.0042
    104  CE1      -62.6990   -6.4500   62.9390 C.ar  592  PHE592     -0.0003
    105  CE2      -64.9820   -6.9830   63.3600 C.ar  592  PHE592     -0.0003
    106  CZ       -63.8770   -7.0470   62.5460 C.ar  592  PHE592     -0.0000
    107  N        -63.2520   -4.3650   69.2190 N.am  593  GLY593     -0.1940
    108  CA       -63.2750   -3.3160   70.2120 C.3   593  GLY593      0.1998
    109  C        -62.8730   -3.6760   71.6200 C.2   593  GLY593      0.2481
    110  O        -63.1390   -4.7910   72.0770 O.2   593  GLY593     -0.2729
    111  N        -62.2150   -2.7400   72.3140 N.am  594  PRO594     -0.2715
    112  CA       -61.9490   -2.9960   73.7250 C.3   594  PRO594      0.1536
    113  C        -63.3200   -3.1170   74.3980 C.2   594  PRO594      0.2598
    114  O        -64.2220   -2.3630   74.0310 O.2   594  PRO594     -0.2715
    115  CB       -61.1720   -1.7610   74.1680 C.3   594  PRO594      0.0310
    116  CG       -61.6290   -0.6820   73.2390 C.3   594  PRO594      0.0237
    117  CD       -61.8980   -1.3550   71.9230 C.3   594  PRO594      0.0939
    118  N        -63.4870   -4.0100   75.3630 N.am  595  GLU595     -0.1978
    119  CA       -64.7880   -4.1630   76.0140 C.3   595  GLU595      0.1602
    120  C        -64.5720   -4.2300   77.5010 C.2   595  GLU595      0.2287
    121  O        -63.6470   -4.8740   77.9950 O.2   595  GLU595     -0.2864
    122  CB       -65.5530   -5.3960   75.5220 C.3   595  GLU595      0.0415
    123  CG       -67.0610   -5.1610   75.4700 C.3   595  GLU595      0.1163
    124  CD       -67.4960   -4.3640   74.2550 C.2   595  GLU595      0.3649
    125  OE1      -66.8270   -4.4670   73.2010 O.co2 595  GLU595     -0.2457
    126  OE2      -68.4850   -3.6060   74.3710 O.co2 595  GLU595     -0.2457
    127  N        -58.3050   -6.3590   72.7270 N.3   637  PRO637     -0.2102
    128  CA       -57.6870   -7.1960   71.6920 C.3   637  PRO637      0.1504
    129  C        -56.4880   -6.4580   71.1140 C.2   637  PRO637      0.2575
    130  O        -56.3270   -5.2720   71.4110 O.2   637  PRO637     -0.2718
    131  CB       -58.8040   -7.3650   70.6610 C.3   637  PRO637      0.0282
    132  CG       -60.0640   -7.0790   71.4360 C.3   637  PRO637      0.0208
    133  CD       -59.6860   -5.9910   72.3820 C.3   637  PRO637      0.0893
    134  N        -55.6280   -7.1520   70.3690 N.am  638  ALA638     -0.1980
    135  CA       -54.4090   -6.5490   69.8120 C.3   638  ALA638      0.1597
    136  C        -53.4710   -6.2460   70.9780 C.2   638  ALA638      0.2287
    137  O        -52.4160   -5.6320   70.8120 O.2   638  ALA638     -0.2864
    138  CB       -54.7020   -5.2950   68.9890 C.3   638  ALA638      0.0319
@<TRIPOS>BOND
     1    24    25    1
     2    31    32    1
     3    40    39    1
     4    40    41    1
     5    39    33   am
     6    49    43    1
     7    49    48    1
     8    26    25    1
     9    26    27    2
    10    25    28    1
    11    43    41   am
    12    43    44    1
    13    41    42    2
    14    32    33    1
    15    32    35    1
    16    48    47    1
    17    33    34    2
    18   106   104   ar
    19   106   105   ar
    20    47    44    1
    21   104   102   ar
    22    44    45    1
    23    38    36   am
    24   105   103   ar
    25    28    29    1
    26    28    30    1
    27    36    35    1
    28    36    37    2
    29   102   101   ar
    30    45    50   am
    31    45    46    2
    32   103   101   ar
    33   101   100    1
    34    50    51    1
    35    58    59    1
    36    58    55    1
    37    59    60    1
    38    54    55    1
    39    54    52   am
    40   100    97    1
    41    55    56    1
    42    51    52    1
    43    56    57    2
    44     7     5    1
    45     6     5    1
    46    52    53    2
    47    95    92    1
    48    60    61    1
    49    97    96    1
    50    97    98    1
    51     5     2    1
    52    96    93   am
    53    94    93    2
    54    93    92    1
    55    99    98    2
    56    92    91    1
    57    98   107   am
    58    89    88    2
    59    91    85   am
    60     1     2    1
    61     2     3    1
    62   138   135    1
    63   107   108    1
    64    14    12    1
    65    78    77    2
    66    88    90   am
    67    88    87    1
    68     3     4    2
    69     3     8   am
    70   135   134    1
    71   135   136    1
    72    85    84    1
    73    85    86    2
    74    84    87    1
    75    84    83    1
    76   108   109    1
    77   134   129   am
    78     8     9    1
    79   131   132    1
    80   131   128    1
    81    77    83   am
    82    77    76    1
    83   137   136    2
    84    12     9    1
    85    12    13    1
    86   129   130    2
    87   129   128    1
    88     9    10    1
    89   132   133    1
    90   109   110    2
    91   109   111   am
    92   128   127    1
    93    76    79    1
    94    76    75    1
    95   117   111    1
    96   117   116    1
    97    79    80    1
    98   111   112    1
    99   133   127    1
   100    82    80    1
   101    10    11    2
   102    10    15   am
   103    80    81    1
   104    22    23    1
   105    22    21    1
   106   125   124   ar
   107   116   115    1
   108    15    16    1
   109   112   115    1
   110   112   113    1
   111   114   113    2
   112    21    20    1
   113   124   126   ar
   114   124   123    1
   115   113   118   am
   116    20    19    1
   117    74    71    1
   118    16    19    1
   119    16    17    1
   120    73    72    2
   121    71    72    1
   122    71    70    1
   123   118   119    1
   124   123   122    1
   125   122   119    1
   126    65    64    2
   127    17    18    2
   128   119   120    1
   129    70    64   am
   130    64    63    1
   131    66    67    1
   132    66    63    1
   133    67    69   ar
   134    67    68   ar
   135    63    62    1
   136   120   121    2
