@<TRIPOS>MOLECULE
tmp/4u3dA00.pdb
 199 190 0 0 0
SMALL
GASTEIGER

@<TRIPOS>ATOM
      1  N        -18.2550   31.7910    4.9050 N.3    17  ILE17      -0.1231
      2  CA       -19.1410   32.8460    5.3960 C.3    17  ILE17       0.1692
      3  C        -20.4260   32.9780    4.6050 C.2    17  ILE17       0.2592
      4  O        -21.4630   33.2980    5.1960 O.2    17  ILE17      -0.2718
      5  CB       -18.4020   34.1870    5.5070 C.3    17  ILE17       0.0266
      6  CG1      -19.1370   35.0930    6.5500 C.3    17  ILE17       0.0019
      7  CG2      -18.1920   34.8840    4.1600 C.3    17  ILE17       0.0020
      8  CD1      -18.3980   36.2720    6.9750 C.3    17  ILE17       0.0001
      9  N        -20.3840   32.7790    3.2980 N.am   18  HIS18      -0.1976
     10  CA       -21.5900   32.9700    2.4930 C.3    18  HIS18       0.1656
     11  C        -22.3950   31.7110    2.2940 C.2    18  HIS18       0.2291
     12  O        -23.6400   31.7560    2.3620 O.2    18  HIS18      -0.2864
     13  CB       -21.2610   33.6240    1.1640 C.3    18  HIS18       0.0771
     14  CG       -20.8930   35.0540    1.3330 C.ar   18  HIS18       0.0820
     15  ND1      -21.7210   35.9310    2.0190 N.ar   18  HIS18      -0.2267
     16  CD2      -19.8120   35.7400    0.8840 C.ar   18  HIS18       0.1154
     17  CE1      -21.1160   37.1080    1.9990 C.ar   18  HIS18       0.1986
     18  NE2      -19.9460   37.0380    1.3450 N.ar   18  HIS18      -0.2212
     19  N        -20.4590   41.3220   -2.2870 N.3    57  HIS57      -0.1241
     20  CA       -20.2430   40.8510   -0.9330 C.3    57  HIS57       0.1621
     21  C        -19.0830   39.8750   -0.7910 C.2    57  HIS57       0.2264
     22  O        -18.8210   39.4420    0.3210 O.2    57  HIS57      -0.2867
     23  CB       -21.5150   40.2940   -0.2480 C.3    57  HIS57       0.0745
     24  CG       -22.6980   41.2200   -0.3620 C.ar   57  HIS57       0.0817
     25  ND1      -22.7850   42.3730    0.3920 N.ar   57  HIS57      -0.2268
     26  CD2      -23.7460   41.1810   -1.2190 C.ar   57  HIS57       0.1154
     27  CE1      -23.8900   43.0020   -0.0340 C.ar   57  HIS57       0.1986
     28  NE2      -24.5370   42.2920   -0.9520 N.ar   57  HIS57      -0.2212
     29  N        -15.3500   33.7070   -2.3580 N.3    70  THR70      -0.1218
     30  CA       -14.6530   34.3910   -1.2800 C.3    70  THR70       0.1862
     31  C        -13.1680   34.1150   -1.2780 C.2    70  THR70       0.2287
     32  O        -12.5980   33.6380   -0.2840 O.2    70  THR70      -0.2866
     33  CB       -15.3170   34.0990    0.0860 C.3    70  THR70       0.1770
     34  OG1      -16.7580   34.1040   -0.0850 O.3    70  THR70      -0.2211
     35  CG2      -14.9210   35.1280    1.1620 C.3    70  THR70       0.0375
     36  N        -10.8060   36.4910   -1.5830 N.3    72  GLU72      -0.1231
     37  CA       -10.0080   37.6750   -1.2720 C.3    72  GLU72       0.1699
     38  C         -9.1070   37.5790   -0.0530 C.2    72  GLU72       0.2592
     39  O         -8.0370   38.1870   -0.0580 O.2    72  GLU72      -0.2718
     40  CB       -10.9080   38.9210   -1.1500 C.3    72  GLU72       0.0402
     41  CG       -12.0230   38.8130   -0.1150 C.3    72  GLU72       0.1161
     42  CD       -13.3720   38.2740   -0.5940 C.2    72  GLU72       0.3649
     43  OE1      -13.4280   37.5360   -1.5980 O.co2  72  GLU72      -0.2457
     44  OE2      -14.3940   38.5780    0.0600 O.co2  72  GLU72      -0.2457
     45  N         -9.4760   36.8180    0.9710 N.am   73  HIS73      -0.1976
     46  CA        -8.6490   36.7540    2.1870 C.3    73  HIS73       0.1656
     47  C         -7.4260   35.9130    1.9940 C.2    73  HIS73       0.2291
     48  O         -6.3190   36.3170    2.3590 O.2    73  HIS73      -0.2864
     49  CB        -9.4300   36.2790    3.4310 C.3    73  HIS73       0.0771
     50  CG       -10.5710   37.1810    3.8280 C.ar   73  HIS73       0.0820
     51  ND1      -11.4370   36.8610    4.8740 N.ar   73  HIS73      -0.2267
     52  CD2      -10.9540   38.3660    3.3140 C.ar   73  HIS73       0.1154
     53  CE1      -12.3260   37.8410    4.9230 C.ar   73  HIS73       0.1986
     54  NE2      -12.0810   38.7620    4.0000 N.ar   73  HIS73      -0.2212
     55  N        -13.5850   40.5130    8.9390 N.3   178  THR178     -0.1203
     56  CA       -14.7290   40.8720    8.1350 C.3   178  THR178      0.1994
     57  C        -15.8190   41.4380    9.1090 C.2   178  THR178      0.2618
     58  O        -15.8390   41.0890   10.2970 O.2   178  THR178     -0.2717
     59  CB       -15.2150   39.6570    7.3620 C.3   178  THR178      0.1784
     60  OG1      -16.1120   40.1130    6.3650 O.3   178  THR178     -0.2211
     61  CG2      -15.8440   38.6010    8.2140 C.3   178  THR178      0.0376
     62  N        -16.6890   42.2690    8.5820 N.am  179  PHE179     -0.1961
     63  CA       -17.6670   42.9630    9.4130 C.3   179  PHE179      0.1771
     64  C        -18.9420   43.1470    8.6460 C.2   179  PHE179      0.2619
     65  O        -18.9580   43.1180    7.4090 O.2   179  PHE179     -0.2715
     66  CB       -17.0870   44.3250    9.8850 C.3   179  PHE179      0.0574
     67  CG       -16.7710   45.2790    8.7680 C.ar  179  PHE179     -0.0200
     68  CD1      -17.6710   46.2660    8.3980 C.ar  179  PHE179     -0.0042
     69  CD2      -15.5700   45.1920    8.0800 C.ar  179  PHE179     -0.0042
     70  CE1      -17.3980   47.1170    7.3320 C.ar  179  PHE179     -0.0003
     71  CE2      -15.2850   46.0680    7.0330 C.ar  179  PHE179     -0.0003
     72  CZ       -16.1940   47.0250    6.6690 C.ar  179  PHE179     -0.0000
     73  N        -20.0260   43.4080    9.3880 N.am  180  ALA180     -0.1977
     74  CA       -21.3530   43.6180    8.8190 C.3   180  ALA180      0.1597
     75  C        -22.1290   44.5520    9.7260 C.2   180  ALA180      0.2287
     76  O        -21.9050   44.5950   10.9370 O.2   180  ALA180     -0.2864
     77  CB       -22.0960   42.2880    8.7010 C.3   180  ALA180      0.0319
     78  N        -25.8460   45.5980   11.2200 N.3   182  ASP182     -0.1239
     79  CA       -27.0620   44.8390   11.4970 C.3   182  ASP182      0.1674
     80  C        -28.2070   45.1560   10.5680 C.2   182  ASP182      0.2266
     81  O        -28.9610   44.2230   10.2150 O.2   182  ASP182     -0.2867
     82  CB       -27.4940   44.9680   12.9590 C.3   182  ASP182      0.1410
     83  CG       -27.8430   46.3650   13.4810 C.2   182  ASP182      0.3668
     84  OD1      -27.7860   47.3150   12.7130 O.co2 182  ASP182     -0.2456
     85  OD2      -28.1640   46.4640   14.6880 O.co2 182  ASP182     -0.2456
     86  N        -28.0550   42.9690    7.2830 N.3   185  ILE185     -0.1245
     87  CA       -28.0480   41.5040    7.3440 C.3   185  ILE185      0.1561
     88  C        -29.2890   40.9050    6.6550 C.2   185  ILE185      0.2260
     89  O        -29.1380   39.9100    5.9250 O.2   185  ILE185     -0.2867
     90  CB       -27.8090   41.0140    8.7950 C.3   185  ILE185      0.0252
     91  CG1      -26.3430   41.3450    9.2070 C.3   185  ILE185      0.0019
     92  CG2      -28.0730   39.4930    8.9200 C.3   185  ILE185      0.0019
     93  CD1      -25.9780   41.0890   10.6830 C.3   185  ILE185      0.0001
     94  N        -28.5050   40.6770    2.9090 N.3   188  ILE188     -0.1231
     95  CA       -27.5170   39.6560    2.5740 C.3   188  ILE188      0.1692
     96  C        -28.1320   38.2320    2.6820 C.2   188  ILE188      0.2591
     97  O        -27.8600   37.3680    1.8280 O.2   188  ILE188     -0.2718
     98  CB       -26.2440   39.8960    3.4220 C.3   188  ILE188      0.0266
     99  CG1      -25.6650   41.2970    3.1220 C.3   188  ILE188      0.0019
    100  CG2      -25.1960   38.8090    3.1460 C.3   188  ILE188      0.0020
    101  CD1      -24.5650   41.7560    4.0820 C.3   188  ILE188      0.0001
    102  N        -29.0070   37.9990    3.6590 N.am  189  LYS189     -0.1980
    103  CA       -29.6810   36.7200    3.7600 C.3   189  LYS189      0.1596
    104  C        -30.6750   36.5280    2.6140 C.2   189  LYS189      0.2287
    105  O        -30.7320   35.4270    2.0520 O.2   189  LYS189     -0.2864
    106  CB       -30.3690   36.5870    5.1130 C.3   189  LYS189      0.0298
    107  CG       -29.4170   36.6510    6.3060 C.3   189  LYS189      0.0038
    108  CD       -28.3560   35.5580    6.3080 C.3   189  LYS189      0.0206
    109  CE       -27.9990   35.2520    7.7320 C.3   189  LYS189      0.1093
    110  NZ       -28.4750   33.9010    8.1310 N.3   189  LYS189     -0.1314
    111  N        -24.2930   35.1680    3.2440 N.3   194  GLY194     -0.1225
    112  CA       -24.1040   35.2820    4.6890 C.3   194  GLY194      0.1811
    113  C        -24.5590   34.1050    5.5070 C.2   194  GLY194      0.2280
    114  O        -24.6770   34.2320    6.7350 O.2   194  GLY194     -0.2866
    115  N        -22.2580   33.3390    8.4370 N.3   197  GLY197     -0.1210
    116  CA       -21.8960   34.4550    9.2920 C.3   197  GLY197      0.1956
    117  C        -22.4010   34.2880   10.7090 C.2   197  GLY197      0.2613
    118  O        -23.5560   33.8840   10.9480 O.2   197  GLY197     -0.2717
    119  N        -21.5430   34.5730   11.6700 N.am  198  SER198     -0.1938
    120  CA       -21.9140   34.5140   13.0810 C.3   198  SER198      0.2055
    121  C        -21.0070   35.4770   13.8490 C.2   198  SER198      0.2642
    122  O        -20.0160   35.9840   13.2980 O.2   198  SER198     -0.2714
    123  CB       -21.7330   33.1000   13.6380 C.3   198  SER198      0.2130
    124  OG       -20.3630   32.8260   13.8510 O.3   198  SER198     -0.2179
    125  N        -21.2500   35.6260   15.1500 N.am  199  LEU199     -0.1977
    126  CA       -20.3920   36.4720   15.9660 C.3   199  LEU199      0.1596
    127  C        -19.0460   35.8020   16.1920 C.2   199  LEU199      0.2287
    128  O        -18.1260   36.4580   16.6970 O.2   199  LEU199     -0.2864
    129  CB       -21.0810   36.8650   17.2900 C.3   199  LEU199      0.0297
    130  CG       -22.3600   37.6870   17.1230 C.3   199  LEU199      0.0022
    131  CD1      -22.9550   38.0630   18.4890 C.3   199  LEU199      0.0001
    132  CD2      -22.1010   38.9790   16.3470 C.3   199  LEU199      0.0001
    133  N        -17.4620   37.2150   12.4160 N.3   202  THR202     -0.1218
    134  CA       -17.7780   38.5250   11.8690 C.3   202  THR202      0.1862
    135  C        -17.9220   39.5260   12.9890 C.2   202  THR202      0.2287
    136  O        -18.5610   39.2270   14.0060 O.2   202  THR202     -0.2866
    137  CB       -19.1520   38.4650   11.1310 C.3   202  THR202      0.1770
    138  OG1      -19.1150   37.4210   10.1380 O.3   202  THR202     -0.2211
    139  CG2      -19.5170   39.7360   10.4360 C.3   202  THR202      0.0375
    140  N        -19.9950   42.3850   14.0910 N.3   204  VAL204     -0.1245
    141  CA       -21.3070   42.9200   13.7460 C.3   204  VAL204      0.1561
    142  C        -21.5810   44.1850   14.5460 C.2   204  VAL204      0.2260
    143  O        -21.4690   44.1640   15.7890 O.2   204  VAL204     -0.2867
    144  CB       -22.4260   41.8700   13.9350 C.3   204  VAL204      0.0252
    145  CG1      -23.7760   42.4610   13.5500 C.3   204  VAL204      0.0019
    146  CG2      -22.1420   40.6360   13.0770 C.3   204  VAL204      0.0019
    147  N        -22.0570   44.2030   18.6470 N.3   211  TYR211     -0.1241
    148  CA       -22.6690   42.9520   19.1000 C.3   211  TYR211      0.1605
    149  C        -21.7000   42.0110   19.7570 C.2   211  TYR211      0.2264
    150  O        -22.0610   41.2900   20.7020 O.2   211  TYR211     -0.2867
    151  CB       -23.3480   42.2500   17.9190 C.3   211  TYR211      0.0534
    152  CG       -24.6700   42.8450   17.5150 C.ar  211  TYR211     -0.0201
    153  CD1      -24.7330   44.0430   16.8140 C.ar  211  TYR211     -0.0009
    154  CD2      -25.8610   42.1630   17.7500 C.ar  211  TYR211     -0.0009
    155  CE1      -25.9560   44.5830   16.4050 C.ar  211  TYR211      0.0417
    156  CE2      -27.0890   42.7060   17.3850 C.ar  211  TYR211      0.0417
    157  CZ       -27.1360   43.9030   16.6930 C.ar  211  TYR211      0.1957
    158  OH       -28.3450   44.4030   16.2730 O.3   211  TYR211     -0.2866
    159  N         -9.6790   46.0300    7.6720 N.3   225  HIS225     -0.1226
    160  CA       -10.1620   44.8950    6.9070 C.3   225  HIS225      0.1752
    161  C        -10.3820   45.2790    5.4650 C.2   225  HIS225      0.2595
    162  O        -10.0680   44.4700    4.5780 O.2   225  HIS225     -0.2718
    163  CB       -11.4310   44.3040    7.5310 C.3   225  HIS225      0.0759
    164  CG       -11.8020   43.0310    6.8260 C.ar  225  HIS225      0.0818
    165  ND1      -11.1580   41.8490    7.1120 N.ar  225  HIS225     -0.2268
    166  CD2      -12.6110   42.8280    5.7510 C.ar  225  HIS225      0.1154
    167  CE1      -11.6250   40.9470    6.2440 C.ar  225  HIS225      0.1986
    168  NE2      -12.4930   41.4780    5.4030 N.ar  225  HIS225     -0.2212
    169  N        -10.9120   46.4570    5.1860 N.am  226  LYS226     -0.1980
    170  CA       -11.1090   46.8760    3.7980 C.3   226  LYS226      0.1596
    171  C         -9.7880   47.0210    3.0590 C.2   226  LYS226      0.2287
    172  O         -9.7340   46.7080    1.8580 O.2   226  LYS226     -0.2864
    173  CB       -11.9160   48.1810    3.7390 C.3   226  LYS226      0.0298
    174  CG       -13.3640   47.9680    4.2060 C.3   226  LYS226      0.0038
    175  CD       -14.2030   47.0880    3.3050 C.3   226  LYS226      0.0206
    176  CE       -14.7920   47.8380    2.1590 C.3   226  LYS226      0.1093
    177  NZ       -15.8470   47.0430    1.4440 N.3   226  LYS226     -0.1314
    178  N         -8.8790   43.4600    2.2000 N.3   229  ASP229     -0.1239
    179  CA        -9.6490   42.9840    1.0450 C.3   229  ASP229      0.1674
    180  C         -9.0780   43.5210   -0.2650 C.2   229  ASP229      0.2266
    181  O         -8.9790   42.7710   -1.2570 O.2   229  ASP229     -0.2867
    182  CB       -11.1040   43.4740    1.1560 C.3   229  ASP229      0.1410
    183  CG       -11.9910   42.7080    2.1060 C.2   229  ASP229      0.3668
    184  OD1      -11.6170   41.5820    2.4810 O.co2 229  ASP229     -0.2456
    185  OD2      -13.0880   43.2230    2.4180 O.co2 229  ASP229     -0.2456
    186  N        -15.4130   48.8450   -2.7640 N.3   251  GLY251     -0.1210
    187  CA       -15.8040   47.4730   -2.4620 C.3   251  GLY251      0.1956
    188  C        -15.2570   46.5720   -3.5510 C.2   251  GLY251      0.2611
    189  O        -14.5390   47.0320   -4.4290 O.2   251  GLY251     -0.2717
    190  N        -15.5880   45.2760   -3.4940 N.am  252  HIS252     -0.1975
    191  CA       -15.0150   44.3650   -4.4820 C.3   252  HIS252      0.1656
    192  C        -15.2980   44.7210   -5.9200 C.2   252  HIS252      0.2291
    193  O        -14.4450   44.5750   -6.7730 O.2   252  HIS252     -0.2864
    194  CB       -15.4530   42.9230   -4.2420 C.3   252  HIS252      0.0771
    195  CG       -15.1800   42.4660   -2.8550 C.ar  252  HIS252      0.0820
    196  ND1      -13.8770   42.2980   -2.3840 N.ar  252  HIS252     -0.2267
    197  CD2      -16.0450   42.1730   -1.8550 C.ar  252  HIS252      0.1154
    198  CE1      -14.0090   41.8960   -1.1170 C.ar  252  HIS252      0.1986
    199  NE2      -15.2910   41.8150   -0.7590 N.ar  252  HIS252     -0.2212
@<TRIPOS>BOND
     1   193   192    2
     2   192   191    1
     3   191   194    1
     4   191   190    1
     5   189   188    2
     6   194   195    1
     7   188   190   am
     8   188   187    1
     9   195   196   ar
    10   195   197   ar
    11   186   187    1
    12   196   198   ar
    13    29    30    1
    14    19    20    1
    15   197   199   ar
    16    43    42   ar
    17    36    37    1
    18    30    31    1
    19    30    33    1
    20    31    32    2
    21    37    40    1
    22    37    38    1
    23   181   180    2
    24    26    28   ar
    25    26    24   ar
    26    40    41    1
    27   198   199   ar
    28    28    27   ar
    29    20    21    1
    30    20    23    1
    31    21    22    2
    32    42    41    1
    33    42    44   ar
    34    24    23    1
    35    24    25   ar
    36   180   179    1
    37    34    33    1
    38    39    38    2
    39    38    45   am
    40    27    25   ar
    41    33    35    1
    42    16    14   ar
    43    16    18   ar
    44    45    46    1
    45   179   182    1
    46   179   178    1
    47   182   183    1
    48    13    14    1
    49    13    10    1
    50    14    15   ar
    51    18    17   ar
    52   177   176    1
    53    97    96    2
    54   172   171    2
    55    47    46    1
    56    47    48    2
    57    17    15   ar
    58   105   104    2
    59   183   185   ar
    60   183   184   ar
    61   176   175    1
    62    46    49    1
    63    11    12    2
    64    11    10    1
    65    10     9    1
    66    95    96    1
    67    95    94    1
    68    95    98    1
    69   104   103    1
    70    96   102   am
    71   171   170    1
    72    99    98    1
    73    99   101    1
    74   100    98    1
    75   111   112    1
    76     9     3   am
    77   175   174    1
    78    52    50   ar
    79    52    54   ar
    80    49    50    1
    81   102   103    1
    82   173   170    1
    83   173   174    1
    84   103   106    1
    85   170   169    1
    86    50    51   ar
    87    54    53   ar
    88     7     5    1
    89   162   161    2
    90     3     4    2
    91     3     2    1
    92   112   113    1
    93    51    53   ar
    94     1     2    1
    95   106   107    1
    96   169   161   am
    97     2     5    1
    98   168   166   ar
    99   168   167   ar
   100   161   160    1
   101     5     6    1
   102   113   114    2
   103   166   164   ar
   104    89    88    2
   105   167   165   ar
   106   107   108    1
   107   108   109    1
   108    60    59    1
   109     6     8    1
   110    88    87    1
   111    72    71   ar
   112    72    70   ar
   113   164   165   ar
   114   164   163    1
   115   160   163    1
   116   160   159    1
   117    71    69   ar
   118    86    87    1
   119    70    68   ar
   120    87    90    1
   121    59    56    1
   122    59    61    1
   123    65    64    2
   124   109   110    1
   125    69    67   ar
   126    56    55    1
   127    56    57    1
   128    68    67   ar
   129   115   116    1
   130    62    57   am
   131    62    63    1
   132    64    73   am
   133    64    63    1
   134    77    74    1
   135    67    66    1
   136    90    92    1
   137    90    91    1
   138    74    73    1
   139    74    75    1
   140    57    58    2
   141    91    93    1
   142   116   117    1
   143    63    66    1
   144    75    76    2
   145   138   137    1
   146    81    80    2
   147   139   137    1
   148    80    79    1
   149   117   118    2
   150   117   119   am
   151   137   134    1
   152    78    79    1
   153    79    82    1
   154   119   120    1
   155   134   133    1
   156   134   135    1
   157    84    83   ar
   158    82    83    1
   159   135   136    2
   160   146   144    1
   161   120   123    1
   162   120   121    1
   163   122   121    2
   164    83    85   ar
   165   145   144    1
   166   123   124    1
   167   141   144    1
   168   141   140    1
   169   141   142    1
   170   121   125   am
   171   142   143    2
   172   125   126    1
   173   126   127    1
   174   126   129    1
   175   127   128    2
   176   158   157    1
   177   132   130    1
   178   155   157   ar
   179   155   153   ar
   180   157   156   ar
   181   153   152   ar
   182   130   129    1
   183   130   131    1
   184   156   154   ar
   185   152   154   ar
   186   152   151    1
   187   151   148    1
   188   147   148    1
   189   148   149    1
   190   149   150    2
