@<TRIPOS>MOLECULE
tmp/4u3eA00.pdb
 103 100 0 0 0
SMALL
GASTEIGER

@<TRIPOS>ATOM
      1  N        -16.1650   12.6650  -19.2440 N.3    78  LYS78      -0.1245
      2  CA       -15.5300   12.5490  -17.9220 C.3    78  LYS78       0.1561
      3  C        -16.5140   12.4530  -16.7460 C.2    78  LYS78       0.2260
      4  O        -16.3150   11.6200  -15.8730 O.2    78  LYS78      -0.2867
      5  CB       -14.5580   13.7130  -17.6930 C.3    78  LYS78       0.0271
      6  CG       -13.2690   13.5840  -18.4890 C.3    78  LYS78       0.0035
      7  CD       -12.2920   14.6770  -18.0830 C.3    78  LYS78       0.0206
      8  CE       -10.9510   14.4990  -18.7670 C.3    78  LYS78       0.1093
      9  NZ        -9.9860   15.5330  -18.3060 N.3    78  LYS78      -0.1314
     10  N        -10.1450   12.2250   -1.5330 N.3   113  TYR113     -0.1241
     11  CA       -10.0980   12.6470   -2.9210 C.3   113  TYR113      0.1605
     12  C         -9.5520   11.5280   -3.7940 C.2   113  TYR113      0.2264
     13  O         -8.3510   11.2640   -3.7970 O.2   113  TYR113     -0.2867
     14  CB        -9.2350   13.9020   -3.0770 C.3   113  TYR113      0.0534
     15  CG        -9.2910   14.5500   -4.4480 C.ar  113  TYR113     -0.0201
     16  CD1      -10.1840   15.5890   -4.7080 C.ar  113  TYR113     -0.0009
     17  CD2       -8.4470   14.1340   -5.4780 C.ar  113  TYR113     -0.0009
     18  CE1      -10.2320   16.2010   -5.9510 C.ar  113  TYR113      0.0417
     19  CE2       -8.4920   14.7410   -6.7320 C.ar  113  TYR113      0.0417
     20  CZ        -9.3860   15.7720   -6.9610 C.ar  113  TYR113      0.1957
     21  OH        -9.4490   16.3910   -8.1960 O.3   113  TYR113     -0.2866
     22  N         -8.1300   10.3580   -6.9720 N.3   115  HIS115     -0.1226
     23  CA        -7.4760   11.0230   -8.0900 C.3   115  HIS115      0.1752
     24  C         -7.8440   10.3690   -9.4140 C.2   115  HIS115      0.2596
     25  O         -8.3230    9.2270   -9.4440 O.2   115  HIS115     -0.2718
     26  CB        -5.9640   11.0460   -7.8820 C.3   115  HIS115      0.0759
     27  CG        -5.5370   12.0100   -6.8210 C.ar  115  HIS115      0.0818
     28  ND1       -5.2900   13.3400   -7.0870 N.ar  115  HIS115     -0.2268
     29  CD2       -5.3700   11.8540   -5.4860 C.ar  115  HIS115      0.1154
     30  CE1       -4.9600   13.9560   -5.9650 C.ar  115  HIS115      0.1986
     31  NE2       -5.0040   13.0780   -4.9780 N.ar  115  HIS115     -0.2212
     32  N         -7.6400   11.1230  -10.4910 N.am  116  ASP116     -0.1960
     33  CA        -8.0140   10.7250  -11.8520 C.3   116  ASP116      0.1840
     34  C         -9.3440    9.9750  -11.8590 C.2   116  ASP116      0.2622
     35  O         -9.4410    8.8690  -12.3950 O.2   116  ASP116     -0.2715
     36  CB        -6.9230    9.8530  -12.5090 C.3   116  ASP116      0.1450
     37  CG        -5.6130    9.8450  -11.7340 C.2   116  ASP116      0.3671
     38  OD1       -4.8870   10.8610  -11.7730 O.co2 116  ASP116     -0.2456
     39  OD2       -5.2960    8.8100  -11.1030 O.co2 116  ASP116     -0.2456
     40  N        -10.3630   10.5740  -11.2490 N.am  117  ARG117     -0.1963
     41  CA       -11.5560    9.8190  -10.8960 C.3   117  ARG117      0.1729
     42  C        -12.3560    9.3590  -12.1180 C.2   117  ARG117      0.2616
     43  O        -12.9950    8.3090  -12.0790 O.2   117  ARG117     -0.2715
     44  CB       -12.4280   10.6440   -9.9450 C.3   117  ARG117      0.0348
     45  CG       -12.9520   11.9430  -10.5100 C.3   117  ARG117      0.0492
     46  CD       -13.5010   12.7890   -9.3670 C.3   117  ARG117      0.2205
     47  NE       -14.1540   14.0030   -9.8370 N.pl3 117  ARG117     -0.0865
     48  CZ       -13.5380   15.1680   -9.9880 C.cat 117  ARG117      0.5346
     49  NH1      -12.2420   15.2750   -9.7120 N.pl3 117  ARG117      0.1354
     50  NH2      -14.2170   16.2260  -10.4190 N.pl3 117  ARG117      0.1354
     51  N        -12.2720   10.1140  -13.2100 N.am  118  HIS118     -0.1973
     52  CA       -12.9220    9.7510  -14.4720 C.3   118  HIS118      0.1656
     53  C        -12.2840    8.5170  -15.1380 C.2   118  HIS118      0.2291
     54  O        -12.8410    7.9580  -16.0820 O.2   118  HIS118     -0.2864
     55  CB       -12.8690   10.9360  -15.4290 C.3   118  HIS118      0.0771
     56  CG       -11.5200   11.5800  -15.4900 C.ar  118  HIS118      0.0820
     57  ND1      -11.0790   12.4660  -14.5310 N.ar  118  HIS118     -0.2267
     58  CD2      -10.4990   11.4360  -16.3680 C.ar  118  HIS118      0.1154
     59  CE1       -9.8470   12.8490  -14.8210 C.ar  118  HIS118      0.1986
     60  NE2       -9.4700   12.2370  -15.9290 N.ar  118  HIS118     -0.2212
     61  N         -3.2740    7.4580  -16.5710 N.3   170  SER170     -0.1217
     62  CA        -3.7490    8.7970  -16.2650 C.3   170  SER170      0.1889
     63  C         -2.6230    9.7870  -16.0120 C.2   170  SER170      0.2288
     64  O         -2.8010   10.9880  -16.1930 O.2   170  SER170     -0.2866
     65  CB        -4.6590    8.7690  -15.0360 C.3   170  SER170      0.2089
     66  OG        -5.8160    8.0070  -15.2940 O.3   170  SER170     -0.2183
     67  N         -1.8330   18.2330   -6.1780 N.3   472  ALA472     -0.1231
     68  CA        -3.1890   18.7120   -5.8880 C.3   472  ALA472      0.1694
     69  C         -3.5710   19.9680   -6.6690 C.2   472  ALA472      0.2592
     70  O         -4.1760   20.8870   -6.1160 O.2   472  ALA472     -0.2718
     71  CB        -3.3470   18.9600   -4.3760 C.3   472  ALA472      0.0304
     72  N         -3.2480   19.9960   -7.9600 N.am  473  GLU473     -0.1966
     73  CA        -3.5770   21.1600   -8.7860 C.3   473  GLU473      0.1733
     74  C         -5.0600   21.5320   -8.7110 C.2   473  GLU473      0.2616
     75  O         -5.4000   22.7130   -8.6470 O.2   473  GLU473     -0.2715
     76  CB        -3.1830   20.9190  -10.2460 C.3   473  GLU473      0.0429
     77  CG        -1.6910   20.9280  -10.5020 C.3   473  GLU473      0.1163
     78  CD        -1.3560   20.9780  -11.9850 C.2   473  GLU473      0.3649
     79  OE1       -0.3560   20.3490  -12.3960 O.co2 473  GLU473     -0.2457
     80  OE2       -2.0960   21.6510  -12.7370 O.co2 473  GLU473     -0.2457
     81  N         -5.9380   20.5330   -8.7050 N.am  474  LYS474     -0.1963
     82  CA        -7.3700   20.7890   -8.5490 C.3   474  LYS474      0.1728
     83  C         -7.8560   20.4750   -7.1400 C.2   474  LYS474      0.2616
     84  O         -8.6830   21.1980   -6.5880 O.2   474  LYS474     -0.2715
     85  CB        -8.1910   19.9770   -9.5640 C.3   474  LYS474      0.0311
     86  CG        -8.0050   20.4310  -11.0000 C.3   474  LYS474      0.0038
     87  CD        -8.8730   19.6320  -11.9640 C.3   474  LYS474      0.0206
     88  CE        -8.6620   20.1020  -13.3980 C.3   474  LYS474      0.1093
     89  NZ        -9.4260   19.2820  -14.3800 N.3   474  LYS474     -0.1314
     90  N         -7.3470   19.3920   -6.5650 N.am  475  ALA475     -0.1977
     91  CA        -7.8180   18.9310   -5.2620 C.3   475  ALA475      0.1597
     92  C         -7.6490   19.9880   -4.1750 C.2   475  ALA475      0.2287
     93  O         -8.4750   20.0910   -3.2720 O.2   475  ALA475     -0.2864
     94  CB        -7.0940   17.6560   -4.8640 C.3   475  ALA475      0.0319
     95  N         -6.8720   27.2560  -15.8790 N.3   599  GLU599     -0.1245
     96  CA        -7.3230   26.0190  -15.2580 C.3   599  GLU599      0.1567
     97  C         -7.8800   26.2960  -13.8630 C.2   599  GLU599      0.2260
     98  O         -8.9070   25.7390  -13.4750 O.2   599  GLU599     -0.2867
     99  CB        -6.1820   25.0010  -15.1850 C.3   599  GLU599      0.0388
    100  CG        -6.5660   23.6950  -14.5080 C.3   599  GLU599      0.1160
    101  CD        -5.4280   22.6930  -14.4840 C.2   599  GLU599      0.3649
    102  OE1       -4.5960   22.7130  -15.4170 O.co2 599  GLU599     -0.2457
    103  OE2       -5.3620   21.8890  -13.5300 O.co2 599  GLU599     -0.2457
@<TRIPOS>BOND
     1     1     2    1
     2     8     9    1
     3     8     7    1
     4     6     7    1
     5     6     5    1
     6     2     5    1
     7     2     3    1
     8     3     4    2
     9    61    62    1
    10    58    60   ar
    11    58    56   ar
    12    62    63    1
    13    62    65    1
    14    64    63    2
    15    54    53    2
    16    60    59   ar
    17    95    96    1
    18    56    55    1
    19    56    57   ar
    20    55    52    1
    21   102   101   ar
    22    66    65    1
    23    96    99    1
    24    96    97    1
    25    99   100    1
    26    53    52    1
    27    59    57   ar
    28   100   101    1
    29   101   103   ar
    30    52    51    1
    31    89    88    1
    32    97    98    2
    33    88    87    1
    34    51    42   am
    35    80    78   ar
    36    36    33    1
    37    36    37    1
    38    79    78   ar
    39    35    34    2
    40    42    43    2
    41    42    41    1
    42    78    77    1
    43    87    86    1
    44    34    33    1
    45    34    40   am
    46    33    32    1
    47    38    37   ar
    48    37    39   ar
    49    40    41    1
    50    86    85    1
    51    41    44    1
    52    45    44    1
    53    45    46    1
    54    77    76    1
    55    32    24   am
    56    50    48    1
    57    76    73    1
    58    48    47    2
    59    48    49    1
    60    47    46    1
    61    85    82    1
    62    25    24    2
    63    24    23    1
    64    73    74    1
    65    73    72    1
    66    74    81   am
    67    74    75    2
    68    81    82    1
    69    82    83    1
    70    21    20    1
    71    23    26    1
    72    23    22    1
    73    72    69   am
    74    26    27    1
    75    83    84    2
    76    83    90   am
    77    28    27   ar
    78    28    30   ar
    79    20    19   ar
    80    20    18   ar
    81    27    29   ar
    82    19    17   ar
    83    69    70    2
    84    69    68    1
    85    90    91    1
    86    67    68    1
    87    30    31   ar
    88    18    16   ar
    89    68    71    1
    90    29    31   ar
    91    17    15   ar
    92    91    94    1
    93    91    92    1
    94    16    15   ar
    95    15    14    1
    96    92    93    2
    97    13    12    2
    98    12    11    1
    99    14    11    1
   100    11    10    1
