@<TRIPOS>MOLECULE
tmp/4u3fC01.pdb
 78 69 0 0 0
SMALL
GASTEIGER

@<TRIPOS>ATOM
      1  N         27.7960  121.2290   71.9610 N.3    39  VAL39      -0.1245
      2  CA        28.4140  122.3420   71.2510 C.3    39  VAL39       0.1561
      3  C         27.6020  123.6190   71.4510 C.2    39  VAL39       0.2260
      4  O         28.1620  124.7010   71.6360 O.2    39  VAL39      -0.2867
      5  CB        28.5540  122.0430   69.7440 C.3    39  VAL39       0.0252
      6  CG1       29.0940  123.2570   69.0010 C.3    39  VAL39       0.0019
      7  CG2       29.4580  120.8370   69.5260 C.3    39  VAL39       0.0019
      8  N         28.4830  125.1920   74.7490 N.3    42  MET42      -0.1230
      9  CA        29.7690  125.8770   74.6850 C.3    42  MET42       0.1702
     10  C         29.6750  127.1480   73.8440 C.2    42  MET42       0.2593
     11  O         30.4220  128.1020   74.0600 O.2    42  MET42      -0.2718
     12  CB        30.8470  124.9500   74.1180 C.3    42  MET42       0.0401
     13  CG        31.2540  123.8180   75.0530 C.3    42  MET42       0.0596
     14  SD        32.5380  122.7510   74.3640 S.3    42  MET42      -0.1393
     15  CE        31.6640  121.9750   73.0050 C.3    42  MET42       0.0692
     16  N         28.7540  127.1510   72.8850 N.am   43  THR43      -0.1953
     17  CA        28.5090  128.3180   72.0440 C.3    43  THR43       0.1897
     18  C         27.7840  129.4160   72.8210 C.2    43  THR43       0.2313
     19  O         28.1550  130.5890   72.7500 O.2    43  THR43      -0.2863
     20  CB        27.6840  127.9420   70.7930 C.3    43  THR43       0.1794
     21  OG1       28.5330  127.2990   69.8340 O.3    43  THR43      -0.2208
     22  CG2       27.0610  129.1780   70.1580 C.3    43  THR43       0.0378
     23  N         25.9450  141.1180   66.2360 N.3    78  LEU78      -0.1245
     24  CA        25.9610  139.7190   65.8360 C.3    78  LEU78       0.1561
     25  C         26.0160  138.7940   67.0470 C.2    78  LEU78       0.2260
     26  O         25.3350  137.7700   67.0840 O.2    78  LEU78      -0.2867
     27  CB        27.1450  139.4390   64.9110 C.3    78  LEU78       0.0270
     28  CG        27.3660  137.9710   64.5400 C.3    78  LEU78       0.0019
     29  CD1       26.1860  137.4200   63.7510 C.3    78  LEU78       0.0001
     30  CD2       28.6610  137.8080   63.7650 C.3    78  LEU78       0.0001
     31  N         23.4760  136.0130   67.8120 N.3    82  LEU82      -0.1245
     32  CA        23.7900  134.5950   67.9370 C.3    82  LEU82       0.1561
     33  C         23.3600  134.0350   69.2890 C.2    82  LEU82       0.2260
     34  O         22.8410  132.9250   69.3680 O.2    82  LEU82      -0.2867
     35  CB        25.2880  134.3590   67.7240 C.3    82  LEU82       0.0270
     36  CG        25.8220  134.6520   66.3200 C.3    82  LEU82       0.0019
     37  CD1       27.3320  134.4880   66.2750 C.3    82  LEU82       0.0001
     38  CD2       25.1520  133.7490   65.2970 C.3    82  LEU82       0.0001
     39  N         29.5500  116.1320   63.1530 N.3   229  ILE229     -0.1245
     40  CA        29.9580  117.3730   62.5030 C.3   229  ILE229      0.1561
     41  C         29.0650  117.6660   61.3020 C.2   229  ILE229      0.2260
     42  O         28.6990  118.8170   61.0550 O.2   229  ILE229     -0.2867
     43  CB        31.4310  117.3190   62.0530 C.3   229  ILE229      0.0252
     44  CG1       32.3500  117.1410   63.2610 C.3   229  ILE229      0.0019
     45  CG2       31.8150  118.5880   61.3170 C.3   229  ILE229      0.0019
     46  CD1       33.8120  116.9970   62.8980 C.3   229  ILE229      0.0001
     47  N         25.9450  118.8190   62.5830 N.3   232  LEU232     -0.1245
     48  CA        26.1400  120.1690   63.0970 C.3   232  LEU232      0.1561
     49  C         25.8840  121.2040   62.0080 C.2   232  LEU232      0.2260
     50  O         25.0050  122.0560   62.1450 O.2   232  LEU232     -0.2867
     51  CB        27.5520  120.3380   63.6600 C.3   232  LEU232      0.0270
     52  CG        27.9520  121.7580   64.0710 C.3   232  LEU232      0.0019
     53  CD1       27.0880  122.2530   65.2200 C.3   232  LEU232      0.0001
     54  CD2       29.4260  121.8200   64.4380 C.3   232  LEU232      0.0001
     55  N         23.0850  123.8960   61.6110 N.3   236  LEU236     -0.1245
     56  CA        23.5820  125.2400   61.8770 C.3   236  LEU236      0.1561
     57  C         23.2580  126.1960   60.7310 C.2   236  LEU236      0.2260
     58  O         23.2520  127.4120   60.9130 O.2   236  LEU236     -0.2867
     59  CB        25.0900  125.2080   62.1370 C.3   236  LEU236      0.0270
     60  CG        25.7010  126.4070   62.8620 C.3   236  LEU236      0.0019
     61  CD1       24.8650  126.7680   64.0780 C.3   236  LEU236      0.0001
     62  CD2       27.1310  126.0980   63.2720 C.3   236  LEU236      0.0001
     63  N         21.6200  130.0350   61.2340 N.3   240  LEU240     -0.1245
     64  CA        22.4080  131.1620   60.7550 C.3   240  LEU240      0.1561
     65  C         21.5970  131.9140   59.7080 C.2   240  LEU240      0.2260
     66  O         21.6640  133.1390   59.6170 O.2   240  LEU240     -0.2867
     67  CB        23.7480  130.7020   60.1780 C.3   240  LEU240      0.0270
     68  CG        24.7810  130.2220   61.1980 C.3   240  LEU240      0.0019
     69  CD1       26.1410  130.0360   60.5430 C.3   240  LEU240      0.0001
     70  CD2       24.8670  131.1950   62.3600 C.3   240  LEU240      0.0001
     71  N         20.6200  135.6570   60.4310 N.3   244  LEU244     -0.1245
     72  CA        21.2220  136.6570   59.5530 C.3   244  LEU244      0.1561
     73  C         20.2900  137.1330   58.4440 C.2   244  LEU244      0.2260
     74  O         20.7160  137.8640   57.5500 O.2   244  LEU244     -0.2867
     75  CB        22.5100  136.1150   58.9290 C.3   244  LEU244      0.0270
     76  CG        23.7090  135.9460   59.8590 C.3   244  LEU244      0.0019
     77  CD1       24.9570  135.6030   59.0610 C.3   244  LEU244      0.0001
     78  CD2       23.9230  137.2050   60.6750 C.3   244  LEU244      0.0001
@<TRIPOS>BOND
     1    74    73    2
     2    73    72    1
     3    75    72    1
     4    75    76    1
     5    77    76    1
     6    72    71    1
     7    66    65    2
     8    65    64    1
     9    76    78    1
    10    67    64    1
    11    67    68    1
    12    69    68    1
    13    57    58    2
    14    57    56    1
    15    64    63    1
    16    42    41    2
    17    68    70    1
    18    41    40    1
    19    45    43    1
    20    55    56    1
    21    56    59    1
    22    49    50    2
    23    49    48    1
    24    43    40    1
    25    43    44    1
    26    59    60    1
    27    40    39    1
    28    47    48    1
    29    60    62    1
    30    60    61    1
    31    46    44    1
    32    48    51    1
    33    51    52    1
    34    29    28    1
    35    30    28    1
    36    52    54    1
    37    52    53    1
    38    28    27    1
    39    27    24    1
    40    38    36    1
    41    24    23    1
    42    24    25    1
    43    37    36    1
    44    36    35    1
    45    25    26    2
    46    35    32    1
    47    31    32    1
    48    32    33    1
    49     6     5    1
    50    33    34    2
    51     7     5    1
    52     5     2    1
    53    21    20    1
    54    22    20    1
    55    20    17    1
    56     2     3    1
    57     2     1    1
    58     3     4    2
    59    17    18    1
    60    17    16    1
    61    19    18    2
    62    16    10   am
    63    15    14    1
    64    10    11    2
    65    10     9    1
    66    12     9    1
    67    12    13    1
    68    14    13    1
    69     9     8    1
