@<TRIPOS>MOLECULE
tmp/4u3fM14.pdb
 178 168 0 0 0
SMALL
GASTEIGER

@<TRIPOS>ATOM
      1  N         49.5720  126.5590   87.5220 N.3   118  ILE118     -0.1245
      2  CA        48.4880  127.1310   86.7360 C.3   118  ILE118      0.1561
      3  C         47.3540  127.6040   87.6450 C.2   118  ILE118      0.2260
      4  O         46.7720  128.6680   87.4260 O.2   118  ILE118     -0.2867
      5  CB        47.9590  126.1130   85.7100 C.3   118  ILE118      0.0252
      6  CG1       49.0210  125.8490   84.6390 C.3   118  ILE118      0.0019
      7  CG2       46.6650  126.5970   85.0750 C.3   118  ILE118      0.0019
      8  CD1       48.6860  124.6960   83.7240 C.3   118  ILE118      0.0001
      9  N         48.4970  130.8450   89.1540 N.3   121  LEU121     -0.1231
     10  CA        48.4410  131.9240   88.1750 C.3   121  LEU121      0.1693
     11  C         47.0120  132.4090   87.9420 C.2   121  LEU121      0.2592
     12  O         46.7760  133.6050   87.7710 O.2   121  LEU121     -0.2718
     13  CB        49.0670  131.4700   86.8540 C.3   121  LEU121      0.0284
     14  CG        50.5900  131.3340   86.8660 C.3   121  LEU121      0.0019
     15  CD1       51.0920  130.7110   85.5740 C.3   121  LEU121      0.0001
     16  CD2       51.2240  132.6950   87.0850 C.3   121  LEU121      0.0001
     17  N         46.0630  131.4800   87.9420 N.am  122  THR122     -0.1953
     18  CA        44.6590  131.8260   87.7590 C.3   122  THR122      0.1897
     19  C         44.1270  132.5490   88.9940 C.2   122  THR122      0.2313
     20  O         43.3040  133.4590   88.8880 O.2   122  THR122     -0.2863
     21  CB        43.8000  130.5780   87.4820 C.3   122  THR122      0.1794
     22  OG1       44.4400  129.7660   86.4910 O.3   122  THR122     -0.2208
     23  CG2       42.4160  130.9800   86.9900 C.3   122  THR122      0.0378
     24  N         45.3670  136.1550   88.9340 N.3   125  ALA125     -0.1245
     25  CA        44.5780  136.8940   87.9570 C.3   125  ALA125      0.1562
     26  C         43.1740  137.1660   88.4850 C.2   125  ALA125      0.2260
     27  O         42.5960  138.2190   88.2230 O.2   125  ALA125     -0.2867
     28  CB        44.5130  136.1300   86.6420 C.3   125  ALA125      0.0290
     29  N         43.3510  139.8260   91.1040 N.3   128  PHE128     -0.1227
     30  CA        43.7640  141.0690   90.4580 C.3   128  PHE128      0.1736
     31  C         42.5730  141.8310   89.8880 C.2   128  PHE128      0.2595
     32  O         42.4680  143.0460   90.0530 O.2   128  PHE128     -0.2718
     33  CB        44.7790  140.7830   89.3470 C.3   128  PHE128      0.0547
     34  CG        45.1790  141.9980   88.5510 C.ar  128  PHE128     -0.0202
     35  CD1       46.1480  142.8660   89.0260 C.ar  128  PHE128     -0.0042
     36  CD2       44.5980  142.2610   87.3200 C.ar  128  PHE128     -0.0042
     37  CE1       46.5230  143.9780   88.2940 C.ar  128  PHE128     -0.0003
     38  CE2       44.9680  143.3720   86.5840 C.ar  128  PHE128     -0.0003
     39  CZ        45.9310  144.2310   87.0710 C.ar  128  PHE128     -0.0000
     40  N         41.6810  141.1120   89.2140 N.am  129  VAL129     -0.1980
     41  CA        40.5290  141.7300   88.5680 C.3   129  VAL129      0.1595
     42  C         39.4100  142.0100   89.5630 C.2   129  VAL129      0.2287
     43  O         38.5610  142.8700   89.3290 O.2   129  VAL129     -0.2864
     44  CB        39.9830  140.8490   87.4320 C.3   129  VAL129      0.0276
     45  CG1       40.9820  140.7850   86.2900 C.3   129  VAL129      0.0022
     46  CG2       39.6680  139.4560   87.9470 C.3   129  VAL129      0.0022
     47  N         49.7710  148.3610   86.4430 N.3   146  ILE146     -0.1231
     48  CA        50.0930  146.9950   86.0350 C.3   146  ILE146      0.1692
     49  C         49.8350  146.7320   84.5490 C.2   146  ILE146      0.2592
     50  O         50.6980  146.1960   83.8530 O.2   146  ILE146     -0.2718
     51  CB        49.3040  145.9690   86.8690 C.3   146  ILE146      0.0266
     52  CG1       49.7640  146.0170   88.3260 C.3   146  ILE146      0.0019
     53  CG2       49.4850  144.5670   86.3060 C.3   146  ILE146      0.0020
     54  CD1       51.2480  145.7600   88.5050 C.3   146  ILE146      0.0001
     55  N         48.6560  147.1070   84.0640 N.am  147  THR147     -0.1953
     56  CA        48.2990  146.8610   82.6680 C.3   147  THR147      0.1897
     57  C         49.1020  147.7300   81.7030 C.2   147  THR147      0.2313
     58  O         49.3390  147.3400   80.5590 O.2   147  THR147     -0.2863
     59  CB        46.8000  147.1020   82.4140 C.3   147  THR147      0.1794
     60  OG1       46.4660  148.4560   82.7440 O.3   147  THR147     -0.2208
     61  CG2       45.9580  146.1540   83.2530 C.3   147  THR147      0.0378
     62  N         52.2940  146.3220   79.7540 N.3   150  PHE150     -0.1241
     63  CA        52.2480  145.5200   78.5320 C.3   150  PHE150      0.1605
     64  C         52.6620  146.3290   77.3060 C.2   150  PHE150      0.2264
     65  O         52.9830  145.7650   76.2590 O.2   150  PHE150     -0.2867
     66  CB        50.8460  144.9420   78.3120 C.3   150  PHE150      0.0534
     67  CG        50.3500  144.0780   79.4380 C.ar  150  PHE150     -0.0203
     68  CD1       48.9950  143.8390   79.5930 C.ar  150  PHE150     -0.0042
     69  CD2       51.2330  143.5010   80.3360 C.ar  150  PHE150     -0.0042
     70  CE1       48.5290  143.0470   80.6230 C.ar  150  PHE150     -0.0003
     71  CE2       50.7720  142.7100   81.3690 C.ar  150  PHE150     -0.0003
     72  CZ        49.4180  142.4820   81.5110 C.ar  150  PHE150     -0.0000
     73  N         48.2630  145.8020   72.2260 N.3   160  LEU160     -0.1245
     74  CA        47.9040  144.7680   73.1900 C.3   160  LEU160      0.1561
     75  C         47.2230  145.3740   74.4190 C.2   160  LEU160      0.2260
     76  O         46.3080  144.7800   74.9900 O.2   160  LEU160     -0.2867
     77  CB        49.1500  143.9750   73.6020 C.3   160  LEU160      0.0270
     78  CG        49.0150  142.4890   73.9540 C.3   160  LEU160      0.0019
     79  CD1       50.3840  141.8260   73.9710 C.3   160  LEU160      0.0001
     80  CD2       48.3170  142.2840   75.2900 C.3   160  LEU160      0.0001
     81  N         43.6410  147.1670   73.6020 N.3   163  TRP163     -0.1227
     82  CA        42.6520  146.1250   73.3630 C.3   163  TRP163      0.1737
     83  C         42.0950  145.6110   74.6850 C.2   163  TRP163      0.2595
     84  O         40.8820  145.4870   74.8540 O.2   163  TRP163     -0.2718
     85  CB        43.2610  144.9730   72.5640 C.3   163  TRP163      0.0564
     86  CG        42.3160  143.8310   72.3490 C.ar  163  TRP163      0.0003
     87  CD1       41.2800  143.7810   71.4630 C.ar  163  TRP163      0.0946
     88  CD2       42.3200  142.5710   73.0320 C.ar  163  TRP163      0.0152
     89  NE1       40.6370  142.5710   71.5520 N.ar  163  TRP163     -0.2442
     90  CE2       41.2570  141.8090   72.5090 C.ar  163  TRP163      0.0810
     91  CE3       43.1180  142.0120   74.0360 C.ar  163  TRP163      0.0012
     92  CZ2       40.9710  140.5190   72.9520 C.ar  163  TRP163      0.0191
     93  CZ3       42.8330  140.7310   74.4760 C.ar  163  TRP163      0.0001
     94  CH2       41.7690  139.9990   73.9350 C.ar  163  TRP163      0.0015
     95  N         42.9930  145.3180   75.6210 N.am  164  ALA164     -0.1980
     96  CA        42.6070  144.8280   76.9400 C.3   164  ALA164      0.1597
     97  C         41.7950  145.8720   77.6960 C.2   164  ALA164      0.2287
     98  O         40.8860  145.5380   78.4570 O.2   164  ALA164     -0.2864
     99  CB        43.8380  144.4360   77.7360 C.3   164  ALA164      0.0319
    100  N         34.3460  144.2290   81.8090 N.3   177  ARG177     -0.1231
    101  CA        34.9940  143.0060   81.3540 C.3   177  ARG177      0.1694
    102  C         35.8140  142.3690   82.4720 C.2   177  ARG177      0.2592
    103  O         36.0450  141.1600   82.4690 O.2   177  ARG177     -0.2718
    104  CB        35.8790  143.2780   80.1370 C.3   177  ARG177      0.0321
    105  CG        37.1490  144.0560   80.4270 C.3   177  ARG177      0.0489
    106  CD        37.9150  144.3180   79.1460 C.3   177  ARG177      0.2205
    107  NE        37.1080  145.0660   78.1880 N.pl3 177  ARG177     -0.0865
    108  CZ        37.4570  145.2820   76.9250 C.cat 177  ARG177      0.5346
    109  NH1       38.6020  144.8000   76.4610 N.pl3 177  ARG177      0.1354
    110  NH2       36.6590  145.9750   76.1240 N.pl3 177  ARG177      0.1354
    111  N         36.2490  143.1830   83.4300 N.am  178  PHE178     -0.1976
    112  CA        36.9710  142.6630   84.5840 C.3   178  PHE178      0.1639
    113  C         36.0150  141.9530   85.5330 C.2   178  PHE178      0.2290
    114  O         36.3760  140.9580   86.1590 O.2   178  PHE178     -0.2864
    115  CB        37.7140  143.7810   85.3190 C.3   178  PHE178      0.0560
    116  CG        39.1010  144.0340   84.7960 C.ar  178  PHE178     -0.0200
    117  CD1       39.4960  143.5300   83.5680 C.ar  178  PHE178     -0.0042
    118  CD2       40.0150  144.7610   85.5420 C.ar  178  PHE178     -0.0042
    119  CE1       40.7710  143.7580   83.0880 C.ar  178  PHE178     -0.0003
    120  CE2       41.2930  144.9910   85.0680 C.ar  178  PHE178     -0.0003
    121  CZ        41.6710  144.4890   83.8390 C.ar  178  PHE178     -0.0000
    122  N         35.2760  138.7440   83.9640 N.3   181  LEU181     -0.1245
    123  CA        36.4520  137.9000   84.1320 C.3   181  LEU181      0.1561
    124  C         36.5580  137.3920   85.5690 C.2   181  LEU181      0.2260
    125  O         36.9250  136.2400   85.8010 O.2   181  LEU181     -0.2867
    126  CB        37.7200  138.6630   83.7460 C.3   181  LEU181      0.0270
    127  CG        38.5150  138.1230   82.5570 C.3   181  LEU181      0.0019
    128  CD1       39.7130  139.0110   82.2660 C.3   181  LEU181      0.0001
    129  CD2       38.9590  136.6940   82.8210 C.3   181  LEU181      0.0001
    130  N         34.0370  134.6690   86.0710 N.3   184  LEU184     -0.1231
    131  CA        34.3540  133.4550   85.3250 C.3   184  LEU184      0.1693
    132  C         35.4860  132.6240   85.9310 C.2   184  LEU184      0.2591
    133  O         35.3190  131.4300   86.1760 O.2   184  LEU184     -0.2718
    134  CB        34.7110  133.8200   83.8820 C.3   184  LEU184      0.0284
    135  CG        35.2650  132.6990   83.0030 C.3   184  LEU184      0.0019
    136  CD1       34.2050  131.6450   82.7510 C.3   184  LEU184      0.0001
    137  CD2       35.7930  133.2580   81.6920 C.3   184  LEU184      0.0001
    138  N         36.6300  133.2620   86.1650 N.am  185  LEU185     -0.1980
    139  CA        37.8630  132.5660   86.5520 C.3   185  LEU185      0.1596
    140  C         37.7880  131.5710   87.7270 C.2   185  LEU185      0.2287
    141  O         38.4110  130.5110   87.6560 O.2   185  LEU185     -0.2864
    142  CB        38.9590  133.5950   86.8560 C.3   185  LEU185      0.0297
    143  CG        39.5640  134.3030   85.6450 C.3   185  LEU185      0.0022
    144  CD1       40.9040  134.9250   86.0010 C.3   185  LEU185      0.0001
    145  CD2       39.7080  133.3200   84.5040 C.3   185  LEU185      0.0001
    146  N         37.0460  128.1870   86.6650 N.3   188  ALA188     -0.1245
    147  CA        38.1940  127.5610   86.0270 C.3   188  ALA188      0.1562
    148  C         39.1030  126.9670   87.0940 C.2   188  ALA188      0.2260
    149  O         39.6350  125.8700   86.9310 O.2   188  ALA188     -0.2867
    150  CB        38.9510  128.5650   85.1730 C.3   188  ALA188      0.0290
    151  N         40.1970  123.0710   87.1920 N.3   192  ILE192     -0.1245
    152  CA        41.5990  122.6670   87.1880 C.3   192  ILE192      0.1561
    153  C         41.9610  121.9570   88.4950 C.2   192  ILE192      0.2260
    154  O         42.8180  121.0730   88.5140 O.2   192  ILE192     -0.2867
    155  CB        42.5300  123.8790   86.9590 C.3   192  ILE192      0.0252
    156  CG1       42.1870  124.5690   85.6380 C.3   192  ILE192      0.0019
    157  CG2       43.9900  123.4540   86.9470 C.3   192  ILE192      0.0019
    158  CD1       43.0090  125.8090   85.3650 C.3   192  ILE192      0.0001
    159  N         58.8800  143.7020   83.5860 N.3   291  VAL291     -0.1245
    160  CA        57.7580  142.8230   83.2680 C.3   291  VAL291      0.1561
    161  C         58.2040  141.3660   83.2310 C.2   291  VAL291      0.2260
    162  O         57.5510  140.4880   83.7980 O.2   291  VAL291     -0.2867
    163  CB        57.1190  143.1870   81.9130 C.3   291  VAL291      0.0252
    164  CG1       56.0360  142.1840   81.5420 C.3   291  VAL291      0.0019
    165  CG2       56.5510  144.5920   81.9570 C.3   291  VAL291      0.0019
    166  N         59.0700  140.1270   86.5960 N.3   294  LEU294     -0.1231
    167  CA        57.8220  139.8800   87.3060 C.3   294  LEU294      0.1693
    168  C         57.2460  138.5280   86.9120 C.2   294  LEU294      0.2591
    169  O         56.8720  137.7270   87.7690 O.2   294  LEU294     -0.2718
    170  CB        56.8090  140.9900   87.0180 C.3   294  LEU294      0.0284
    171  CG        55.3860  140.7650   87.5330 C.3   294  LEU294      0.0019
    172  CD1       55.3920  140.5510   89.0340 C.3   294  LEU294      0.0001
    173  CD2       54.4900  141.9360   87.1640 C.3   294  LEU294      0.0001
    174  N         57.1790  138.2830   85.6080 N.am  295  ALA295     -0.1980
    175  CA        56.6510  137.0290   85.0910 C.3   295  ALA295      0.1597
    176  C         57.5320  135.8570   85.5080 C.2   295  ALA295      0.2287
    177  O         57.0330  134.7840   85.8430 O.2   295  ALA295     -0.2864
    178  CB        56.5260  137.0890   83.5780 C.3   295  ALA295      0.0319
@<TRIPOS>BOND
     1    87    89   ar
     2    87    86   ar
     3    89    90   ar
     4    73    74    1
     5    86    85    1
     6    86    88   ar
     7    90    92   ar
     8    90    88   ar
     9    85    82    1
    10    92    94   ar
    11    88    91   ar
    12    74    77    1
    13    74    75    1
    14    82    81    1
    15    82    83    1
    16    77    78    1
    17    94    93   ar
    18    78    79    1
    19    78    80    1
    20    91    93   ar
    21    75    76    2
    22    83    84    2
    23    83    95   am
    24    95    96    1
    25   110   108    1
    26    65    64    2
    27   109   108    1
    28   108   107    2
    29    96    97    1
    30    96    99    1
    31    64    63    1
    32    97    98    2
    33   107   106    1
    34    66    63    1
    35    66    67    1
    36    63    62    1
    37   106   105    1
    38    67    68   ar
    39    67    69   ar
    40    68    70   ar
    41   104   105    1
    42   104   101    1
    43    69    71   ar
    44    58    57    2
    45    70    72   ar
    46   101   100    1
    47   101   102    1
    48    71    72   ar
    49   164   163    1
    50   137   135    1
    51    57    56    1
    52   163   165    1
    53   163   160    1
    54   128   127    1
    55    59    56    1
    56    59    60    1
    57    59    61    1
    58   103   102    2
    59   102   111   am
    60   127   129    1
    61   127   126    1
    62    56    55    1
    63   136   135    1
    64   135   134    1
    65   119   117   ar
    66   119   121   ar
    67   161   160    1
    68   161   162    2
    69   160   159    1
    70   111   112    1
    71   117   116   ar
    72   178   175    1
    73     8     6    1
    74   126   123    1
    75   121   120   ar
    76    50    49    2
    77   134   131    1
    78   122   123    1
    79    55    49   am
    80   123   124    1
    81   145   143    1
    82    49    48    1
    83   112   115    1
    84   112   113    1
    85     6     5    1
    86   116   115    1
    87   116   118   ar
    88   120   118   ar
    89     7     5    1
    90   175   176    1
    91   175   174    1
    92   150   147    1
    93   131   132    1
    94   131   130    1
    95   158   156    1
    96   176   177    2
    97   113   114    2
    98   124   125    2
    99    15    14    1
   100   174   168   am
   101   156   155    1
   102   143   144    1
   103   143   142    1
   104     5     2    1
   105   132   138   am
   106   132   133    2
   107   147   146    1
   108   147   148    1
   109    48    47    1
   110    48    51    1
   111   138   139    1
   112    45    44    1
   113    53    51    1
   114    22    21    1
   115   139   142    1
   116   139   140    1
   117    38    39   ar
   118    38    36   ar
   119   166   167    1
   120    28    25    1
   121     2     1    1
   122     2     3    1
   123    13    14    1
   124    13    10    1
   125    14    16    1
   126    51    52    1
   127   168   167    1
   128   168   169    2
   129   149   148    2
   130   157   155    1
   131   155   152    1
   132    23    21    1
   133   170   167    1
   134   170   171    1
   135    39    37   ar
   136   173   171    1
   137   152   151    1
   138   152   153    1
   139    36    34   ar
   140     4     3    2
   141    44    46    1
   142    44    41    1
   143    21    18    1
   144   171   172    1
   145   141   140    2
   146    18    17    1
   147    18    19    1
   148    12    11    2
   149    17    11   am
   150    11    10    1
   151    25    26    1
   152    25    24    1
   153    10     9    1
   154    27    26    2
   155    37    35   ar
   156    52    54    1
   157   153   154    2
   158    34    35   ar
   159    34    33    1
   160    41    40    1
   161    41    42    1
   162    20    19    2
   163    40    31   am
   164    43    42    2
   165    33    30    1
   166    31    32    2
   167    31    30    1
   168    30    29    1
