@<TRIPOS>MOLECULE
tmp/4u3fC06.pdb
 190 183 0 0 0
SMALL
GASTEIGER

@<TRIPOS>ATOM
      1  N         15.5650  121.3030   83.2200 N.3   121  LEU121     -0.1245
      2  CA        15.0390  122.2380   84.2060 C.3   121  LEU121      0.1561
      3  C         15.9880  123.4090   84.4460 C.2   121  LEU121      0.2260
      4  O         15.5500  124.5450   84.6260 O.2   121  LEU121     -0.2867
      5  CB        14.7550  121.5140   85.5230 C.3   121  LEU121      0.0270
      6  CG        13.5380  120.5880   85.5060 C.3   121  LEU121      0.0019
      7  CD1       13.4470  119.7860   86.7920 C.3   121  LEU121      0.0001
      8  CD2       12.2770  121.4050   85.2960 C.3   121  LEU121      0.0001
      9  N         15.7990  125.7140   81.3580 N.3   124  MET124     -0.1230
     10  CA        14.6020  126.5470   81.3740 C.3   124  MET124      0.1702
     11  C         14.7840  127.7260   82.3220 C.2   124  MET124      0.2592
     12  O         14.3960  128.8510   82.0090 O.2   124  MET124     -0.2718
     13  CB        13.3750  125.7230   81.7730 C.3   124  MET124      0.0401
     14  CG        13.0810  124.5650   80.8340 C.3   124  MET124      0.0596
     15  SD        11.6730  123.5590   81.3420 S.3   124  MET124     -0.1393
     16  CE        10.3010  124.6080   80.8660 C.3   124  MET124      0.0692
     17  N         15.3860  127.4600   83.4770 N.am  125  ALA125     -0.1980
     18  CA        15.6620  128.5010   84.4600 C.3   125  ALA125      0.1597
     19  C         16.7020  129.4830   83.9340 C.2   125  ALA125      0.2287
     20  O         16.6340  130.6810   84.2050 O.2   125  ALA125     -0.2864
     21  CB        16.1290  127.8830   85.7670 C.3   125  ALA125      0.0319
     22  N         17.3390  130.2380   80.6670 N.3   127  ALA127     -0.1231
     23  CA        16.7530  131.0660   79.6210 C.3   127  ALA127      0.1694
     24  C         15.7150  132.0260   80.1960 C.2   127  ALA127      0.2592
     25  O         15.4540  133.0840   79.6250 O.2   127  ALA127     -0.2718
     26  CB        16.1330  130.1920   78.5400 C.3   127  ALA127      0.0304
     27  N         15.1310  131.6550   81.3320 N.am  128  PHE128     -0.1976
     28  CA        14.1200  132.4840   81.9860 C.3   128  PHE128      0.1639
     29  C         14.7200  133.7600   82.5630 C.2   128  PHE128      0.2290
     30  O         14.1590  134.8450   82.4080 O.2   128  PHE128     -0.2864
     31  CB        13.4150  131.6930   83.0950 C.3   128  PHE128      0.0560
     32  CG        12.4310  132.5040   83.8970 C.ar  128  PHE128     -0.0200
     33  CD1       11.1480  132.7260   83.4240 C.ar  128  PHE128     -0.0042
     34  CD2       12.7840  133.0280   85.1320 C.ar  128  PHE128     -0.0042
     35  CE1       10.2390  133.4640   84.1620 C.ar  128  PHE128     -0.0003
     36  CE2       11.8780  133.7680   85.8730 C.ar  128  PHE128     -0.0003
     37  CZ        10.6050  133.9850   85.3880 C.ar  128  PHE128     -0.0000
     38  N         16.2290  136.2710   79.9250 N.3   131  TYR131     -0.1227
     39  CA        15.2440  137.0440   79.1780 C.3   131  TYR131      0.1736
     40  C         14.9580  138.3770   79.8620 C.2   131  TYR131      0.2595
     41  O         14.5260  139.3340   79.2220 O.2   131  TYR131     -0.2718
     42  CB        13.9510  136.2390   79.0180 C.3   131  TYR131      0.0548
     43  CG        12.9990  136.7870   77.9780 C.ar  131  TYR131     -0.0200
     44  CD1       13.2370  136.5960   76.6230 C.ar  131  TYR131     -0.0009
     45  CD2       11.8570  137.4840   78.3500 C.ar  131  TYR131     -0.0009
     46  CE1       12.3700  137.0910   75.6670 C.ar  131  TYR131      0.0417
     47  CE2       10.9830  137.9830   77.4020 C.ar  131  TYR131      0.0417
     48  CZ        11.2440  137.7830   76.0620 C.ar  131  TYR131      0.1957
     49  OH        10.3800  138.2750   75.1120 O.3   131  TYR131     -0.2866
     50  N         15.2100  138.4290   81.1660 N.am  132  VAL132     -0.1980
     51  CA        14.9560  139.6250   81.9590 C.3   132  VAL132      0.1595
     52  C         16.0680  140.6560   81.7800 C.2   132  VAL132      0.2287
     53  O         15.8540  141.8530   81.9700 O.2   132  VAL132     -0.2864
     54  CB        14.8220  139.2800   83.4570 C.3   132  VAL132      0.0276
     55  CG1       14.1450  140.4140   84.2130 C.3   132  VAL132      0.0022
     56  CG2       14.0440  137.9900   83.6310 C.3   132  VAL132      0.0022
     57  N          8.4590  142.9790   77.7400 N.3   138  MET138     -0.1230
     58  CA         8.1450  141.5610   77.8790 C.3   138  MET138      0.1702
     59  C          9.0780  140.8950   78.8870 C.2   138  MET138      0.2593
     60  O          8.7450  139.8630   79.4710 O.2   138  MET138     -0.2718
     61  CB         8.2260  140.8560   76.5250 C.3   138  MET138      0.0401
     62  CG         7.5240  139.5090   76.4940 C.3   138  MET138      0.0596
     63  SD         5.8290  139.6090   77.1020 S.3   138  MET138     -0.1393
     64  CE         5.1110  140.7670   75.9390 C.3   138  MET138      0.0692
     65  N         10.2460  141.4970   79.0900 N.am  139  SER139     -0.1952
     66  CA        11.1980  141.0120   80.0790 C.3   139  SER139      0.1924
     67  C         10.6390  141.1850   81.4860 C.2   139  SER139      0.2314
     68  O         10.5720  140.2330   82.2640 O.2   139  SER139     -0.2863
     69  CB        12.5320  141.7500   79.9490 C.3   139  SER139      0.2116
     70  OG        13.0640  141.6260   78.6410 O.3   139  SER139     -0.2180
     71  N          7.0370  139.4660   81.8980 N.3   142  GLY142     -0.1210
     72  CA         7.2110  138.0280   81.8880 C.3   142  GLY142      0.1956
     73  C          7.7140  137.5780   83.2450 C.2   142  GLY142      0.2611
     74  O          7.2510  136.5800   83.7960 O.2   142  GLY142     -0.2717
     75  N          8.6610  138.3350   83.7890 N.am  143  ALA143     -0.1979
     76  CA         9.2110  138.0500   85.1070 C.3   143  ALA143      0.1597
     77  C          8.1690  138.2980   86.1890 C.2   143  ALA143      0.2287
     78  O          8.1140  137.5790   87.1860 O.2   143  ALA143     -0.2864
     79  CB        10.4500  138.8930   85.3600 C.3   143  ALA143      0.0319
     80  N          4.6350  138.2420   85.8990 N.3   145  VAL145     -0.1231
     81  CA         3.5570  137.2560   85.8460 C.3   145  VAL145      0.1692
     82  C          3.9690  135.8930   86.4080 C.2   145  VAL145      0.2591
     83  O          3.2280  135.2840   87.1820 O.2   145  VAL145     -0.2718
     84  CB         3.0500  137.0730   84.3970 C.3   145  VAL145      0.0266
     85  CG1        2.1860  135.8260   84.2730 C.3   145  VAL145      0.0020
     86  CG2        2.2830  138.3070   83.9440 C.3   145  VAL145      0.0020
     87  N          5.1560  135.4270   86.0350 N.am  146  ILE146     -0.1980
     88  CA         5.6120  134.0980   86.4340 C.3   146  ILE146      0.1595
     89  C          5.9730  134.0040   87.9180 C.2   146  ILE146      0.2287
     90  O          5.5280  133.0870   88.6100 O.2   146  ILE146     -0.2864
     91  CB         6.8250  133.6560   85.5960 C.3   146  ILE146      0.0276
     92  CG1        6.4070  133.4580   84.1380 C.3   146  ILE146      0.0022
     93  CG2        7.4200  132.3700   86.1480 C.3   146  ILE146      0.0022
     94  CD1        5.2890  132.4540   83.9600 C.3   146  ILE146      0.0001
     95  N          0.7070  139.1300   77.1050 N.3   268  ILE268     -0.1231
     96  CA         1.9690  138.7080   77.6970 C.3   268  ILE268      0.1692
     97  C          2.2360  137.2310   77.4320 C.2   268  ILE268      0.2592
     98  O          1.8580  136.3670   78.2230 O.2   268  ILE268     -0.2718
     99  CB         1.9900  138.9620   79.2140 C.3   268  ILE268      0.0266
    100  CG1        1.5270  140.3860   79.5180 C.3   268  ILE268      0.0019
    101  CG2        3.3820  138.7190   79.7800 C.3   268  ILE268      0.0020
    102  CD1        1.5640  140.7380   80.9880 C.3   268  ILE268      0.0001
    103  N          2.8870  136.9470   76.3110 N.am  269  LYS269     -0.1966
    104  CA         3.2250  135.5760   75.9620 C.3   269  LYS269      0.1713
    105  C          4.7330  135.3680   76.0670 C.2   269  LYS269      0.2458
    106  O          5.5060  136.3130   75.9080 O.2   269  LYS269     -0.2730
    107  CB         2.7260  135.2400   74.5530 C.3   269  LYS269      0.0311
    108  CG         3.6000  135.7720   73.4330 C.3   269  LYS269      0.0038
    109  CD         2.9910  135.4680   72.0770 C.3   269  LYS269      0.0206
    110  CE         3.9670  135.7670   70.9520 C.3   269  LYS269      0.1093
    111  NZ         5.1030  134.8020   70.9340 N.3   269  LYS269     -0.1314
    112  N          5.1560  134.1300   76.3610 N.am  270  PRO270     -0.2716
    113  CA         6.5810  133.7960   76.4370 C.3   270  PRO270      0.1536
    114  C          7.1920  133.5370   75.0660 C.2   270  PRO270      0.2598
    115  O          6.4990  133.6400   74.0540 O.2   270  PRO270     -0.2715
    116  CB         6.5900  132.5190   77.2800 C.3   270  PRO270      0.0310
    117  CG         5.2850  131.8790   76.9810 C.3   270  PRO270      0.0237
    118  CD         4.3040  133.0010   76.7760 C.3   270  PRO270      0.0939
    119  N          8.4810  133.2110   75.0380 N.am  271  GLU271     -0.1978
    120  CA         9.1130  132.7300   73.8180 C.3   271  GLU271      0.1602
    121  C          8.5020  131.3790   73.4580 C.2   271  GLU271      0.2287
    122  O          7.8330  130.7560   74.2830 O.2   271  GLU271     -0.2864
    123  CB        10.6290  132.6160   73.9870 C.3   271  GLU271      0.0415
    124  CG        11.3630  133.9520   74.0240 C.3   271  GLU271      0.1163
    125  CD        11.7750  134.4370   72.6450 C.2   271  GLU271      0.3649
    126  OE1       11.1830  133.9780   71.6440 O.co2 271  GLU271     -0.2457
    127  OE2       12.6990  135.2740   72.5620 O.co2 271  GLU271     -0.2457
    128  N          9.4430  128.3250   73.1050 N.3   273  TYR273     -0.1227
    129  CA         9.7830  127.0830   73.7980 C.3   273  TYR273      0.1736
    130  C          9.1540  126.9850   75.1860 C.2   273  TYR273      0.2595
    131  O          9.2720  125.9570   75.8530 O.2   273  TYR273     -0.2718
    132  CB        11.3040  126.9210   73.9000 C.3   273  TYR273      0.0548
    133  CG        12.0560  128.1730   74.2910 C.ar  273  TYR273     -0.0200
    134  CD1       12.1040  128.5980   75.6140 C.ar  273  TYR273     -0.0009
    135  CD2       12.7390  128.9190   73.3380 C.ar  273  TYR273     -0.0009
    136  CE1       12.7990  129.7400   75.9720 C.ar  273  TYR273      0.0417
    137  CE2       13.4370  130.0590   73.6890 C.ar  273  TYR273      0.0417
    138  CZ        13.4640  130.4650   75.0060 C.ar  273  TYR273      0.1957
    139  OH        14.1590  131.6000   75.3550 O.3   273  TYR273     -0.2866
    140  N          8.4860  128.0510   75.6160 N.am  274  PHE274     -0.1976
    141  CA         7.7620  128.0440   76.8850 C.3   274  PHE274      0.1639
    142  C          6.2550  128.0260   76.6480 C.2   274  PHE274      0.2290
    143  O          5.4750  127.8390   77.5820 O.2   274  PHE274     -0.2864
    144  CB         8.1380  129.2600   77.7370 C.3   274  PHE274      0.0560
    145  CG         9.4560  129.1280   78.4460 C.ar  274  PHE274     -0.0200
    146  CD1       10.1660  130.2560   78.8250 C.ar  274  PHE274     -0.0042
    147  CD2        9.9800  127.8810   78.7440 C.ar  274  PHE274     -0.0042
    148  CE1       11.3780  130.1430   79.4800 C.ar  274  PHE274     -0.0003
    149  CE2       11.1920  127.7620   79.4000 C.ar  274  PHE274     -0.0003
    150  CZ        11.8910  128.8950   79.7680 C.ar  274  PHE274     -0.0000
    151  N          4.0910  125.1440   77.8810 N.3   277  ALA277     -0.1231
    152  CA         3.9930  125.1330   79.3340 C.3   277  ALA277      0.1694
    153  C          3.1080  126.2750   79.8130 C.2   277  ALA277      0.2592
    154  O          2.3990  126.1530   80.8120 O.2   277  ALA277     -0.2718
    155  CB         5.3750  125.2280   79.9570 C.3   277  ALA277      0.0304
    156  N          3.1570  127.3840   79.0840 N.am  278  TYR278     -0.1976
    157  CA         2.3330  128.5460   79.3840 C.3   278  TYR278      0.1639
    158  C          0.8580  128.2240   79.1760 C.2   278  TYR278      0.2290
    159  O          0.0000  128.6800   79.9300 O.2   278  TYR278     -0.2864
    160  CB         2.7520  129.7310   78.5100 C.3   278  TYR278      0.0560
    161  CG         2.2730  131.0760   79.0080 C.ar  278  TYR278     -0.0198
    162  CD1        2.8310  131.6560   80.1390 C.ar  278  TYR278     -0.0009
    163  CD2        1.2770  131.7740   78.3370 C.ar  278  TYR278     -0.0009
    164  CE1        2.4030  132.8880   80.5970 C.ar  278  TYR278      0.0417
    165  CE2        0.8430  133.0070   78.7860 C.ar  278  TYR278      0.0417
    166  CZ         1.4090  133.5600   79.9160 C.ar  278  TYR278      0.1957
    167  OH         0.9790  134.7870   80.3650 O.3   278  TYR278     -0.2866
    168  N         -0.3210  126.1030   81.9910 N.3   281  LEU281     -0.1245
    169  CA        -0.4460  126.9670   83.1600 C.3   281  LEU281      0.1561
    170  C         -1.8050  127.6560   83.2060 C.2   281  LEU281      0.2260
    171  O         -2.4070  127.7920   84.2710 O.2   281  LEU281     -0.2867
    172  CB         0.6730  128.0150   83.1710 C.3   281  LEU281      0.0270
    173  CG         0.5160  129.2130   84.1120 C.3   281  LEU281      0.0019
    174  CD1        0.5340  128.7770   85.5680 C.3   281  LEU281      0.0001
    175  CD2        1.5980  130.2500   83.8470 C.3   281  LEU281      0.0001
    176  N          1.6750  123.5060   85.8140 N.3   294  LEU294     -0.1245
    177  CA         2.8610  123.9660   85.1070 C.3   294  LEU294      0.1561
    178  C          4.0700  123.1270   85.4950 C.2   294  LEU294      0.2260
    179  O          4.8120  122.6520   84.6350 O.2   294  LEU294     -0.2867
    180  CB         3.1250  125.4440   85.4020 C.3   294  LEU294      0.0270
    181  CG         4.4490  126.0140   84.8900 C.3   294  LEU294      0.0019
    182  CD1        4.5560  125.8400   83.3880 C.3   294  LEU294      0.0001
    183  CD2        4.5850  127.4790   85.2680 C.3   294  LEU294      0.0001
    184  N          6.4430  119.4200   83.2270 N.3   298  VAL298     -0.1245
    185  CA         7.8450  119.1210   82.9640 C.3   298  VAL298      0.1561
    186  C          8.3630  118.0310   83.9020 C.2   298  VAL298      0.2260
    187  O          9.1550  117.1800   83.4980 O.2   298  VAL298     -0.2867
    188  CB         8.7250  120.3780   83.1040 C.3   298  VAL298      0.0252
    189  CG1       10.1520  120.0770   82.6770 C.3   298  VAL298      0.0019
    190  CG2        8.1530  121.5180   82.2780 C.3   298  VAL298      0.0019
@<TRIPOS>BOND
     1   111   110    1
     2   110   109    1
     3   126   125   ar
     4   109   108    1
     5   127   125   ar
     6   125   124    1
     7   128   129    1
     8   135   137   ar
     9   135   133   ar
    10   108   107    1
    11   121   120    1
    12   121   122    2
    13   137   138   ar
    14   129   132    1
    15   129   130    1
    16   120   123    1
    17   120   119    1
    18   132   133    1
    19   123   124    1
    20   115   114    2
    21   133   134   ar
    22   107   104    1
    23   138   139    1
    24   138   136   ar
    25   119   114   am
    26   114   113    1
    27    49    48    1
    28   130   140   am
    29   130   131    2
    30   134   136   ar
    31   140   141    1
    32    46    48   ar
    33    46    44   ar
    34   106   105    2
    35    64    63    1
    36   104   105    1
    37   104   103    1
    38    48    47   ar
    39   105   112   am
    40   103    97   am
    41   112   113    1
    42   112   118    1
    43   113   116    1
    44    62    61    1
    45    62    63    1
    46    61    58    1
    47    44    43   ar
    48   142   141    1
    49   142   143    2
    50   118   117    1
    51   141   144    1
    52   117   116    1
    53    95    96    1
    54    47    45   ar
    55    97    96    1
    56    97    98    2
    57    96    99    1
    58   144   145    1
    59    57    58    1
    60    58    59    1
    61   151   152    1
    62    43    45   ar
    63    43    42    1
    64   163   165   ar
    65   163   161   ar
    66   145   147   ar
    67   145   146   ar
    68   160   161    1
    69   160   157    1
    70    26    23    1
    71    70    69    1
    72   147   149   ar
    73   165   166   ar
    74   146   148   ar
    75    59    65   am
    76    59    60    2
    77   161   162   ar
    78    42    39    1
    79   156   157    1
    80   156   153   am
    81    65    66    1
    82   158   157    1
    83   158   159    2
    84    39    40    1
    85    39    38    1
    86    99   100    1
    87    99   101    1
    88    41    40    2
    89   152   153    1
    90   152   155    1
    91   149   150   ar
    92   148   150   ar
    93   100   102    1
    94    23    24    1
    95    23    22    1
    96    25    24    2
    97   153   154    2
    98    40    50   am
    99   166   167    1
   100   166   164   ar
   101    69    66    1
   102    66    67    1
   103   162   164   ar
   104    24    27   am
   105    14    15    1
   106    14    13    1
   107    16    15    1
   108    50    51    1
   109    27    28    1
   110     9    10    1
   111    10    13    1
   112    10    11    1
   113    67    68    2
   114    52    51    1
   115    52    53    2
   116    72    71    1
   117    72    73    1
   118    51    54    1
   119    28    29    1
   120    28    31    1
   121   168   169    1
   122    12    11    2
   123   190   188    1
   124    11    17   am
   125    30    29    2
   126   189   188    1
   127   185   188    1
   128   185   184    1
   129   185   186    1
   130    31    32    1
   131   169   172    1
   132   169   170    1
   133   172   173    1
   134   170   171    2
   135     1     2    1
   136    73    75   am
   137    73    74    2
   138   182   181    1
   139    33    32   ar
   140    33    35   ar
   141    54    56    1
   142    54    55    1
   143    17    18    1
   144   187   186    2
   145    75    76    1
   146   175   173    1
   147    32    34   ar
   148    19    20    2
   149    19    18    1
   150    86    84    1
   151    94    92    1
   152   173   174    1
   153    92    91    1
   154    35    37   ar
   155     2     3    1
   156     2     5    1
   157    85    84    1
   158    84    81    1
   159     3     4    2
   160    18    21    1
   161   179   178    2
   162   181   183    1
   163   181   180    1
   164    76    79    1
   165    76    77    1
   166   177   180    1
   167   177   178    1
   168   177   176    1
   169    34    36   ar
   170     8     6    1
   171    37    36   ar
   172     6     5    1
   173     6     7    1
   174    91    93    1
   175    91    88    1
   176    81    80    1
   177    81    82    1
   178    87    82   am
   179    87    88    1
   180    77    78    2
   181    82    83    2
   182    88    89    1
   183    89    90    2
