@<TRIPOS>MOLECULE
tmp/4u3fC10.pdb
 91 85 0 0 0
SMALL
GASTEIGER

@<TRIPOS>ATOM
      1  N         48.1400  107.3900   74.6690 N.3     5  ARG5       -0.1245
      2  CA        46.7530  107.7890   74.4940 C.3     5  ARG5        0.1563
      3  C         45.8780  106.9980   75.4560 C.2     5  ARG5        0.2260
      4  O         44.8540  107.4880   75.9310 O.2     5  ARG5       -0.2867
      5  CB        46.2950  107.5750   73.0520 C.3     5  ARG5        0.0307
      6  CG        44.9510  108.2090   72.7400 C.3     5  ARG5        0.0489
      7  CD        44.5410  107.9790   71.2960 C.3     5  ARG5        0.2205
      8  NE        43.9450  106.6610   71.0930 N.pl3   5  ARG5       -0.0865
      9  CZ        44.6050  105.5970   70.6480 C.cat   5  ARG5        0.5346
     10  NH1       45.8950  105.6850   70.3540 N.pl3   5  ARG5        0.1354
     11  NH2       43.9720  104.4420   70.4950 N.pl3   5  ARG5        0.1354
     12  N         35.6260  110.1170   73.0900 N.3    18  LEU18      -0.1231
     13  CA        35.5320  110.7140   71.7610 C.3    18  LEU18       0.1693
     14  C         36.4220  110.0450   70.7120 C.2    18  LEU18       0.2591
     15  O         36.5250  110.5320   69.5870 O.2    18  LEU18      -0.2718
     16  CB        35.8760  112.2070   71.8300 C.3    18  LEU18       0.0284
     17  CG        34.9280  113.1280   72.6030 C.3    18  LEU18       0.0019
     18  CD1       35.4050  114.5710   72.5290 C.3    18  LEU18       0.0001
     19  CD2       33.5070  113.0070   72.0780 C.3    18  LEU18       0.0001
     20  N         37.0680  108.9390   71.0720 N.am   19  ILE19      -0.1980
     21  CA        37.9770  108.2650   70.1440 C.3    19  ILE19       0.1595
     22  C         37.7420  106.7520   70.0710 C.2    19  ILE19       0.2287
     23  O         37.2710  106.2430   69.0540 O.2    19  ILE19      -0.2864
     24  CB        39.4560  108.5210   70.5190 C.3    19  ILE19       0.0276
     25  CG1       39.7450  110.0230   70.6080 C.3    19  ILE19       0.0022
     26  CG2       40.3860  107.8680   69.5070 C.3    19  ILE19       0.0022
     27  CD1       41.1790  110.3490   70.9630 C.3    19  ILE19       0.0001
     28  N         25.3840  115.6240   70.8350 N.3    35  SER35      -0.1217
     29  CA        26.6060  116.3890   70.6150 C.3    35  SER35       0.1889
     30  C         26.2880  117.8130   70.1760 C.2    35  SER35       0.2288
     31  O         27.1100  118.7160   70.3290 O.2    35  SER35      -0.2866
     32  CB        27.4920  115.7000   69.5760 C.3    35  SER35       0.2089
     33  OG        26.8150  115.5610   68.3390 O.3    35  SER35      -0.2183
     34  N         27.7960  121.2290   71.9610 N.3    39  VAL39      -0.1245
     35  CA        28.4140  122.3420   71.2510 C.3    39  VAL39       0.1561
     36  C         27.6020  123.6190   71.4510 C.2    39  VAL39       0.2260
     37  O         28.1620  124.7010   71.6360 O.2    39  VAL39      -0.2867
     38  CB        28.5540  122.0430   69.7440 C.3    39  VAL39       0.0252
     39  CG1       29.0940  123.2570   69.0010 C.3    39  VAL39       0.0019
     40  CG2       29.4580  120.8370   69.5260 C.3    39  VAL39       0.0019
     41  N         33.8190  105.4130   68.0570 N.3   220  PHE220     -0.1227
     42  CA        33.1910  106.7220   67.8980 C.3   220  PHE220      0.1736
     43  C         33.8550  107.5000   66.7730 C.2   220  PHE220      0.2595
     44  O         33.1880  108.0150   65.8760 O.2   220  PHE220     -0.2718
     45  CB        33.2640  107.5140   69.2050 C.3   220  PHE220      0.0547
     46  CG        32.6700  108.8910   69.1150 C.ar  220  PHE220     -0.0202
     47  CD1       31.3030  109.0770   69.2320 C.ar  220  PHE220     -0.0042
     48  CD2       33.4780  109.9990   68.9210 C.ar  220  PHE220     -0.0042
     49  CE1       30.7530  110.3420   69.1510 C.ar  220  PHE220     -0.0003
     50  CE2       32.9330  111.2660   68.8400 C.ar  220  PHE220     -0.0003
     51  CZ        31.5690  111.4380   68.9550 C.ar  220  PHE220     -0.0000
     52  N         35.1780  107.5780   66.8330 N.am  221  HIS221     -0.1975
     53  CA        35.9630  108.1400   65.7460 C.3   221  HIS221      0.1656
     54  C         36.3730  107.0140   64.8030 C.2   221  HIS221      0.2291
     55  O         36.8360  105.9670   65.2540 O.2   221  HIS221     -0.2864
     56  CB        37.1910  108.8710   66.2920 C.3   221  HIS221      0.0771
     57  CG        38.0260  109.5270   65.2370 C.ar  221  HIS221      0.0820
     58  ND1       37.6080  110.6430   64.5450 N.ar  221  HIS221     -0.2267
     59  CD2       39.2550  109.2250   64.7570 C.ar  221  HIS221      0.1154
     60  CE1       38.5440  111.0000   63.6830 C.ar  221  HIS221      0.1986
     61  NE2       39.5540  110.1560   63.7920 N.ar  221  HIS221     -0.2212
     62  N         32.2420  110.8090   64.9250 N.3   225  SER225     -0.1217
     63  CA        32.9330  112.0880   64.9800 C.3   225  SER225      0.1889
     64  C         32.6200  112.8610   63.7040 C.2   225  SER225      0.2288
     65  O         32.4150  114.0710   63.7330 O.2   225  SER225     -0.2866
     66  CB        34.4390  111.8960   65.1430 C.3   225  SER225      0.2089
     67  OG        35.0080  111.3400   63.9750 O.3   225  SER225     -0.2183
     68  N         28.4840  113.5220   63.4870 N.3   228  ASP228     -0.1225
     69  CA        28.0430  114.6320   64.3260 C.3   228  ASP228      0.1805
     70  C         28.3370  115.9810   63.6760 C.2   228  ASP228      0.2597
     71  O         27.4820  116.8670   63.6580 O.2   228  ASP228     -0.2718
     72  CB        28.7100  114.5640   65.7010 C.3   228  ASP228      0.1424
     73  CG        28.1870  113.4220   66.5480 C.2   228  ASP228      0.3668
     74  OD1       28.5720  113.3380   67.7330 O.co2 228  ASP228     -0.2456
     75  OD2       27.3930  112.6070   66.0330 O.co2 228  ASP228     -0.2456
     76  N         29.5500  116.1320   63.1530 N.am  229  ILE229     -0.1980
     77  CA        29.9580  117.3730   62.5030 C.3   229  ILE229      0.1595
     78  C         29.0650  117.6660   61.3020 C.2   229  ILE229      0.2287
     79  O         28.6990  118.8170   61.0550 O.2   229  ILE229     -0.2864
     80  CB        31.4310  117.3190   62.0530 C.3   229  ILE229      0.0276
     81  CG1       32.3500  117.1410   63.2610 C.3   229  ILE229      0.0022
     82  CG2       31.8150  118.5880   61.3170 C.3   229  ILE229      0.0022
     83  CD1       33.8120  116.9970   62.8980 C.3   229  ILE229      0.0001
     84  N         25.9450  118.8190   62.5830 N.3   232  LEU232     -0.1245
     85  CA        26.1400  120.1690   63.0970 C.3   232  LEU232      0.1561
     86  C         25.8840  121.2040   62.0080 C.2   232  LEU232      0.2260
     87  O         25.0050  122.0560   62.1450 O.2   232  LEU232     -0.2867
     88  CB        27.5520  120.3380   63.6600 C.3   232  LEU232      0.0270
     89  CG        27.9520  121.7580   64.0710 C.3   232  LEU232      0.0019
     90  CD1       27.0880  122.2530   65.2200 C.3   232  LEU232      0.0001
     91  CD2       29.4260  121.8200   64.4380 C.3   232  LEU232      0.0001
@<TRIPOS>BOND
     1    79    78    2
     2    78    77    1
     3    82    80    1
     4    86    87    2
     5    86    85    1
     6    80    77    1
     7    80    81    1
     8    77    76    1
     9    84    85    1
    10    83    81    1
    11    85    88    1
    12    76    70   am
    13    68    69    1
    14    71    70    2
    15    88    89    1
    16    70    69    1
    17    60    61   ar
    18    60    58   ar
    19    64    65    2
    20    64    63    1
    21    61    59   ar
    22    67    66    1
    23    89    91    1
    24    89    90    1
    25    69    72    1
    26    58    57   ar
    27    59    57   ar
    28    54    55    2
    29    54    53    1
    30    62    63    1
    31    63    66    1
    32    57    56    1
    33    72    73    1
    34    53    56    1
    35    53    52    1
    36    44    43    2
    37    75    73   ar
    38    73    74   ar
    39    43    52   am
    40    43    42    1
    41    42    41    1
    42    42    45    1
    43    33    32    1
    44    50    48   ar
    45    50    51   ar
    46    48    46   ar
    47    51    49   ar
    48    39    38    1
    49    23    22    2
    50    46    45    1
    51    46    47   ar
    52    49    47   ar
    53    26    24    1
    54    40    38    1
    55    32    29    1
    56    15    14    2
    57    38    35    1
    58    22    21    1
    59    21    24    1
    60    21    20    1
    61    30    31    2
    62    30    29    1
    63    10     9    1
    64    11     9    1
    65    24    25    1
    66    25    27    1
    67    29    28    1
    68     9     8    2
    69    14    20   am
    70    14    13    1
    71     8     7    1
    72    35    36    1
    73    35    34    1
    74     7     6    1
    75    36    37    2
    76    13    16    1
    77    13    12    1
    78    16    17    1
    79    19    17    1
    80    18    17    1
    81     6     5    1
    82     5     2    1
    83     2     1    1
    84     2     3    1
    85     3     4    2
