@<TRIPOS>MOLECULE
tmp/4u3fC09.pdb
 209 199 0 0 0
SMALL
GASTEIGER

@<TRIPOS>ATOM
      1  N         16.9380  117.0920   84.8250 N.3   118  ILE118     -0.1245
      2  CA        17.5540  118.1490   85.6150 C.3   118  ILE118      0.1561
      3  C         18.2600  119.1580   84.7090 C.2   118  ILE118      0.2260
      4  O         18.1830  120.3680   84.9320 O.2   118  ILE118     -0.2867
      5  CB        18.5470  117.5620   86.6370 C.3   118  ILE118      0.0252
      6  CG1       17.7910  116.7680   87.7050 C.3   118  ILE118      0.0019
      7  CG2       19.3860  118.6560   87.2760 C.3   118  ILE118      0.0019
      8  CD1       18.6910  115.9630   88.6130 C.3   118  ILE118      0.0001
      9  N         15.5650  121.3030   83.2200 N.3   121  LEU121     -0.1231
     10  CA        15.0390  122.2380   84.2060 C.3   121  LEU121      0.1693
     11  C         15.9880  123.4090   84.4460 C.2   121  LEU121      0.2592
     12  O         15.5500  124.5450   84.6260 O.2   121  LEU121     -0.2718
     13  CB        14.7550  121.5140   85.5230 C.3   121  LEU121      0.0284
     14  CG        13.5380  120.5880   85.5060 C.3   121  LEU121      0.0019
     15  CD1       13.4470  119.7860   86.7920 C.3   121  LEU121      0.0001
     16  CD2       12.2770  121.4050   85.2960 C.3   121  LEU121      0.0001
     17  N         17.2860  123.1270   84.4430 N.am  122  THR122     -0.1953
     18  CA        18.2900  124.1670   84.6280 C.3   122  THR122      0.1897
     19  C         18.3510  125.0680   83.3990 C.2   122  THR122      0.2313
     20  O         18.5640  126.2750   83.5120 O.2   122  THR122     -0.2863
     21  CB        19.6820  123.5680   84.8990 C.3   122  THR122      0.1794
     22  OG1       19.5760  122.5360   85.8860 O.3   122  THR122     -0.2208
     23  CG2       20.6380  124.6430   85.3970 C.3   122  THR122      0.0378
     24  N         15.3860  127.4600   83.4770 N.3   125  ALA125     -0.1245
     25  CA        15.6620  128.5010   84.4600 C.3   125  ALA125      0.1562
     26  C         16.7020  129.4830   83.9340 C.2   125  ALA125      0.2260
     27  O         16.6340  130.6810   84.2050 O.2   125  ALA125     -0.2867
     28  CB        16.1290  127.8830   85.7670 C.3   125  ALA125      0.0290
     29  N         15.1310  131.6550   81.3320 N.3   128  PHE128     -0.1227
     30  CA        14.1200  132.4840   81.9860 C.3   128  PHE128      0.1736
     31  C         14.7200  133.7600   82.5630 C.2   128  PHE128      0.2595
     32  O         14.1590  134.8450   82.4080 O.2   128  PHE128     -0.2718
     33  CB        13.4150  131.6930   83.0950 C.3   128  PHE128      0.0547
     34  CG        12.4310  132.5040   83.8970 C.ar  128  PHE128     -0.0202
     35  CD1       11.1480  132.7260   83.4240 C.ar  128  PHE128     -0.0042
     36  CD2       12.7840  133.0280   85.1320 C.ar  128  PHE128     -0.0042
     37  CE1       10.2390  133.4640   84.1620 C.ar  128  PHE128     -0.0003
     38  CE2       11.8780  133.7680   85.8730 C.ar  128  PHE128     -0.0003
     39  CZ        10.6050  133.9850   85.3880 C.ar  128  PHE128     -0.0000
     40  N         15.8580  133.6220   83.2340 N.am  129  VAL129     -0.1980
     41  CA        16.5070  134.7540   83.8860 C.3   129  VAL129      0.1595
     42  C         17.3050  135.5930   82.8950 C.2   129  VAL129      0.2287
     43  O         17.5620  136.7720   83.1340 O.2   129  VAL129     -0.2864
     44  CB        17.4420  134.2900   85.0200 C.3   129  VAL129      0.0276
     45  CG1       16.6320  133.6990   86.1620 C.3   129  VAL129      0.0022
     46  CG2       18.4520  133.2830   84.4990 C.3   129  VAL129      0.0022
     47  N          5.1560  135.4270   86.0350 N.3   146  ILE146     -0.1231
     48  CA         5.6120  134.0980   86.4340 C.3   146  ILE146      0.1692
     49  C          5.9730  134.0040   87.9180 C.2   146  ILE146      0.2592
     50  O          5.5280  133.0870   88.6100 O.2   146  ILE146     -0.2718
     51  CB         6.8250  133.6560   85.5960 C.3   146  ILE146      0.0266
     52  CG1        6.4070  133.4580   84.1380 C.3   146  ILE146      0.0019
     53  CG2        7.4200  132.3700   86.1480 C.3   146  ILE146      0.0020
     54  CD1        5.2890  132.4540   83.9600 C.3   146  ILE146      0.0001
     55  N          6.7750  134.9450   88.4070 N.am  147  THR147     -0.1953
     56  CA         7.2090  134.9190   89.8020 C.3   147  THR147      0.1897
     57  C          6.0690  135.2200   90.7720 C.2   147  THR147      0.2313
     58  O          6.0790  134.7550   91.9110 O.2   147  THR147     -0.2863
     59  CB         8.3510  135.9210   90.0610 C.3   147  THR147      0.1794
     60  OG1        7.9110  137.2460   89.7430 O.3   147  THR147     -0.2208
     61  CG2        9.5680  135.5730   89.2200 C.3   147  THR147      0.0378
     62  N          4.1200  132.3160   92.7070 N.3   150  PHE150     -0.1241
     63  CA         4.5900  131.6550   93.9240 C.3   150  PHE150      0.1605
     64  C          3.8110  132.1100   95.1550 C.2   150  PHE150      0.2264
     65  O          3.8400  131.4530   96.1960 O.2   150  PHE150     -0.2867
     66  CB         6.0840  131.9150   94.1430 C.3   150  PHE150      0.0534
     67  CG         6.9610  131.4540   93.0120 C.ar  150  PHE150     -0.0203
     68  CD1        8.2360  131.9740   92.8580 C.ar  150  PHE150     -0.0042
     69  CD2        6.5200  130.5010   92.1100 C.ar  150  PHE150     -0.0042
     70  CE1        9.0490  131.5570   91.8230 C.ar  150  PHE150     -0.0003
     71  CE2        7.3280  130.0820   91.0730 C.ar  150  PHE150     -0.0003
     72  CZ         8.5940  130.6100   90.9300 C.ar  150  PHE150     -0.0000
     73  N         11.0050  137.6050   98.8780 N.3   163  TRP163     -0.1227
     74  CA        12.3970  137.2480   99.1130 C.3   163  TRP163      0.1737
     75  C         13.1380  137.1170   97.7880 C.2   163  TRP163      0.2595
     76  O         14.2300  137.6620   97.6200 O.2   163  TRP163     -0.2718
     77  CB        12.4970  135.9440   99.9050 C.3   163  TRP163      0.0564
     78  CG        13.9050  135.4810  100.1140 C.ar  163  TRP163      0.0003
     79  CD1       14.8090  135.9870  101.0010 C.ar  163  TRP163      0.0946
     80  CD2       14.5720  134.4160   99.4230 C.ar  163  TRP163      0.0152
     81  NE1       15.9980  135.3050  100.9050 N.ar  163  TRP163     -0.2442
     82  CE2       15.8790  134.3370   99.9450 C.ar  163  TRP163      0.0810
     83  CE3       14.1920  133.5250   98.4150 C.ar  163  TRP163      0.0012
     84  CZ2       16.8070  133.4000   99.4920 C.ar  163  TRP163      0.0191
     85  CZ3       15.1160  132.5960   97.9670 C.ar  163  TRP163      0.0001
     86  CH2       16.4070  132.5410   98.5060 C.ar  163  TRP163      0.0015
     87  N         12.5340  136.3950   96.8490 N.am  164  ALA164     -0.1980
     88  CA        13.1210  136.1960   95.5280 C.3   164  ALA164      0.1597
     89  C         13.2500  137.5170   94.7800 C.2   164  ALA164      0.2287
     90  O         14.1970  137.7230   94.0210 O.2   164  ALA164     -0.2864
     91  CB        12.2890  135.2110   94.7240 C.3   164  ALA164      0.0319
     92  N         20.4210  140.1200   90.6690 N.3   177  ARG177     -0.1231
     93  CA        20.5240  138.7380   91.1180 C.3   177  ARG177      0.1694
     94  C         20.1670  137.7690   89.9950 C.2   177  ARG177      0.2592
     95  O         20.6170  136.6220   89.9900 O.2   177  ARG177     -0.2718
     96  CB        19.6310  138.4890   92.3340 C.3   177  ARG177      0.0321
     97  CG        18.1410  138.4740   92.0460 C.3   177  ARG177      0.0489
     98  CD        17.3560  138.2780   93.3270 C.3   177  ARG177      0.2205
     99  NE        17.6410  139.3350   94.2910 N.pl3 177  ARG177     -0.0865
    100  CZ        17.2330  139.3250   95.5550 C.cat 177  ARG177      0.5346
    101  NH1       16.5220  138.3060   96.0160 N.pl3 177  ARG177      0.1354
    102  NH2       17.5400  140.3330   96.3600 N.pl3 177  ARG177      0.1354
    103  N         19.3640  138.2300   89.0410 N.am  178  PHE178     -0.1976
    104  CA        19.0280  137.4130   87.8800 C.3   178  PHE178      0.1639
    105  C         20.2140  137.3300   86.9280 C.2   178  PHE178      0.2290
    106  O         20.4370  136.3000   86.2930 O.2   178  PHE178     -0.2864
    107  CB        17.8020  137.9690   87.1530 C.3   178  PHE178      0.0560
    108  CG        16.4950  137.4410   87.6750 C.ar  178  PHE178     -0.0200
    109  CD1       16.4310  136.7970   88.8980 C.ar  178  PHE178     -0.0042
    110  CD2       15.3330  137.5730   86.9310 C.ar  178  PHE178     -0.0042
    111  CE1       15.2300  136.3080   89.3780 C.ar  178  PHE178     -0.0003
    112  CE2       14.1310  137.0840   87.4040 C.ar  178  PHE178     -0.0003
    113  CZ        14.0790  136.4510   88.6280 C.ar  178  PHE178     -0.0000
    114  N         22.5490  134.9990   88.4820 N.3   181  LEU181     -0.1245
    115  CA        22.0040  133.6590   88.3060 C.3   181  LEU181      0.1561
    116  C         22.1850  133.1790   86.8670 C.2   181  LEU181      0.2260
    117  O         22.4910  132.0100   86.6290 O.2   181  LEU181     -0.2867
    118  CB        20.5230  133.6290   88.6940 C.3   181  LEU181      0.0270
    119  CG        20.1430  132.7380   89.8780 C.3   181  LEU181      0.0019
    120  CD1       18.6560  132.8480   90.1780 C.3   181  LEU181      0.0001
    121  CD2       20.5300  131.2960   89.6030 C.3   181  LEU181      0.0001
    122  N         25.7610  132.2210   86.3470 N.3   184  LEU184     -0.1231
    123  CA        26.1460  131.0220   87.0860 C.3   184  LEU184      0.1693
    124  C         25.6320  129.7180   86.4750 C.2   184  LEU184      0.2591
    125  O         26.4100  128.7970   86.2240 O.2   184  LEU184     -0.2718
    126  CB        25.6510  131.1300   88.5300 C.3   184  LEU184      0.0284
    127  CG        25.7820  129.8820   89.4040 C.3   184  LEU184      0.0019
    128  CD1       27.2420  129.5520   89.6520 C.3   184  LEU184      0.0001
    129  CD2       25.0430  130.0730   90.7170 C.3   184  LEU184      0.0001
    130  N         24.3240  129.6500   86.2430 N.am  185  LEU185     -0.1980
    131  CA        23.6500  128.4070   85.8510 C.3   185  LEU185      0.1596
    132  C         24.2450  127.6160   84.6710 C.2   185  LEU185      0.2287
    133  O         24.2840  126.3880   84.7330 O.2   185  LEU185     -0.2864
    134  CB        22.1750  128.6960   85.5530 C.3   185  LEU185      0.0297
    135  CG        21.2860  128.9610   86.7670 C.3   185  LEU185      0.0022
    136  CD1       19.8180  128.7790   86.4120 C.3   185  LEU185      0.0001
    137  CD2       21.6870  128.0460   87.9040 C.3   185  LEU185      0.0001
    138  N         27.1840  127.0460   83.8940 N.3   187  PHE187     -0.1227
    139  CA        28.3290  126.2750   84.3630 C.3   187  PHE187      0.1736
    140  C         27.8640  125.0420   85.1300 C.2   187  PHE187      0.2595
    141  O         28.5670  124.0310   85.1930 O.2   187  PHE187     -0.2718
    142  CB        29.2390  127.1410   85.2360 C.3   187  PHE187      0.0547
    143  CG        29.8330  128.3150   84.5110 C.ar  187  PHE187     -0.0202
    144  CD1       29.3840  129.6010   84.7580 C.ar  187  PHE187     -0.0042
    145  CD2       30.8350  128.1300   83.5730 C.ar  187  PHE187     -0.0042
    146  CE1       29.9290  130.6830   84.0890 C.ar  187  PHE187     -0.0003
    147  CE2       31.3820  129.2060   82.9000 C.ar  187  PHE187     -0.0003
    148  CZ        30.9270  130.4840   83.1590 C.ar  187  PHE187     -0.0000
    149  N         26.6750  125.1390   85.7150 N.am  188  ALA188     -0.1980
    150  CA        26.0370  123.9930   86.3470 C.3   188  ALA188      0.1597
    151  C         25.5840  123.0120   85.2740 C.2   188  ALA188      0.2287
    152  O         25.7180  121.7990   85.4320 O.2   188  ALA188     -0.2864
    153  CB        24.8630  124.4370   87.2050 C.3   188  ALA188      0.0319
    154  N         28.5410  121.1370   84.1500 N.3   191  GLY191     -0.1210
    155  CA        28.9380  120.1290   85.1170 C.3   191  GLY191      0.1956
    156  C         28.0430  118.9050   85.1120 C.2   191  GLY191      0.2611
    157  O         28.5280  117.7740   85.0720 O.2   191  GLY191     -0.2717
    158  N         26.7330  119.1320   85.1540 N.am  192  ILE192     -0.1979
    159  CA        25.7620  118.0430   85.1490 C.3   192  ILE192      0.1595
    160  C         25.8320  117.2590   83.8350 C.2   192  ILE192      0.2287
    161  O         25.5770  116.0540   83.8100 O.2   192  ILE192     -0.2864
    162  CB        24.3280  118.5740   85.3800 C.3   192  ILE192      0.0276
    163  CG1       24.2540  119.3370   86.7030 C.3   192  ILE192      0.0022
    164  CG2       23.3170  117.4380   85.3860 C.3   192  ILE192      0.0022
    165  CD1       22.8980  119.9400   86.9860 C.3   192  ILE192      0.0001
    166  N         28.5480  116.5110   82.2970 N.3   194  ILE194     -0.1231
    167  CA        29.6340  115.5590   82.5010 C.3   194  ILE194      0.1692
    168  C         29.1400  114.3550   83.3010 C.2   194  ILE194      0.2591
    169  O         29.5610  113.2230   83.0650 O.2   194  ILE194     -0.2718
    170  CB        30.8290  116.2140   83.2240 C.3   194  ILE194      0.0266
    171  CG1       31.1890  117.5480   82.5630 C.3   194  ILE194      0.0019
    172  CG2       32.0280  115.2790   83.2370 C.3   194  ILE194      0.0020
    173  CD1       31.5540  117.4310   81.0950 C.3   194  ILE194      0.0001
    174  N         28.2370  114.6100   84.2410 N.am  195  ILE195     -0.1980
    175  CA        27.5880  113.5420   84.9910 C.3   195  ILE195      0.1595
    176  C         26.6020  112.8010   84.0910 C.2   195  ILE195      0.2287
    177  O         26.5060  111.5720   84.1330 O.2   195  ILE195     -0.2864
    178  CB        26.8610  114.0920   86.2360 C.3   195  ILE195      0.0276
    179  CG1       27.8820  114.6280   87.2430 C.3   195  ILE195      0.0022
    180  CG2       25.9920  113.0220   86.8790 C.3   195  ILE195      0.0022
    181  CD1       27.2930  114.9810   88.5890 C.3   195  ILE195      0.0001
    182  N         -0.0650  126.6110   88.8500 N.3   291  VAL291     -0.1245
    183  CA         1.3540  126.4660   89.1630 C.3   291  VAL291      0.1561
    184  C          1.7530  124.9960   89.1900 C.2   291  VAL291      0.2260
    185  O          2.7730  124.6050   88.6180 O.2   291  VAL291     -0.2867
    186  CB         1.7050  127.1060   90.5200 C.3   291  VAL291      0.0252
    187  CG1        3.1570  126.8310   90.8850 C.3   291  VAL291      0.0019
    188  CG2        1.4370  128.5970   90.4860 C.3   291  VAL291      0.0019
    189  N          1.6750  123.5060   85.8140 N.3   294  LEU294     -0.1231
    190  CA         2.8610  123.9660   85.1070 C.3   294  LEU294      0.1693
    191  C          4.0700  123.1270   85.4950 C.2   294  LEU294      0.2591
    192  O          4.8120  122.6520   84.6350 O.2   294  LEU294     -0.2718
    193  CB         3.1250  125.4440   85.4020 C.3   294  LEU294      0.0284
    194  CG         4.4490  126.0140   84.8900 C.3   294  LEU294      0.0019
    195  CD1        4.5560  125.8400   83.3880 C.3   294  LEU294      0.0001
    196  CD2        4.5850  127.4790   85.2680 C.3   294  LEU294      0.0001
    197  N          4.2610  122.9490   86.7980 N.am  295  ALA295     -0.1980
    198  CA         5.3770  122.1640   87.3060 C.3   295  ALA295      0.1597
    199  C          5.2550  120.7060   86.8800 C.2   295  ALA295      0.2287
    200  O          6.2470  120.0640   86.5400 O.2   295  ALA295     -0.2864
    201  CB         5.4540  122.2700   88.8190 C.3   295  ALA295      0.0319
    202  N          7.9020  118.0540   85.1500 N.3   299  LEU299     -0.1245
    203  CA         8.3180  117.0660   86.1430 C.3   299  LEU299      0.1561
    204  C          7.7730  115.6740   85.8350 C.2   299  LEU299      0.2260
    205  O          8.1940  114.6870   86.4410 O.2   299  LEU299     -0.2867
    206  CB         7.8710  117.4930   87.5430 C.3   299  LEU299      0.0270
    207  CG         8.6630  118.6160   88.2120 C.3   299  LEU299      0.0019
    208  CD1        8.0370  118.9800   89.5470 C.3   299  LEU299      0.0001
    209  CD2       10.1120  118.2000   88.3940 C.3   299  LEU299      0.0001
@<TRIPOS>BOND
     1   173   171    1
     2    29    30    1
     3    30    31    1
     4    30    33    1
     5   166   167    1
     6    32    31    2
     7   167   170    1
     8   167   168    1
     9   171   170    1
    10    31    40   am
    11    42    43    2
    12    42    41    1
    13   147   148   ar
    14   147   145   ar
    15   169   168    2
    16    33    34    1
    17   148   146   ar
    18     9    10    1
    19   170   172    1
    20    40    41    1
    21   168   174   am
    22   195   194    1
    23    19    20    2
    24    19    18    1
    25    35    34   ar
    26    35    37   ar
    27    24    25    1
    28   145   143   ar
    29   161   160    2
    30   160   159    1
    31    41    44    1
    32   138   139    1
    33    34    36   ar
    34    26    27    2
    35    26    25    1
    36    54    52    1
    37   146   144   ar
    38   176   177    2
    39   176   175    1
    40    52    51    1
    41   154   155    1
    42    37    39   ar
    43    10    11    1
    44    10    13    1
    45   174   175    1
    46   139   140    1
    47   139   142    1
    48    17    11   am
    49    17    18    1
    50    11    12    2
    51    25    28    1
    52    46    44    1
    53   143   144   ar
    54   143   142    1
    55    18    21    1
    56   192   191    2
    57   132   133    2
    58   132   131    1
    59     3     4    2
    60     3     2    1
    61     1     2    1
    62   194   196    1
    63   194   193    1
    64    21    23    1
    65    21    22    1
    66   175   178    1
    67    44    45    1
    68   157   156    2
    69   190   193    1
    70   190   191    1
    71   190   189    1
    72   156   155    1
    73   156   158   am
    74   140   141    2
    75   140   149   am
    76    36    38   ar
    77   159   158    1
    78   159   162    1
    79   202   203    1
    80   151   152    2
    81   151   150    1
    82    16    14    1
    83   162   164    1
    84   162   163    1
    85    39    38   ar
    86   191   197   am
    87    14    13    1
    88    14    15    1
    89   134   131    1
    90   134   135    1
    91    51    53    1
    92    51    48    1
    93     2     5    1
    94   149   150    1
    95   204   203    1
    96   204   205    2
    97   131   130    1
    98    47    48    1
    99   203   206    1
   100   125   124    2
   101   178   180    1
   102   178   179    1
   103   130   124   am
   104   106   105    2
   105   150   153    1
   106   122   123    1
   107   136   135    1
   108    48    49    1
   109   124   123    1
   110   200   199    2
   111   117   116    2
   112     5     7    1
   113     5     6    1
   114   163   165    1
   115   135   137    1
   116   197   198    1
   117   116   115    1
   118   199   198    1
   119   105   104    1
   120   110   112   ar
   121   110   108   ar
   122   123   126    1
   123   107   108    1
   124   107   104    1
   125   179   181    1
   126   198   201    1
   127   112   113   ar
   128   206   207    1
   129   108   109   ar
   130     6     8    1
   131   104   103    1
   132    49    55   am
   133    49    50    2
   134   207   209    1
   135   207   208    1
   136   115   114    1
   137   115   118    1
   138    55    56    1
   139   126   127    1
   140   185   184    2
   141   113   111   ar
   142   118   119    1
   143   182   183    1
   144   109   111   ar
   145   103    94   am
   146   183   184    1
   147   183   186    1
   148    61    59    1
   149   127   128    1
   150   127   129    1
   151   121   119    1
   152    60    59    1
   153    56    59    1
   154    56    57    1
   155   119   120    1
   156    95    94    2
   157    94    93    1
   158   188   186    1
   159   186   187    1
   160    92    93    1
   161    57    58    2
   162    72    71   ar
   163    72    70   ar
   164    71    69   ar
   165    93    96    1
   166    70    68   ar
   167    97    96    1
   168    97    98    1
   169    69    67   ar
   170    62    63    1
   171    68    67   ar
   172    67    66    1
   173    98    99    1
   174    63    66    1
   175    63    64    1
   176    90    89    2
   177    99   100    2
   178    91    88    1
   179    89    88    1
   180    64    65    2
   181    88    87    1
   182   100   101    1
   183   100   102    1
   184    87    75   am
   185    76    75    2
   186    75    74    1
   187    85    83   ar
   188    85    86   ar
   189    83    80   ar
   190    86    84   ar
   191    73    74    1
   192    74    77    1
   193    80    82   ar
   194    80    78   ar
   195    84    82   ar
   196    77    78    1
   197    82    81   ar
   198    78    79   ar
   199    81    79   ar
