@<TRIPOS>MOLECULE
tmp/4u3jB00.pdb
 201 186 0 0 0
SMALL
GASTEIGER

@<TRIPOS>ATOM
      1  N        -63.9060  -64.0680   34.4360 N.3    10  GLY10      -0.1210
      2  CA       -63.6720  -65.1820   35.3340 C.3    10  GLY10       0.1956
      3  C        -64.8230  -65.4440   36.2850 C.2    10  GLY10       0.2612
      4  O        -65.7670  -64.6560   36.3650 O.2    10  GLY10      -0.2717
      5  N        -64.7410  -66.5610   37.0030 N.am   11  GLN11      -0.1965
      6  CA       -65.7560  -66.9340   37.9840 C.3    11  GLN11       0.1733
      7  C        -65.9560  -65.8300   39.0150 C.2    11  GLN11       0.2616
      8  O        -67.0830  -65.4050   39.2710 O.2    11  GLN11      -0.2715
      9  CB       -65.3650  -68.2400   38.6820 C.3    11  GLN11       0.0408
     10  CG       -66.3040  -68.6600   39.8060 C.3    11  GLN11       0.0908
     11  CD       -65.9750  -70.0350   40.3570 C.2    11  GLN11       0.2608
     12  OE1      -64.8130  -70.4420   40.3850 O.2    11  GLN11      -0.2717
     13  NE2      -67.0020  -70.7620   40.7910 N.am   11  GLN11      -0.0878
     14  N        -64.8550  -65.3730   39.6040 N.am   12  CYS12      -0.1968
     15  CA       -64.8950  -64.3000   40.5910 C.3    12  CYS12       0.1712
     16  C        -65.4720  -63.0280   39.9860 C.2    12  CYS12       0.2296
     17  O        -66.3900  -62.4260   40.5420 O.2    12  CYS12      -0.2864
     18  CB       -63.4940  -64.0240   41.1400 C.3    12  CYS12       0.0983
     19  SG       -63.4240  -62.7040   42.3670 S.3    12  CYS12      -0.0798
     20  N        -69.2520  -63.3320   39.3130 N.3    15  GLN15      -0.1231
     21  CA       -70.1010  -63.4170   40.4980 C.3    15  GLN15       0.1698
     22  C        -70.1240  -62.0870   41.2500 C.2    15  GLN15       0.2592
     23  O        -71.1480  -61.7020   41.8160 O.2    15  GLN15      -0.2718
     24  CB       -69.6280  -64.5450   41.4170 C.3    15  GLN15       0.0381
     25  CG       -69.9530  -65.9320   40.8810 C.3    15  GLN15       0.0905
     26  CD       -69.4790  -67.0460   41.7920 C.2    15  GLN15       0.2608
     27  OE1      -68.6090  -66.8450   42.6390 O.2    15  GLN15      -0.2717
     28  NE2      -70.0540  -68.2330   41.6220 N.am   15  GLN15      -0.0878
     29  N        -68.9920  -61.3900   41.2520 N.am   16  ILE16      -0.1980
     30  CA       -68.9150  -60.0590   41.8460 C.3    16  ILE16       0.1595
     31  C        -69.6170  -59.0520   40.9410 C.2    16  ILE16       0.2287
     32  O        -70.2850  -58.1340   41.4180 O.2    16  ILE16      -0.2864
     33  CB       -67.4470  -59.6330   42.0940 C.3    16  ILE16       0.0276
     34  CG1      -66.9900  -60.1560   43.4570 C.3    16  ILE16       0.0022
     35  CG2      -67.2810  -58.1050   42.0410 C.3    16  ILE16       0.0022
     36  CD1      -65.5200  -59.9420   43.7570 C.3    16  ILE16       0.0001
     37  N        -65.7170  -65.5520   30.2180 N.3    67  ASP67      -0.1239
     38  CA       -65.1310  -66.6450   30.9810 C.3    67  ASP67       0.1674
     39  C        -64.7120  -67.7650   30.0430 C.2    67  ASP67       0.2266
     40  O        -65.5050  -68.2380   29.2330 O.2    67  ASP67      -0.2867
     41  CB       -66.1170  -67.1750   32.0220 C.3    67  ASP67       0.1410
     42  CG       -65.4420  -68.0200   33.0880 C.2    67  ASP67       0.3668
     43  OD1      -64.2900  -68.4570   32.8710 O.co2  67  ASP67      -0.2456
     44  OD2      -66.0680  -68.2520   34.1460 O.co2  67  ASP67      -0.2456
     45  N        -64.2730  -70.7140   30.6320 N.3    69  GLU69      -0.1245
     46  CA       -65.0870  -71.8890   30.9270 C.3    69  GLU69       0.1567
     47  C        -66.5660  -71.4980   30.9780 C.2    69  GLU69       0.2260
     48  O        -66.9020  -70.4250   31.4800 O.2    69  GLU69      -0.2867
     49  CB       -64.6530  -72.5160   32.2530 C.3    69  GLU69       0.0388
     50  CG       -65.3040  -73.8580   32.5580 C.3    69  GLU69       0.1160
     51  CD       -64.8850  -74.4190   33.9030 C.2    69  GLU69       0.3649
     52  OE1      -64.0190  -73.8040   34.5610 O.co2  69  GLU69      -0.2457
     53  OE2      -65.4200  -75.4760   34.3000 O.co2  69  GLU69      -0.2457
     54  N        -60.5250  -74.2140   29.6770 N.3    96  SER96      -0.1202
     55  CA       -60.3930  -73.5310   30.9590 C.3    96  SER96       0.2020
     56  C        -58.9430  -73.1040   31.1560 C.2    96  SER96       0.2619
     57  O        -58.0280  -73.7330   30.6270 O.2    96  SER96      -0.2717
     58  CB       -60.8490  -74.4360   32.1060 C.3    96  SER96       0.2103
     59  OG       -60.7970  -73.7590   33.3500 O.3    96  SER96      -0.2182
     60  N        -58.7340  -72.0330   31.9140 N.am   97  ALA97      -0.1965
     61  CA       -57.3900  -71.5140   32.1390 C.3    97  ALA97       0.1728
     62  C        -56.6700  -72.2780   33.2460 C.2    97  ALA97       0.2617
     63  O        -55.5300  -71.9600   33.5730 O.2    97  ALA97      -0.2715
     64  CB       -57.4430  -70.0320   32.4730 C.3    97  ALA97       0.0334
     65  N        -57.3430  -73.2700   33.8250 N.am   98  GLY98      -0.1940
     66  CA       -56.7400  -74.1540   34.8100 C.3    98  GLY98       0.2014
     67  C        -55.9990  -73.4590   35.9390 C.2    98  GLY98       0.2638
     68  O        -55.0020  -73.9760   36.4420 O.2    98  GLY98      -0.2714
     69  N        -56.4890  -72.2880   36.3360 N.am   99  ASN99      -0.1972
     70  CA       -55.8970  -71.5190   37.4310 C.3    99  ASN99       0.1688
     71  C        -54.4230  -71.1570   37.2100 C.2    99  ASN99       0.2292
     72  O        -53.6980  -70.8960   38.1720 O.2    99  ASN99      -0.2864
     73  CB       -56.0450  -72.2830   38.7530 C.3    99  ASN99       0.1181
     74  CG       -57.4420  -72.1800   39.3350 C.2    99  ASN99       0.2629
     75  OD1      -58.3930  -71.8100   38.6460 O.2    99  ASN99      -0.2716
     76  ND2      -57.5700  -72.5060   40.6180 N.am   99  ASN99      -0.0877
     77  N        -60.6300  -61.5990   39.5680 N.3   138  SER138     -0.1217
     78  CA       -59.6940  -62.0690   40.5770 C.3   138  SER138      0.1889
     79  C        -58.2880  -62.0920   39.9960 C.2   138  SER138      0.2288
     80  O        -58.0950  -62.5170   38.8570 O.2   138  SER138     -0.2866
     81  CB       -60.0840  -63.4640   41.0620 C.3   138  SER138      0.2089
     82  OG       -58.9780  -64.1190   41.6540 O.3   138  SER138     -0.2183
     83  N        -56.0130  -63.8580   41.4540 N.3   140  GLY140     -0.1210
     84  CA       -55.4960  -65.1330   41.9190 C.3   140  GLY140      0.1956
     85  C        -55.7200  -66.2890   40.9610 C.2   140  GLY140      0.2612
     86  O        -54.9770  -67.2690   40.9870 O.2   140  GLY140     -0.2717
     87  N        -56.7400  -66.1800   40.1150 N.am  141  GLY141     -0.1942
     88  CA       -57.0990  -67.2640   39.2160 C.3   141  GLY141      0.2014
     89  C        -56.2480  -67.3130   37.9620 C.2   141  GLY141      0.2639
     90  O        -55.0920  -66.8900   37.9680 O.2   141  GLY141     -0.2714
     91  N        -56.8290  -67.8340   36.8840 N.am  142  GLY142     -0.1939
     92  CA       -56.1560  -67.9240   35.6000 C.3   142  GLY142      0.2014
     93  C        -56.8360  -67.0800   34.5400 C.2   142  GLY142      0.2640
     94  O        -56.1740  -66.3960   33.7580 O.2   142  GLY142     -0.2714
     95  N        -58.1640  -67.1290   34.5110 N.am  143  THR143     -0.1936
     96  CA       -58.9370  -66.3800   33.5270 C.3   143  THR143      0.2028
     97  C        -59.0150  -64.9020   33.8990 C.2   143  THR143      0.2642
     98  O        -58.5960  -64.0380   33.1290 O.2   143  THR143     -0.2714
     99  CB       -60.3670  -66.9350   33.3880 C.3   143  THR143      0.1808
    100  OG1      -60.3180  -68.3490   33.1610 O.3   143  THR143     -0.2208
    101  CG2      -61.1000  -66.2630   32.2330 C.3   143  THR143      0.0379
    102  N        -59.5590  -64.6160   35.0800 N.am  144  GLY144     -0.1954
    103  CA       -59.7170  -63.2480   35.5420 C.3   144  GLY144      0.1869
    104  C        -58.3990  -62.4990   35.5670 C.2   144  GLY144      0.2309
    105  O        -58.3090  -61.3550   35.1260 O.2   144  GLY144     -0.2863
    106  N        -59.6440  -58.5050   42.9850 N.3   169  VAL169     -0.1245
    107  CA       -59.6630  -59.2570   44.2330 C.3   169  VAL169      0.1561
    108  C        -58.3500  -60.0070   44.4280 C.2   169  VAL169      0.2260
    109  O        -58.0130  -60.8970   43.6470 O.2   169  VAL169     -0.2867
    110  CB       -60.8350  -60.2570   44.2650 C.3   169  VAL169      0.0252
    111  CG1      -60.8410  -61.0500   45.5710 C.3   169  VAL169      0.0019
    112  CG2      -62.1530  -59.5270   44.0870 C.3   169  VAL169      0.0019
    113  N        -55.8520  -62.6540   46.2480 N.3   171  PRO171     -0.2102
    114  CA       -56.0210  -63.9110   46.9840 C.3   171  PRO171      0.1504
    115  C        -55.3790  -63.8800   48.3680 C.2   171  PRO171      0.2576
    116  O        -54.3810  -63.1860   48.5690 O.2   171  PRO171     -0.2718
    117  CB       -55.3230  -64.9320   46.0870 C.3   171  PRO171      0.0282
    118  CG       -54.2670  -64.1470   45.3970 C.3   171  PRO171      0.0208
    119  CD       -54.8550  -62.7840   45.1690 C.3   171  PRO171      0.0893
    120  N        -55.9570  -64.6270   49.3040 N.am  172  SER172     -0.1953
    121  CA       -55.3990  -64.7700   50.6440 C.3   172  SER172      0.1924
    122  C        -54.8330  -66.1760   50.8130 C.2   172  SER172      0.2314
    123  O        -55.2290  -67.0930   50.0920 O.2   172  SER172     -0.2863
    124  CB       -56.4650  -64.4990   51.7080 C.3   172  SER172      0.2116
    125  OG       -57.3160  -65.6210   51.8780 O.3   172  SER172     -0.2180
    126  N        -55.3300  -69.0830   51.6290 N.3   174  LYS174     -0.1245
    127  CA       -56.4610  -69.9330   51.9780 C.3   174  LYS174      0.1561
    128  C        -57.0080  -70.6460   50.7430 C.2   174  LYS174      0.2260
    129  O        -57.0180  -70.0890   49.6430 O.2   174  LYS174     -0.2867
    130  CB       -57.5660  -69.1050   52.6400 C.3   174  LYS174      0.0271
    131  CG       -58.5410  -69.8980   53.4420 C.3   174  LYS174      0.0035
    132  CD       -59.6340  -68.9740   53.9490 C.3   174  LYS174      0.0206
    133  CE       -60.9630  -69.7110   54.1010 C.3   174  LYS174      0.1093
    134  NZ       -61.4640  -70.3260   52.8100 N.3   174  LYS174     -0.1314
    135  N        -54.6560  -73.5300   43.2510 N.3   175  THR175     -0.1218
    136  CA       -54.8040  -72.6060   44.3690 C.3   175  THR175      0.1862
    137  C        -53.4820  -72.4650   45.1300 C.2   175  THR175      0.2287
    138  O        -53.3870  -71.6990   46.0890 O.2   175  THR175     -0.2866
    139  CB       -55.9200  -73.0720   45.3320 C.3   175  THR175      0.1770
    140  OG1      -57.0170  -73.6030   44.5780 O.3   175  THR175     -0.2211
    141  CG2      -56.4240  -71.9160   46.1960 C.3   175  THR175      0.0375
    142  N        -51.3730  -68.9590   43.3520 N.3   178  GLU178     -0.1245
    143  CA       -52.0010  -67.6450   43.3980 C.3   178  GLU178      0.1567
    144  C        -50.9720  -66.5150   43.4990 C.2   178  GLU178      0.2260
    145  O        -51.1710  -65.4520   42.9130 O.2   178  GLU178     -0.2867
    146  CB       -52.9880  -67.5780   44.5640 C.3   178  GLU178      0.0388
    147  CG       -53.8810  -68.8070   44.6600 C.3   178  GLU178      0.1160
    148  CD       -55.0240  -68.6410   45.6410 C.2   178  GLU178      0.3649
    149  OE1      -56.1220  -68.2340   45.2040 O.co2 178  GLU178     -0.2457
    150  OE2      -54.8290  -68.9260   46.8430 O.co2 178  GLU178     -0.2457
    151  N        -59.0880  -60.6660   49.6030 N.3   201  ASN201     -0.1240
    152  CA       -60.0570  -61.6930   49.9800 C.3   201  ASN201      0.1653
    153  C        -59.9070  -62.1040   51.4400 C.2   201  ASN201      0.2266
    154  O        -60.7970  -62.7370   52.0070 O.2   201  ASN201     -0.2867
    155  CB       -59.9110  -62.9240   49.0780 C.3   201  ASN201      0.1155
    156  CG       -61.2440  -63.5670   48.7360 C.2   201  ASN201      0.2627
    157  OD1      -62.2510  -62.8840   48.5510 O.2   201  ASN201     -0.2716
    158  ND2      -61.2540  -64.8920   48.6460 N.am  201  ASN201     -0.0877
    159  N        -62.0750  -59.3400   53.4300 N.3   204  LEU204     -0.1245
    160  CA       -63.4890  -59.6630   53.2660 C.3   204  LEU204      0.1561
    161  C        -63.8960  -60.8040   54.1870 C.2   204  LEU204      0.2260
    162  O        -64.9220  -60.7390   54.8650 O.2   204  LEU204     -0.2867
    163  CB       -63.7860  -60.0440   51.8180 C.3   204  LEU204      0.0270
    164  CG       -63.9850  -58.9210   50.8030 C.3   204  LEU204      0.0019
    165  CD1      -63.0370  -57.7550   51.0370 C.3   204  LEU204      0.0001
    166  CD2      -63.7940  -59.4950   49.4100 C.3   204  LEU204      0.0001
    167  N        -68.6450  -67.5800   49.6530 N.3   215  TYR215     -0.1241
    168  CA       -68.3070  -66.5690   48.6550 C.3   215  TYR215      0.1605
    169  C        -69.4430  -65.5590   48.4950 C.2   215  TYR215      0.2264
    170  O        -69.2070  -64.3900   48.1860 O.2   215  TYR215     -0.2867
    171  CB       -67.9950  -67.2250   47.3030 C.3   215  TYR215      0.0534
    172  CG       -66.6130  -67.8430   47.1890 C.ar  215  TYR215     -0.0201
    173  CD1      -65.5100  -67.2670   47.8100 C.ar  215  TYR215     -0.0009
    174  CD2      -66.4130  -69.0000   46.4480 C.ar  215  TYR215     -0.0009
    175  CE1      -64.2510  -67.8290   47.7010 C.ar  215  TYR215      0.0417
    176  CE2      -65.1570  -69.5700   46.3340 C.ar  215  TYR215      0.0417
    177  CZ       -64.0800  -68.9800   46.9630 C.ar  215  TYR215      0.1957
    178  OH       -62.8290  -69.5420   46.8530 O.3   215  TYR215     -0.2866
    179  N        -69.1720  -62.8660   51.0970 N.3   218  LEU218     -0.1231
    180  CA       -68.0880  -61.9710   50.7040 C.3   218  LEU218      0.1693
    181  C        -68.5450  -61.0480   49.5780 C.2   218  LEU218      0.2592
    182  O        -68.2130  -59.8630   49.5630 O.2   218  LEU218     -0.2718
    183  CB       -66.8510  -62.7560   50.2540 C.3   218  LEU218      0.0284
    184  CG       -66.2330  -63.7850   51.2060 C.3   218  LEU218      0.0019
    185  CD1      -64.8920  -64.2530   50.6600 C.3   218  LEU218      0.0001
    186  CD2      -66.0720  -63.2390   52.6110 C.3   218  LEU218      0.0001
    187  N        -69.3090  -61.6000   48.6390 N.am  219  ASN219     -0.1974
    188  CA       -69.7500  -60.8520   47.4650 C.3   219  ASN219      0.1688
    189  C        -70.6850  -59.6980   47.8150 C.2   219  ASN219      0.2292
    190  O        -70.5900  -58.6210   47.2260 O.2   219  ASN219     -0.2864
    191  CB       -70.4340  -61.7900   46.4680 C.3   219  ASN219      0.1181
    192  CG       -69.4510  -62.7070   45.7560 C.2   219  ASN219      0.2629
    193  OD1      -68.2680  -62.3900   45.6280 O.2   219  ASN219     -0.2716
    194  ND2      -69.9410  -63.8500   45.2860 N.am  219  ASN219     -0.0877
    195  N        -68.4610  -57.0070   48.9080 N.3   222  VAL222     -0.1245
    196  CA       -67.8280  -56.3930   47.7450 C.3   222  VAL222      0.1561
    197  C        -68.8280  -55.5320   46.9890 C.2   222  VAL222      0.2260
    198  O        -68.5310  -54.3980   46.6140 O.2   222  VAL222     -0.2867
    199  CB       -67.2530  -57.4550   46.7820 C.3   222  VAL222      0.0252
    200  CG1      -66.7370  -56.8080   45.4990 C.3   222  VAL222      0.0019
    201  CG2      -66.1410  -58.2290   47.4500 C.3   222  VAL222      0.0019
@<TRIPOS>BOND
     1    40    39    2
     2    54    55    1
     3    39    38    1
     4    37    38    1
     5    57    56    2
     6    45    46    1
     7    46    47    1
     8    46    49    1
     9    55    56    1
    10    55    58    1
    11    47    48    2
    12    38    41    1
    13    56    60   am
    14    60    61    1
    15    41    42    1
    16    58    59    1
    17    61    64    1
    18    61    62    1
    19   101    99    1
    20    49    50    1
    21    50    51    1
    22    43    42   ar
    23    42    44   ar
    24    98    97    2
    25   100    99    1
    26    62    63    2
    27    62    65   am
    28    99    96    1
    29    96    97    1
    30    96    95    1
    31    94    93    2
    32    65    66    1
    33    97   102   am
    34    51    53   ar
    35    51    52   ar
    36     1     2    1
    37    95    93   am
    38    93    92    1
    39    66    67    1
    40   102   103    1
    41   105   104    2
    42     2     3    1
    43   103   104    1
    44    92    91    1
    45    67    69   am
    46    67    68    2
    47     3     4    2
    48     3     5   am
    49    69    70    1
    50    91    89   am
    51     5     6    1
    52    71    70    1
    53    71    72    2
    54    70    73    1
    55    89    90    2
    56    89    88    1
    57     6     9    1
    58     6     7    1
    59    75    74    2
    60     9    10    1
    61    73    74    1
    62    80    79    2
    63     7     8    2
    64     7    14   am
    65    88    87    1
    66    20    21    1
    67    74    76   am
    68    77    78    1
    69    14    15    1
    70    10    11    1
    71    16    17    2
    72    16    15    1
    73    79    78    1
    74    87    85   am
    75    11    12    2
    76    11    13   am
    77    21    22    1
    78    21    24    1
    79    78    81    1
    80    15    18    1
    81    25    24    1
    82    25    26    1
    83    31    32    2
    84    31    30    1
    85    85    86    2
    86    85    84    1
    87    81    82    1
    88    18    19    1
    89    22    29   am
    90    22    23    2
    91    29    30    1
    92    83    84    1
    93    28    26   am
    94    26    27    2
    95    30    33    1
    96    35    33    1
    97    33    34    1
    98   145   144    2
    99   106   107    1
   100   135   136    1
   101   142   143    1
   102   143   144    1
   103   143   146    1
   104    34    36    1
   105   109   108    2
   106   112   110    1
   107   107   110    1
   108   107   108    1
   109   110   111    1
   110   136   137    1
   111   136   139    1
   112   146   147    1
   113   140   139    1
   114   147   148    1
   115   137   138    2
   116   119   118    1
   117   119   113    1
   118   149   148   ar
   119   194   192   am
   120   139   141    1
   121   118   117    1
   122   200   199    1
   123   193   192    2
   124   148   150   ar
   125   192   191    1
   126   117   114    1
   127   113   114    1
   128   176   174   ar
   129   176   177   ar
   130   174   172   ar
   131   191   188    1
   132   198   197    2
   133   199   201    1
   134   199   196    1
   135   178   177    1
   136   177   175   ar
   137   114   115    1
   138   197   196    1
   139   172   171    1
   140   172   173   ar
   141   190   189    2
   142   171   168    1
   143   188   189    1
   144   188   187    1
   145   175   173   ar
   146   196   195    1
   147   170   169    2
   148   115   116    2
   149   115   120   am
   150   169   168    1
   151   157   156    2
   152   187   181   am
   153   158   156   am
   154   168   167    1
   155   156   155    1
   156   155   152    1
   157   120   121    1
   158   166   164    1
   159   182   181    2
   160   181   180    1
   161   151   152    1
   162   129   128    2
   163   152   153    1
   164   123   122    2
   165   183   180    1
   166   183   184    1
   167   121   122    1
   168   121   124    1
   169   185   184    1
   170   180   179    1
   171   128   127    1
   172   164   165    1
   173   164   163    1
   174   184   186    1
   175   153   154    2
   176   126   127    1
   177   124   125    1
   178   163   160    1
   179   127   130    1
   180   130   131    1
   181   134   133    1
   182   160   159    1
   183   160   161    1
   184   131   132    1
   185   132   133    1
   186   161   162    2
