@<TRIPOS>MOLECULE
tmp/4u3sB00.pdb
 81 77 0 0 0
SMALL
GASTEIGER

@<TRIPOS>ATOM
      1  N         -3.2380   13.8110   -7.0930 N.3    67  ARG67      -0.1245
      2  CA        -2.6860   13.0060   -8.1680 C.3    67  ARG67       0.1563
      3  C         -1.4640   12.2190   -7.6960 C.2    67  ARG67       0.2260
      4  O         -0.5890   12.7610   -7.0030 O.2    67  ARG67      -0.2867
      5  CB        -2.2710   13.9190   -9.3270 C.3    67  ARG67       0.0307
      6  CG        -1.7700   13.1850  -10.5560 C.3    67  ARG67       0.0489
      7  CD        -1.6340   14.1560  -11.7170 C.3    67  ARG67       0.2205
      8  NE        -1.2950   13.4350  -12.9340 N.pl3  67  ARG67      -0.0865
      9  CZ        -1.4690   13.8870  -14.1630 C.cat  67  ARG67       0.5346
     10  NH1       -1.9720   15.0960  -14.4000 N.pl3  67  ARG67       0.1354
     11  NH2       -1.1040   13.1130  -15.1680 N.pl3  67  ARG67       0.1354
     12  N          1.5950    9.9550   -9.4210 N.3    69  ILE69      -0.1245
     13  CA         2.2750    9.5050  -10.6220 C.3    69  ILE69       0.1561
     14  C          3.1800    8.3600  -10.2220 C.2    69  ILE69       0.2260
     15  O          4.1730    8.5610   -9.5230 O.2    69  ILE69      -0.2867
     16  CB         3.1060   10.6310  -11.2690 C.3    69  ILE69       0.0252
     17  CG1        2.2030   11.8220  -11.6080 C.3    69  ILE69       0.0019
     18  CG2        3.7990   10.1000  -12.5180 C.3    69  ILE69       0.0019
     19  CD1        2.9510   13.0800  -12.0020 C.3    69  ILE69       0.0001
     20  N          7.9680    6.4400  -11.3400 N.3    72  VAL72      -0.1245
     21  CA         8.9140    7.4790  -11.7630 C.3    72  VAL72       0.1561
     22  C         10.3330    7.0100  -11.4520 C.2    72  VAL72       0.2260
     23  O         10.7160    6.8940  -10.2830 O.2    72  VAL72      -0.2867
     24  CB         8.6430    8.8380  -11.0640 C.3    72  VAL72       0.0252
     25  CG1        9.6530    9.8990  -11.5150 C.3    72  VAL72       0.0019
     26  CG2        7.2130    9.3000  -11.3180 C.3    72  VAL72       0.0019
     27  N         10.1850   16.2400  -14.6150 N.3    80  LEU80      -0.1231
     28  CA         8.9590   15.4980  -14.8780 C.3    80  LEU80       0.1693
     29  C          8.0140   16.1350  -15.8940 C.2    80  LEU80       0.2592
     30  O          7.2200   15.4440  -16.5180 O.2    80  LEU80      -0.2718
     31  CB         8.1730   15.3040  -13.5850 C.3    80  LEU80       0.0284
     32  CG         8.8630   14.6110  -12.4150 C.3    80  LEU80       0.0019
     33  CD1        7.8360   14.3150  -11.3360 C.3    80  LEU80       0.0001
     34  CD2        9.5550   13.3300  -12.8410 C.3    80  LEU80       0.0001
     35  N          8.0650   17.4520  -16.0130 N.am   81  SER81      -0.1952
     36  CA         7.1940   18.1880  -16.9080 C.3    81  SER81       0.1924
     37  C          7.8390   19.5400  -17.1970 C.2    81  SER81       0.2314
     38  O          8.7800   19.9240  -16.5010 O.2    81  SER81      -0.2863
     39  CB         5.8140   18.3760  -16.2620 C.3    81  SER81       0.2116
     40  OG         5.8780   19.0890  -15.0240 O.3    81  SER81      -0.2180
     41  N          4.1950   21.8950  -21.2290 N.3    85  SER85      -0.1203
     42  CA         3.3640   20.7030  -21.0140 C.3    85  SER85       0.2005
     43  C          3.4180   20.3090  -19.5280 C.2    85  SER85       0.2461
     44  O          4.1210   19.3720  -19.1270 O.2    85  SER85      -0.2732
     45  CB         3.8220   19.5620  -21.9090 C.3    85  SER85       0.2103
     46  OG         3.8930   20.0080  -23.2550 O.3    85  SER85      -0.2182
     47  N          2.6910   21.0660  -18.7050 N.am   86  PRO86      -0.2717
     48  CA         2.7470   20.8820  -17.2700 C.3    86  PRO86       0.1535
     49  C          1.9330   19.6910  -16.8380 C.2    86  PRO86       0.2598
     50  O          1.1410   19.1640  -17.6220 O.2    86  PRO86      -0.2715
     51  CB         2.1360   22.1760  -16.7320 C.3    86  PRO86       0.0310
     52  CG         1.1810   22.5940  -17.8040 C.3    86  PRO86       0.0237
     53  CD         1.8430   22.2060  -19.0890 C.3    86  PRO86       0.0939
     54  N          2.1300   19.2740  -15.5980 N.am   87  ILE87      -0.1964
     55  CA         1.2470   18.3120  -14.9830 C.3    87  ILE87       0.1727
     56  C         -0.0260   19.0390  -14.5910 C.2    87  ILE87       0.2616
     57  O          0.0130   19.9880  -13.7970 O.2    87  ILE87      -0.2715
     58  CB         1.8930   17.6790  -13.7520 C.3    87  ILE87       0.0290
     59  CG1        3.1190   16.8730  -14.1810 C.3    87  ILE87       0.0022
     60  CG2        0.8890   16.8040  -13.0230 C.3    87  ILE87       0.0023
     61  CD1        4.0870   16.6170  -13.0660 C.3    87  ILE87       0.0001
     62  N         -1.1530   18.6070  -15.1530 N.am   88  LEU88      -0.1977
     63  CA        -2.4200   19.2450  -14.8460 C.3    88  LEU88       0.1596
     64  C         -2.9940   18.7070  -13.5320 C.2    88  LEU88       0.2287
     65  O         -2.8870   17.5110  -13.2080 O.2    88  LEU88      -0.2864
     66  CB        -3.4110   19.0550  -15.9830 C.3    88  LEU88       0.0297
     67  CG        -3.0580   19.7400  -17.3150 C.3    88  LEU88       0.0022
     68  CD1       -4.1180   19.3850  -18.3450 C.3    88  LEU88       0.0001
     69  CD2       -2.9620   21.2510  -17.1450 C.3    88  LEU88       0.0001
     70  N         -6.5330   10.2190  -13.5840 N.3   156  TYR156     -0.1241
     71  CA        -5.4830   11.0970  -14.1020 C.3   156  TYR156      0.1605
     72  C         -4.6780   10.3020  -15.1030 C.2   156  TYR156      0.2264
     73  O         -4.4380    9.1110  -14.8950 O.2   156  TYR156     -0.2867
     74  CB        -4.5550   11.5830  -13.0030 C.3   156  TYR156      0.0534
     75  CG        -4.9910   12.8180  -12.2690 C.ar  156  TYR156     -0.0201
     76  CD1       -5.0260   14.0540  -12.9040 C.ar  156  TYR156     -0.0009
     77  CD2       -5.3250   12.7650  -10.9320 C.ar  156  TYR156     -0.0009
     78  CE1       -5.3880   15.2110  -12.2150 C.ar  156  TYR156      0.0417
     79  CE2       -5.7090   13.9040  -10.2370 C.ar  156  TYR156      0.0417
     80  CZ        -5.7290   15.1300  -10.8730 C.ar  156  TYR156      0.1957
     81  OH        -6.0880   16.2650  -10.1640 O.3   156  TYR156     -0.2866
@<TRIPOS>BOND
     1    46    45    1
     2    45    42    1
     3    41    42    1
     4    42    43    1
     5    43    44    2
     6    43    47   am
     7    53    47    1
     8    53    52    1
     9    47    48    1
    10    68    67    1
    11    52    51    1
    12    50    49    2
    13    67    69    1
    14    67    66    1
    15    48    49    1
    16    48    51    1
    17    37    36    1
    18    37    38    2
    19    36    39    1
    20    36    35    1
    21    49    54   am
    22    30    29    2
    23    39    40    1
    24    35    29   am
    25    66    63    1
    26    29    28    1
    27    54    55    1
    28    11     9    1
    29    62    63    1
    30    62    56   am
    31    72    73    2
    32    72    71    1
    33    55    56    1
    34    55    58    1
    35    28    27    1
    36    28    31    1
    37    63    64    1
    38    56    57    2
    39    10     9    1
    40    59    58    1
    41    59    61    1
    42     9     8    2
    43    71    70    1
    44    71    74    1
    45    58    60    1
    46    31    32    1
    47    64    65    2
    48    74    75    1
    49     8     7    1
    50    76    75   ar
    51    76    78   ar
    52    34    32    1
    53    18    16    1
    54    32    33    1
    55    75    77   ar
    56    78    80   ar
    57    19    17    1
    58    21    22    1
    59    21    20    1
    60    21    24    1
    61     7     6    1
    62    17    16    1
    63    25    24    1
    64    22    23    2
    65    26    24    1
    66    16    13    1
    67    77    79   ar
    68    80    79   ar
    69    80    81    1
    70    13    14    1
    71    13    12    1
    72     6     5    1
    73    14    15    2
    74     5     2    1
    75     2     3    1
    76     2     1    1
    77     3     4    2
