@<TRIPOS>MOLECULE
tmp/4u40A00.pdb
 190 180 0 0 0
SMALL
GASTEIGER

@<TRIPOS>ATOM
      1  N        -17.8930  -47.0420  -27.8070 N.3    15  VAL15      -0.1231
      2  CA       -16.6010  -46.6970  -27.2310 C.3    15  VAL15       0.1692
      3  C        -16.7400  -46.0770  -25.8470 C.2    15  VAL15       0.2593
      4  O        -15.7450  -45.9250  -25.1290 O.2    15  VAL15      -0.2718
      5  CB       -15.8200  -45.7440  -28.1230 C.3    15  VAL15       0.0266
      6  CG1      -15.1190  -46.5220  -29.2090 C.3    15  VAL15       0.0020
      7  CG2      -16.7650  -44.7150  -28.7090 C.3    15  VAL15       0.0020
      8  N        -17.9660  -45.7120  -25.4780 N.am   16  GLY16      -0.1942
      9  CA       -18.2040  -45.1480  -24.1670 C.3    16  GLY16       0.2014
     10  C        -19.5320  -44.4350  -24.0100 C.2    16  GLY16       0.2639
     11  O        -20.2590  -44.2000  -24.9740 O.2    16  GLY16      -0.2714
     12  N        -19.8550  -44.0940  -22.7710 N.am   17  ASN17      -0.1958
     13  CA       -21.0900  -43.3920  -22.4810 C.3    17  ASN17       0.1819
     14  C        -20.9550  -42.6400  -21.1760 C.2    17  ASN17       0.2622
     15  O        -19.8770  -42.5690  -20.5870 O.2    17  ASN17      -0.2715
     16  CB       -22.2490  -44.3820  -22.3720 C.3    17  ASN17       0.1195
     17  CG       -21.9210  -45.5550  -21.4670 C.2    17  ASN17       0.2630
     18  OD1      -21.4610  -46.6040  -21.9290 O.2    17  ASN17      -0.2716
     19  ND2      -22.1400  -45.3790  -20.1680 N.am   17  ASN17      -0.0877
     20  N        -22.0650  -42.0820  -20.7230 N.am   18  GLY18      -0.1940
     21  CA       -22.1290  -41.5220  -19.3920 C.3    18  GLY18       0.2014
     22  C        -23.3460  -40.6440  -19.3270 C.2    18  GLY18       0.2640
     23  O        -24.4580  -41.0900  -19.6170 O.2    18  GLY18      -0.2714
     24  N        -23.1160  -39.4020  -18.9150 N.am   19  THR19      -0.1936
     25  CA       -24.0500  -38.3030  -19.1040 C.3    19  THR19       0.2028
     26  C        -25.3800  -38.7460  -19.7450 C.2    19  THR19       0.2642
     27  O        -26.3680  -39.0200  -19.0450 O.2    19  THR19      -0.2714
     28  CB       -23.3710  -37.2120  -19.9760 C.3    19  THR19       0.1808
     29  OG1      -22.6830  -37.8440  -21.0680 O.3    19  THR19      -0.2208
     30  CG2      -22.3380  -36.4130  -19.1490 C.3    19  THR19       0.0379
     31  N        -25.3780  -38.8440  -21.0750 N.am   20  TYR20      -0.1959
     32  CA       -26.5920  -39.0700  -21.8460 C.3    20  TYR20       0.1771
     33  C        -26.2580  -39.7330  -23.1780 C.2    20  TYR20       0.2620
     34  O        -25.3280  -39.3190  -23.8630 O.2    20  TYR20      -0.2715
     35  CB       -27.2800  -37.7320  -22.1020 C.3    20  TYR20       0.0574
     36  CG       -28.7030  -37.8520  -22.5990 C.ar   20  TYR20      -0.0198
     37  CD1      -29.7460  -38.0970  -21.7110 C.ar   20  TYR20      -0.0009
     38  CD2      -29.0050  -37.7070  -23.9510 C.ar   20  TYR20      -0.0009
     39  CE1      -31.0580  -38.1990  -22.1530 C.ar   20  TYR20       0.0417
     40  CE2      -30.3080  -37.8090  -24.4040 C.ar   20  TYR20       0.0417
     41  CZ       -31.3320  -38.0560  -23.4930 C.ar   20  TYR20       0.1957
     42  OH       -32.6300  -38.1560  -23.9160 O.3    20  TYR20      -0.2866
     43  N        -27.0180  -40.7610  -23.5420 N.am   21  GLY21      -0.1940
     44  CA       -26.7470  -41.5210  -24.7480 C.3    21  GLY21       0.2014
     45  C        -25.4100  -42.2410  -24.7050 C.2    21  GLY21       0.2639
     46  O        -24.8320  -42.4270  -23.6350 O.2    21  GLY21      -0.2714
     47  N        -24.9230  -42.6710  -25.8660 N.am   22  GLN22      -0.1963
     48  CA       -23.5710  -43.2110  -25.9540 C.3    22  GLN22       0.1733
     49  C        -22.7920  -42.7300  -27.1710 C.2    22  GLN22       0.2616
     50  O        -23.3310  -42.1080  -28.0800 O.2    22  GLN22      -0.2715
     51  CB       -23.5310  -44.7410  -25.8740 C.3    22  GLN22       0.0408
     52  CG       -24.7060  -45.4510  -26.4770 C.3    22  GLN22       0.0908
     53  CD       -25.8290  -45.6250  -25.4820 C.2    22  GLN22       0.2608
     54  OE1      -27.0040  -45.4910  -25.8300 O.2    22  GLN22      -0.2717
     55  NE2      -25.4760  -45.9190  -24.2280 N.am   22  GLN22      -0.0878
     56  N        -21.4990  -43.0080  -27.1510 N.am   23  VAL23      -0.1977
     57  CA       -20.6240  -42.6810  -28.2540 C.3    23  VAL23       0.1596
     58  C        -20.2200  -43.9860  -28.9240 C.2    23  VAL23       0.2287
     59  O        -19.8510  -44.9510  -28.2470 O.2    23  VAL23      -0.2864
     60  CB       -19.3850  -41.9320  -27.7610 C.3    23  VAL23       0.0276
     61  CG1      -18.4880  -41.5550  -28.9260 C.3    23  VAL23       0.0022
     62  CG2      -19.8030  -40.6890  -26.9510 C.3    23  VAL23       0.0022
     63  N        -16.1520  -40.5940  -34.7690 N.3    36  ALA36      -0.1245
     64  CA       -16.8850  -40.8610  -33.5480 C.3    36  ALA36       0.1562
     65  C        -18.3270  -40.3750  -33.7300 C.2    36  ALA36       0.2260
     66  O        -18.5730  -39.3260  -34.3240 O.2    36  ALA36      -0.2867
     67  CB       -16.2200  -40.1850  -32.3650 C.3    36  ALA36       0.0290
     68  N        -21.8700  -39.5970  -31.6480 N.3    38  LYS38      -0.1245
     69  CA       -22.6010  -39.4950  -30.3910 C.3    38  LYS38       0.1561
     70  C        -24.0890  -39.6460  -30.6580 C.2    38  LYS38       0.2260
     71  O        -24.6710  -38.9150  -31.4550 O.2    38  LYS38      -0.2867
     72  CB       -22.2850  -38.1940  -29.6610 C.3    38  LYS38       0.0271
     73  CG       -22.8470  -38.1420  -28.2470 C.3    38  LYS38       0.0035
     74  CD       -22.3470  -36.9170  -27.4950 C.3    38  LYS38       0.0206
     75  CE       -21.3250  -37.3090  -26.4260 C.3    38  LYS38       0.1093
     76  NZ       -20.0450  -36.5850  -26.5910 N.3    38  LYS38      -0.1314
     77  N        -11.0130  -31.8620  -31.9360 N.3    67  ALA67      -0.1245
     78  CA       -11.6450  -32.8640  -32.7850 C.3    67  ALA67       0.1562
     79  C        -12.5680  -32.1430  -33.7660 C.2    67  ALA67       0.2260
     80  O        -13.4350  -31.3780  -33.3570 O.2    67  ALA67      -0.2867
     81  CB       -12.4280  -33.8730  -31.9360 C.3    67  ALA67       0.0290
     82  N        -18.2180  -36.6140  -35.4780 N.3    89  MET89      -0.1230
     83  CA       -16.9720  -35.9000  -35.4420 C.3    89  MET89       0.1702
     84  C        -15.8040  -36.8540  -35.6910 C.2    89  MET89       0.2592
     85  O        -15.9680  -38.0830  -35.7680 O.2    89  MET89      -0.2718
     86  CB       -16.8200  -35.2500  -34.0680 C.3    89  MET89       0.0401
     87  CG       -16.3660  -36.2330  -33.0020 C.3    89  MET89       0.0596
     88  SD       -16.8600  -35.7830  -31.3280 S.3    89  MET89      -0.1393
     89  CE       -18.4890  -36.5240  -31.2790 C.3    89  MET89       0.0692
     90  N        -14.6330  -36.2490  -35.8130 N.am   90  GLU90      -0.1966
     91  CA       -13.3520  -36.9290  -35.9060 C.3    90  GLU90       0.1733
     92  C        -13.1880  -38.0420  -34.8720 C.2    90  GLU90       0.2616
     93  O        -13.4230  -37.8330  -33.6850 O.2    90  GLU90      -0.2715
     94  CB       -12.2470  -35.8770  -35.7330 C.3    90  GLU90       0.0429
     95  CG       -10.8430  -36.4260  -35.6170 C.3    90  GLU90       0.1163
     96  CD        -9.7720  -35.3930  -35.9700 C.2    90  GLU90       0.3649
     97  OE1       -9.9830  -34.1750  -35.7450 O.co2  90  GLU90      -0.2457
     98  OE2       -8.7160  -35.8060  -36.4950 O.co2  90  GLU90      -0.2457
     99  N        -12.7950  -39.2300  -35.3170 N.am   91  PHE91      -0.1960
    100  CA       -12.5340  -40.3240  -34.3880 C.3    91  PHE91       0.1771
    101  C        -11.1270  -40.2410  -33.8090 C.2    91  PHE91       0.2619
    102  O        -10.1560  -40.1350  -34.5470 O.2    91  PHE91      -0.2715
    103  CB       -12.7390  -41.6860  -35.0410 C.3    91  PHE91       0.0574
    104  CG       -12.6750  -42.8360  -34.0650 C.ar   91  PHE91      -0.0200
    105  CD1      -13.7140  -43.0690  -33.1840 C.ar   91  PHE91      -0.0042
    106  CD2      -11.5610  -43.6690  -34.0200 C.ar   91  PHE91      -0.0042
    107  CE1      -13.6560  -44.1210  -32.2740 C.ar   91  PHE91      -0.0003
    108  CE2      -11.4910  -44.7180  -33.1290 C.ar   91  PHE91      -0.0003
    109  CZ       -12.5420  -44.9490  -32.2450 C.ar   91  PHE91      -0.0000
    110  N        -11.0330  -40.2530  -32.4810 N.am   92  CYS92      -0.1968
    111  CA        -9.7440  -40.2340  -31.7980 C.3    92  CYS92       0.1712
    112  C         -9.4690  -41.6300  -31.2400 C.2    92  CYS92       0.2296
    113  O        -10.0470  -42.0450  -30.2300 O.2    92  CYS92      -0.2864
    114  CB        -9.7110  -39.1570  -30.7070 C.3    92  CYS92       0.0983
    115  SG       -10.0400  -37.4550  -31.3130 S.3    92  CYS92      -0.0798
    116  N         -8.2970  -42.7840  -27.4390 N.3    95  GLY95      -0.1210
    117  CA        -9.2030  -42.5540  -26.3220 C.3    95  GLY95       0.1956
    118  C         -8.8620  -41.3320  -25.4750 C.2    95  GLY95       0.2612
    119  O         -8.0670  -40.4820  -25.8770 O.2    95  GLY95      -0.2717
    120  N         -9.4570  -41.2550  -24.2910 N.am   96  SER96      -0.1952
    121  CA        -9.3430  -40.0750  -23.4440 C.3    96  SER96       0.1924
    122  C         -8.1330  -40.1180  -22.5020 C.2    96  SER96       0.2314
    123  O         -7.6400  -41.1920  -22.1120 O.2    96  SER96      -0.2863
    124  CB       -10.5960  -39.9450  -22.5920 C.3    96  SER96       0.2116
    125  OG       -10.5110  -40.8460  -21.5050 O.3    96  SER96      -0.2180
    126  N         -8.8440  -42.2690  -19.6070 N.3    99  ASP99      -0.1239
    127  CA        -8.5630  -43.6850  -19.8600 C.3    99  ASP99       0.1674
    128  C         -7.0700  -43.9600  -19.7280 C.2    99  ASP99       0.2266
    129  O         -6.6590  -44.9250  -19.0790 O.2    99  ASP99      -0.2867
    130  CB        -9.0170  -44.0980  -21.2600 C.3    99  ASP99       0.1410
    131  CG       -10.5240  -44.0080  -21.4470 C.2    99  ASP99       0.3668
    132  OD1      -11.2610  -44.0840  -20.4330 O.co2  99  ASP99      -0.2456
    133  OD2      -10.9670  -43.8580  -22.6170 O.co2  99  ASP99      -0.2456
    134  N        -16.4730  -27.2650  -20.4360 N.3   137  ASP137     -0.1239
    135  CA       -16.6540  -28.6580  -20.0300 C.3   137  ASP137      0.1674
    136  C        -15.3210  -29.4140  -20.0590 C.2   137  ASP137      0.2266
    137  O        -15.2670  -30.6080  -20.3390 O.2   137  ASP137     -0.2867
    138  CB       -17.7000  -29.3280  -20.9480 C.3   137  ASP137      0.1410
    139  CG       -18.2960  -30.6110  -20.3540 C.2   137  ASP137      0.3668
    140  OD1      -18.1590  -30.8620  -19.1300 O.co2 137  ASP137     -0.2456
    141  OD2      -18.9260  -31.3730  -21.1320 O.co2 137  ASP137     -0.2456
    142  N        -12.1820  -31.4630  -18.9630 N.3   139  LYS139     -0.1245
    143  CA       -11.9190  -32.5280  -18.0090 C.3   139  LYS139      0.1561
    144  C        -11.2940  -33.6530  -18.8110 C.2   139  LYS139      0.2260
    145  O        -11.2850  -33.6080  -20.0430 O.2   139  LYS139     -0.2867
    146  CB       -13.2070  -33.0090  -17.3410 C.3   139  LYS139      0.0271
    147  CG       -14.2470  -33.5080  -18.3230 C.3   139  LYS139      0.0035
    148  CD       -15.4750  -34.0360  -17.6170 C.3   139  LYS139      0.0206
    149  CE       -16.5970  -34.2500  -18.6180 C.3   139  LYS139      0.1093
    150  NZ       -17.7660  -34.9600  -18.0230 N.3   139  LYS139     -0.1314
    151  N        -12.1460  -36.6770  -19.6260 N.3   141  GLN141     -0.1231
    152  CA       -12.9550  -37.3680  -20.6320 C.3   141  GLN141      0.1698
    153  C        -13.1350  -36.5290  -21.8770 C.2   141  GLN141      0.2592
    154  O        -13.4940  -37.0440  -22.9220 O.2   141  GLN141     -0.2718
    155  CB       -14.3230  -37.7810  -20.0870 C.3   141  GLN141      0.0381
    156  CG       -14.3000  -38.9870  -19.1460 C.3   141  GLN141      0.0905
    157  CD       -13.6300  -40.2330  -19.7350 C.2   141  GLN141      0.2608
    158  OE1      -13.2970  -40.2870  -20.9140 O.2   141  GLN141     -0.2717
    159  NE2      -13.4320  -41.2350  -18.8970 N.am  141  GLN141     -0.0878
    160  N        -12.8910  -35.2290  -21.7670 N.am  142  ASN142     -0.1974
    161  CA       -13.0660  -34.3490  -22.9160 C.3   142  ASN142      0.1688
    162  C        -11.7520  -33.9790  -23.5760 C.2   142  ASN142      0.2292
    163  O        -11.6870  -33.0830  -24.4040 O.2   142  ASN142     -0.2864
    164  CB       -13.9310  -33.1320  -22.5590 C.3   142  ASN142      0.1181
    165  CG       -15.4170  -33.4960  -22.4920 C.2   142  ASN142      0.2629
    166  OD1      -15.8090  -34.5050  -23.0500 O.2   142  ASN142     -0.2716
    167  ND2      -16.2320  -32.6880  -21.8100 N.am  142  ASN142     -0.0877
    168  N         -8.7410  -35.8720  -25.7590 N.3   144  LEU144     -0.1245
    169  CA        -8.5440  -37.1330  -26.4650 C.3   144  LEU144      0.1561
    170  C         -7.2160  -37.1870  -27.2070 C.2   144  LEU144      0.2260
    171  O         -6.6270  -36.1500  -27.5330 O.2   144  LEU144     -0.2867
    172  CB        -9.6960  -37.3870  -27.4500 C.3   144  LEU144      0.0270
    173  CG       -11.1140  -37.2930  -26.8620 C.3   144  LEU144      0.0019
    174  CD1      -12.1520  -37.6270  -27.9210 C.3   144  LEU144      0.0001
    175  CD2      -11.2840  -38.1980  -25.6590 C.3   144  LEU144      0.0001
    176  N        -12.7460  -32.0540  -27.2320 N.3   154  VAL154     -0.1231
    177  CA       -14.0490  -32.4230  -27.7270 C.3   154  VAL154      0.1692
    178  C        -15.1200  -31.8410  -26.7900 C.2   154  VAL154      0.2592
    179  O        -14.8310  -31.5320  -25.6280 O.2   154  VAL154     -0.2718
    180  CB       -14.1390  -33.9610  -27.7930 C.3   154  VAL154      0.0266
    181  CG1      -14.3490  -34.5500  -26.4130 C.3   154  VAL154      0.0020
    182  CG2      -15.2000  -34.3980  -28.7460 C.3   154  VAL154      0.0020
    183  N        -16.3370  -31.6590  -27.3050 N.am  155  ASP155     -0.1974
    184  CA       -17.4950  -31.2670  -26.4910 C.3   155  ASP155      0.1709
    185  C        -17.4710  -29.8720  -25.8640 C.2   155  ASP155      0.2293
    186  O        -17.8250  -29.7150  -24.6950 O.2   155  ASP155     -0.2864
    187  CB       -17.7630  -32.3030  -25.3890 C.3   155  ASP155      0.1436
    188  CG       -18.2950  -33.6100  -25.9400 C.2   155  ASP155      0.3671
    189  OD1      -19.1260  -33.5720  -26.8780 O.co2 155  ASP155     -0.2456
    190  OD2      -17.8720  -34.6680  -25.4470 O.co2 155  ASP155     -0.2456
@<TRIPOS>BOND
     1    98    96   ar
     2    96    97   ar
     3    96    95    1
     4    91    90    1
     5    91    94    1
     6    91    92    1
     7    90    84   am
     8    85    84    2
     9    94    95    1
    10    84    83    1
    11    82    83    1
    12    83    86    1
    13    99    92   am
    14    99   100    1
    15   103   100    1
    16   103   104    1
    17    92    93    2
    18    63    64    1
    19   102   101    2
    20   100   101    1
    21    66    65    2
    22    86    87    1
    23   104   106   ar
    24   104   105   ar
    25   106   108   ar
    26   101   110   am
    27    79    80    2
    28    79    78    1
    29    65    64    1
    30    64    67    1
    31   105   107   ar
    32   108   109   ar
    33    87    88    1
    34    78    81    1
    35    78    77    1
    36   110   111    1
    37   107   109   ar
    38   111   112    1
    39   111   114    1
    40    68    69    1
    41    71    70    2
    42    88    89    1
    43   115   114    1
    44   112   113    2
    45    70    69    1
    46    69    72    1
    47    72    73    1
    48     6     5    1
    49    61    60    1
    50    58    57    1
    51    58    59    2
    52   182   180    1
    53     7     5    1
    54    57    60    1
    55    57    56    1
    56    73    74    1
    57     5     2    1
    58    50    49    2
    59   174   173    1
    60     1     2    1
    61   180   177    1
    62   180   181    1
    63    60    62    1
    64   177   176    1
    65   177   178    1
    66   171   170    2
    67    74    75    1
    68   172   173    1
    69   172   169    1
    70   116   117    1
    71   183   178   am
    72   183   184    1
    73     2     3    1
    74   170   169    1
    75    49    56   am
    76    49    48    1
    77   189   188   ar
    78   173   175    1
    79   178   179    2
    80    76    75    1
    81   184   185    1
    82   184   187    1
    83    52    51    1
    84    52    53    1
    85   169   168    1
    86   117   118    1
    87    48    51    1
    88    48    47    1
    89   188   190   ar
    90   188   187    1
    91   119   118    2
    92    47    45   am
    93   185   186    2
    94     3     8   am
    95     3     4    2
    96    54    53    2
    97    53    55   am
    98     8     9    1
    99   118   120   am
   100    11    10    2
   101    44    45    1
   102    44    43    1
   103    45    46    2
   104    40    38   ar
   105    40    41   ar
   106   163   162    2
   107   120   121    1
   108     9    10    1
   109    10    12   am
   110    38    36   ar
   111    42    41    1
   112    34    33    2
   113   162   161    1
   114    43    33   am
   115    41    39   ar
   116   121   124    1
   117   121   122    1
   118    33    32    1
   119   166   165    2
   120   154   153    2
   121   161   164    1
   122   161   160    1
   123    12    13    1
   124   133   131   ar
   125    36    35    1
   126    36    37   ar
   127   124   125    1
   128   164   165    1
   129   122   123    2
   130   165   167   am
   131    13    16    1
   132    13    14    1
   133    16    17    1
   134    39    37   ar
   135    35    32    1
   136    18    17    2
   137   153   160   am
   138   153   152    1
   139    32    31    1
   140    17    19   am
   141   131   130    1
   142   131   132   ar
   143   130   127    1
   144    14    20   am
   145    14    15    2
   146   141   139   ar
   147    31    26   am
   148    29    28    1
   149   138   139    1
   150   138   135    1
   151   158   157    2
   152    20    21    1
   153   152   155    1
   154   152   151    1
   155   134   135    1
   156   139   140   ar
   157   137   136    2
   158   155   156    1
   159   136   135    1
   160   145   144    2
   161    28    30    1
   162    28    25    1
   163   127   128    1
   164   127   126    1
   165    26    25    1
   166    26    27    2
   167   157   156    1
   168   157   159   am
   169   128   129    2
   170    23    22    2
   171    21    22    1
   172    22    24   am
   173    25    24    1
   174   142   143    1
   175   144   143    1
   176   149   150    1
   177   149   148    1
   178   147   148    1
   179   147   146    1
   180   143   146    1
