@<TRIPOS>MOLECULE
tmp/4u42B00.pdb
 141 130 0 0 0
SMALL
GASTEIGER

@<TRIPOS>ATOM
      1  N        -35.1780   -5.4860  -24.7520 N.3    15  VAL15      -0.1245
      2  CA       -36.4550   -4.8820  -24.4110 C.3    15  VAL15       0.1561
      3  C        -36.3280   -3.3750  -24.2070 C.2    15  VAL15       0.2260
      4  O        -35.2600   -2.8680  -23.8300 O.2    15  VAL15      -0.2867
      5  CB       -37.0600   -5.5250  -23.1520 C.3    15  VAL15       0.0252
      6  CG1      -37.9240   -6.7180  -23.5330 C.3    15  VAL15       0.0019
      7  CG2      -35.9550   -5.9550  -22.2050 C.3    15  VAL15       0.0019
      8  N        -33.4220   -0.4530  -20.6120 N.3    20  TYR20      -0.1241
      9  CA       -33.1010   -1.1480  -19.3650 C.3    20  TYR20       0.1605
     10  C        -31.7260   -1.7820  -19.4340 C.2    20  TYR20       0.2264
     11  O        -31.2860   -2.4280  -18.4770 O.2    20  TYR20      -0.2867
     12  CB       -34.1420   -2.2230  -19.0330 C.3    20  TYR20       0.0534
     13  CG       -35.5640   -1.7290  -19.0160 C.ar   20  TYR20      -0.0201
     14  CD1      -36.0420   -0.9370  -17.9760 C.ar   20  TYR20      -0.0009
     15  CD2      -36.4320   -2.0580  -20.0320 C.ar   20  TYR20      -0.0009
     16  CE1      -37.3510   -0.4800  -17.9670 C.ar   20  TYR20       0.0417
     17  CE2      -37.7350   -1.6120  -20.0340 C.ar   20  TYR20       0.0417
     18  CZ       -38.1960   -0.8260  -19.0050 C.ar   20  TYR20       0.1957
     19  OH       -39.5030   -0.3980  -19.0320 O.3    20  TYR20      -0.2866
     20  N        -30.9610   -6.2940  -21.0800 N.3    23  VAL23      -0.1245
     21  CA       -32.0890   -7.0830  -20.6430 C.3    23  VAL23       0.1561
     22  C        -32.9430   -7.3770  -21.8810 C.2    23  VAL23       0.2260
     23  O        -33.3710   -6.4640  -22.5920 O.2    23  VAL23      -0.2867
     24  CB       -32.8620   -6.3650  -19.4860 C.3    23  VAL23       0.0252
     25  CG1      -33.1080   -4.9110  -19.8360 C.3    23  VAL23       0.0019
     26  CG2      -34.1720   -7.0800  -19.1410 C.3    23  VAL23       0.0019
     27  N        -38.2620  -12.2580  -19.1950 N.3    36  ALA36      -0.1245
     28  CA       -37.2760  -11.1990  -19.2580 C.3    36  ALA36       0.1562
     29  C        -35.9410  -11.7720  -18.7920 C.2    36  ALA36       0.2260
     30  O        -35.8790  -12.5080  -17.8110 O.2    36  ALA36      -0.2867
     31  CB       -37.7020  -10.0240  -18.4010 C.3    36  ALA36       0.0290
     32  N        -32.0660  -10.6650  -17.8790 N.3    38  LYS38      -0.1245
     33  CA       -30.9950   -9.7180  -17.5900 C.3    38  LYS38       0.1561
     34  C        -29.6650  -10.4390  -17.7410 C.2    38  LYS38       0.2260
     35  O        -29.4140  -11.4250  -17.0470 O.2    38  LYS38      -0.2867
     36  CB       -31.1590   -9.2340  -16.1520 C.3    38  LYS38       0.0271
     37  CG       -30.1850   -8.1730  -15.6600 C.3    38  LYS38       0.0035
     38  CD       -30.3680   -8.0110  -14.1470 C.3    38  LYS38       0.0206
     39  CE       -29.6750   -6.7820  -13.5800 C.3    38  LYS38       0.1093
     40  NZ       -29.8140   -6.7180  -12.0850 N.3    38  LYS38      -0.1314
     41  N        -43.2130   -8.9650  -10.4220 N.3    52  ALA52      -0.1245
     42  CA       -42.9050   -9.8810  -11.5170 C.3    52  ALA52       0.1562
     43  C        -42.0700  -11.0540  -10.9890 C.2    52  ALA52       0.2260
     44  O        -41.0110  -10.8590  -10.3650 O.2    52  ALA52      -0.2867
     45  CB       -42.1940   -9.1570  -12.6670 C.3    52  ALA52       0.0290
     46  N        -39.7540  -14.2910  -10.4560 N.3    54  TYR54      -0.1241
     47  CA       -38.4580  -14.7150  -10.9270 C.3    54  TYR54       0.1605
     48  C        -38.4850  -16.2100  -11.2570 C.2    54  TYR54       0.2264
     49  O        -38.8720  -17.0480  -10.4370 O.2    54  TYR54      -0.2867
     50  CB       -37.3930  -14.3590   -9.8960 C.3    54  TYR54       0.0534
     51  CG       -36.1490  -15.1940   -9.9870 C.ar   54  TYR54      -0.0201
     52  CD1      -35.0450  -14.7530  -10.7010 C.ar   54  TYR54      -0.0009
     53  CD2      -36.0740  -16.4310   -9.3490 C.ar   54  TYR54      -0.0009
     54  CE1      -33.8990  -15.5160  -10.7800 C.ar   54  TYR54       0.0417
     55  CE2      -34.9310  -17.2030   -9.4200 C.ar   54  TYR54       0.0417
     56  CZ       -33.8450  -16.7410  -10.1360 C.ar   54  TYR54       0.1957
     57  OH       -32.7000  -17.5050  -10.2160 O.3    54  TYR54      -0.2866
     58  N        -30.4890  -14.0060  -15.7820 N.3    69  LEU69      -0.1245
     59  CA       -31.5230  -13.9650  -14.7580 C.3    69  LEU69       0.1561
     60  C        -32.9100  -13.8840  -15.3760 C.2    69  LEU69       0.2260
     61  O        -33.2780  -12.8690  -15.9730 O.2    69  LEU69      -0.2867
     62  CB       -31.2930  -12.7920  -13.8210 C.3    69  LEU69       0.0270
     63  CG       -31.1690  -13.1860  -12.3520 C.3    69  LEU69       0.0019
     64  CD1      -30.5650  -14.5810  -12.1940 C.3    69  LEU69       0.0001
     65  CD2      -30.3430  -12.1390  -11.6360 C.3    69  LEU69       0.0001
     66  N        -37.1030  -14.0100  -15.6070 N.3    71  MET71      -0.1230
     67  CA       -38.1980  -13.4440  -14.8470 C.3    71  MET71       0.1702
     68  C        -39.4520  -13.3670  -15.7100 C.2    71  MET71       0.2592
     69  O        -39.3590  -13.1860  -16.9210 O.2    71  MET71      -0.2718
     70  CB       -37.7870  -12.0620  -14.3620 C.3    71  MET71       0.0401
     71  CG       -38.9290  -11.1200  -14.0380 C.3    71  MET71       0.0596
     72  SD       -38.2760   -9.4890  -13.5980 S.3    71  MET71      -0.1393
     73  CE       -37.1710   -9.9590  -12.2460 C.3    71  MET71       0.0692
     74  N        -40.6250  -13.5040  -15.0950 N.am   72  GLU72      -0.1966
     75  CA       -41.8590  -13.5260  -15.8700 C.3    72  GLU72       0.1733
     76  C        -41.9030  -12.3330  -16.8150 C.2    72  GLU72       0.2616
     77  O        -41.3150  -11.2890  -16.5430 O.2    72  GLU72      -0.2715
     78  CB       -43.1040  -13.6040  -14.9780 C.3    72  GLU72       0.0429
     79  CG       -43.6170  -12.2890  -14.4180 C.3    72  GLU72       0.1163
     80  CD       -44.8760  -12.4710  -13.5570 C.2    72  GLU72       0.3649
     81  OE1      -44.7530  -12.8310  -12.3640 O.co2  72  GLU72      -0.2457
     82  OE2      -45.9950  -12.2510  -14.0730 O.co2  72  GLU72      -0.2457
     83  N        -42.5600  -12.5010  -17.9510 N.am   73  PHE73      -0.1960
     84  CA       -42.5400  -11.4590  -18.9550 C.3    73  PHE73       0.1771
     85  C        -43.8310  -10.6460  -18.9440 C.2    73  PHE73       0.2619
     86  O        -44.9230  -11.1980  -18.8920 O.2    73  PHE73      -0.2715
     87  CB       -42.2740  -12.0450  -20.3400 C.3    73  PHE73       0.0574
     88  CG       -42.1910  -11.0060  -21.4090 C.ar   73  PHE73      -0.0200
     89  CD1      -40.9850  -10.3900  -21.6970 C.ar   73  PHE73      -0.0042
     90  CD2      -43.3320  -10.6040  -22.0950 C.ar   73  PHE73      -0.0042
     91  CE1      -40.9080   -9.4110  -22.6740 C.ar   73  PHE73      -0.0003
     92  CE2      -43.2610   -9.6200  -23.0730 C.ar   73  PHE73      -0.0003
     93  CZ       -42.0440   -9.0240  -23.3590 C.ar   73  PHE73      -0.0000
     94  N        -43.7100   -9.3290  -18.9900 N.am   74  CYS74      -0.1968
     95  CA       -44.8930   -8.4940  -18.8610 C.3    74  CYS74       0.1712
     96  C        -45.2490   -7.8810  -20.2020 C.2    74  CYS74       0.2296
     97  O        -44.5890   -6.9620  -20.6770 O.2    74  CYS74      -0.2864
     98  CB       -44.7090   -7.4480  -17.7580 C.3    74  CYS74       0.0983
     99  SG       -44.2700   -8.1860  -16.1340 S.3    74  CYS74      -0.0798
    100  N        -46.2300   -3.9390  -21.5010 N.3    77  GLY77      -0.1225
    101  CA       -45.2150   -2.9040  -21.3510 C.3    77  GLY77       0.1811
    102  C        -45.3710   -1.9660  -20.1550 C.2    77  GLY77       0.2280
    103  O        -46.3340   -2.0590  -19.3850 O.2    77  GLY77      -0.2866
    104  N        -40.3590    1.0850  -14.1590 N.3   124  ASN124     -0.1240
    105  CA       -40.2080   -0.1320  -13.3560 C.3   124  ASN124      0.1653
    106  C        -41.5530   -0.6760  -12.8980 C.2   124  ASN124      0.2266
    107  O        -41.6300   -1.5820  -12.0800 O.2   124  ASN124     -0.2867
    108  CB       -39.2880    0.0900  -12.1500 C.3   124  ASN124      0.1155
    109  CG       -37.8220    0.1150  -12.5360 C.2   124  ASN124      0.2627
    110  OD1      -37.4560   -0.3590  -13.6050 O.2   124  ASN124     -0.2716
    111  ND2      -36.9740    0.6670  -11.6650 N.am  124  ASN124     -0.0877
    112  N        -44.7130   -2.4180  -14.5410 N.3   126  LEU126     -0.1245
    113  CA       -45.0830   -3.0780  -15.7860 C.3   126  LEU126      0.1561
    114  C        -46.4570   -3.7250  -15.7430 C.2   126  LEU126      0.2260
    115  O        -46.9360   -4.1130  -14.6780 O.2   126  LEU126     -0.2867
    116  CB       -44.0340   -4.1230  -16.1660 C.3   126  LEU126      0.0270
    117  CG       -42.6020   -3.6000  -16.2770 C.3   126  LEU126      0.0019
    118  CD1      -41.6930   -4.6510  -16.9030 C.3   126  LEU126      0.0001
    119  CD2      -42.5840   -2.3170  -17.0920 C.3   126  LEU126      0.0001
    120  N        -40.6460   -4.3340  -11.0120 N.3   136  VAL136     -0.1231
    121  CA       -39.4030   -4.9580  -11.4500 C.3   136  VAL136      0.1692
    122  C        -38.2420   -4.1400  -10.9520 C.2   136  VAL136      0.2592
    123  O        -38.4040   -2.9530  -10.6240 O.2   136  VAL136     -0.2718
    124  CB       -39.3030   -5.0360  -13.0030 C.3   136  VAL136      0.0266
    125  CG1      -40.3740   -5.9460  -13.5740 C.3   136  VAL136      0.0020
    126  CG2      -39.4150   -3.6390  -13.6200 C.3   136  VAL136      0.0020
    127  N        -37.0710   -4.7720  -10.9050 N.am  137  ASP137     -0.1974
    128  CA       -35.8290   -4.0590  -10.6440 C.3   137  ASP137      0.1709
    129  C        -35.7180   -3.5880   -9.1870 C.2   137  ASP137      0.2293
    130  O        -35.2030   -2.4980   -8.9080 O.2   137  ASP137     -0.2864
    131  CB       -35.7200   -2.8670  -11.5910 C.3   137  ASP137      0.1436
    132  CG       -34.2890   -2.4650  -11.8560 C.2   137  ASP137      0.3671
    133  OD1      -33.3910   -2.9620  -11.1410 O.co2 137  ASP137     -0.2456
    134  OD2      -34.0780   -1.6530  -12.7780 O.co2 137  ASP137     -0.2456
    135  N        -31.2120   -4.5390   -5.8700 N.3   140  VAL140     -0.1245
    136  CA       -30.2380   -5.5520   -6.2840 C.3   140  VAL140      0.1561
    137  C        -29.1040   -5.6860   -5.2700 C.2   140  VAL140      0.2260
    138  O        -29.3130   -6.1730   -4.1570 O.2   140  VAL140     -0.2867
    139  CB       -29.6530   -5.2600   -7.6980 C.3   140  VAL140      0.0252
    140  CG1      -28.2390   -5.8200   -7.8280 C.3   140  VAL140      0.0019
    141  CG2      -30.5580   -5.8250   -8.7860 C.3   140  VAL140      0.0019
@<TRIPOS>BOND
     1     1     2    1
     2     2     3    1
     3     2     5    1
     4     3     4    2
     5     6     5    1
     6    93    92   ar
     7    93    91   ar
     8     5     7    1
     9    92    90   ar
    10    91    89   ar
    11    23    22    2
    12    90    88   ar
    13    22    21    1
    14    89    88   ar
    15   100   101    1
    16    88    87    1
    17   101   102    1
    18    20    21    1
    19    97    96    2
    20    21    24    1
    21     8     9    1
    22    87    84    1
    23    96    95    1
    24   102   103    2
    25    17    15   ar
    26    17    18   ar
    27    15    13   ar
    28    25    24    1
    29    24    26    1
    30    10     9    1
    31    10    11    2
    32     9    12    1
    33    28    27    1
    34    28    29    1
    35    28    31    1
    36    12    13    1
    37    19    18    1
    38    13    14   ar
    39    18    16   ar
    40    94    85   am
    41    94    95    1
    42    84    85    1
    43    84    83    1
    44    85    86    2
    45    95    98    1
    46    29    30    2
    47    14    16   ar
    48    83    76   am
    49    32    33    1
    50    98    99    1
    51    34    33    1
    52    34    35    2
    53    33    36    1
    54   119   117    1
    55    69    68    2
    56   118   117    1
    57    76    77    2
    58    76    75    1
    59   117   116    1
    60   116   113    1
    61    36    37    1
    62    61    60    2
    63    75    74    1
    64    75    78    1
    65   113   114    1
    66   113   112    1
    67    58    59    1
    68   114   115    2
    69    68    74   am
    70    68    67    1
    71    37    38    1
    72    66    67    1
    73    60    59    1
    74    78    79    1
    75    67    70    1
    76    59    62    1
    77    79    80    1
    78    70    71    1
    79   104   105    1
    80    38    39    1
    81    82    80   ar
    82    71    72    1
    83    62    63    1
    84   126   124    1
    85   110   109    2
    86    72    73    1
    87    39    40    1
    88   125   124    1
    89    80    81   ar
    90   105   106    1
    91   105   108    1
    92   124   121    1
    93   106   107    2
    94   134   132   ar
    95    45    42    1
    96   109   108    1
    97   109   111   am
    98    63    64    1
    99    63    65    1
   100   132   131    1
   101   132   133   ar
   102   131   128    1
   103    42    43    1
   104    42    41    1
   105   121   120    1
   106   121   122    1
   107    48    47    1
   108    48    49    2
   109    43    44    2
   110   122   127   am
   111   122   123    2
   112    47    46    1
   113    47    50    1
   114   127   128    1
   115    54    52   ar
   116    54    56   ar
   117    52    51   ar
   118   128   129    1
   119    57    56    1
   120    56    55   ar
   121    51    50    1
   122    51    53   ar
   123    55    53   ar
   124   129   130    2
   125   141   139    1
   126   140   139    1
   127   139   136    1
   128   136   135    1
   129   136   137    1
   130   137   138    2
