@<TRIPOS>MOLECULE
tmp/4u43A00.pdb
 136 127 0 0 0
SMALL
GASTEIGER

@<TRIPOS>ATOM
      1  N         25.5210   22.3940   -0.9810 N.3    18  VAL18      -0.1231
      2  CA        25.0640   23.6520   -1.5760 C.3    18  VAL18       0.1692
      3  C         24.0580   23.4380   -2.6950 C.2    18  VAL18       0.2593
      4  O         23.1340   24.2350   -2.8390 O.2    18  VAL18      -0.2718
      5  CB        26.2060   24.6200   -1.9720 C.3    18  VAL18       0.0266
      6  CG1       26.8880   25.1840   -0.7360 C.3    18  VAL18       0.0020
      7  CG2       27.2160   23.9680   -2.9160 C.3    18  VAL18       0.0020
      8  N         24.2380   22.3700   -3.4660 N.am   19  GLY19      -0.1942
      9  CA        23.3500   22.0390   -4.5720 C.3    19  GLY19       0.2014
     10  C         23.3230   20.5650   -4.9110 C.2    19  GLY19       0.2639
     11  O         23.7750   19.7300   -4.1200 O.2    19  GLY19      -0.2714
     12  N         22.7820   20.2460   -6.1010 N.am   20  ASN20      -0.1958
     13  CA        22.6960   18.8890   -6.6460 C.3    20  ASN20       0.1819
     14  C         22.5590   18.9150   -8.1590 C.2    20  ASN20       0.2621
     15  O         21.5370   19.3570   -8.6950 O.2    20  ASN20      -0.2715
     16  CB        21.5920   18.0400   -5.9840 C.3    20  ASN20       0.1195
     17  CG        20.2610   18.7340   -5.8520 C.2    20  ASN20       0.2630
     18  OD1       19.5310   18.9360   -6.8300 O.2    20  ASN20      -0.2716
     19  ND2       19.9050   19.0820   -4.6240 N.am   20  ASN20      -0.0877
     20  N         23.6190   18.4740   -8.8310 N.am   21  GLY21      -0.1954
     21  CA        23.6730   18.3860  -10.2850 C.3    21  GLY21       0.1869
     22  C         23.3410   16.9880  -10.7650 C.2    21  GLY21       0.2309
     23  O         23.6420   16.6450  -11.9140 O.2    21  GLY21      -0.2863
     24  N         26.5070   18.4340   -4.6570 N.3    26  VAL26      -0.1245
     25  CA        27.3640   19.6040   -4.8490 C.3    26  VAL26       0.1561
     26  C         27.6750   20.1540   -3.4660 C.2    26  VAL26       0.2260
     27  O         26.7680   20.3620   -2.6530 O.2    26  VAL26      -0.2867
     28  CB        26.7750   20.6820   -5.8150 C.3    26  VAL26       0.0252
     29  CG1       27.7680   21.8190   -6.0570 C.3    26  VAL26       0.0019
     30  CG2       26.3550   20.0650   -7.1460 C.3    26  VAL26       0.0019
     31  N         33.2850   24.9600   -5.4680 N.3    39  ALA39      -0.1245
     32  CA        32.0840   24.1280   -5.4980 C.3    39  ALA39       0.1562
     33  C         32.5510   22.7720   -5.9540 C.2    39  ALA39       0.2260
     34  O         33.2730   22.6790   -6.9530 O.2    39  ALA39      -0.2867
     35  CB        31.0630   24.6810   -6.4760 C.3    39  ALA39       0.0290
     36  N         31.3490   19.0620   -7.1420 N.3    41  LYS41      -0.1245
     37  CA        30.3170   18.1450   -7.6000 C.3    41  LYS41       0.1561
     38  C         30.8890   16.7280   -7.3730 C.2    41  LYS41       0.2260
     39  O         31.8240   16.3110   -8.0710 O.2    41  LYS41      -0.2867
     40  CB        29.9860   18.4080   -9.0830 C.3    41  LYS41       0.0271
     41  CG        28.6310   17.8560   -9.5130 C.3    41  LYS41       0.0035
     42  CD        28.4460   17.9230  -11.0230 C.3    41  LYS41       0.0206
     43  CE        27.1320   17.3170  -11.4350 C.3    41  LYS41       0.1093
     44  NZ        27.1650   16.8510  -12.8450 N.3    41  LYS41      -0.1314
     45  N         34.8560   23.3410   -9.1180 N.3    92  MET92      -0.1230
     46  CA        34.3850   24.4870   -9.8880 C.3    92  MET92       0.1702
     47  C         34.4540   25.7520   -9.0580 C.2    92  MET92       0.2592
     48  O         34.6110   25.6910   -7.8390 O.2    92  MET92      -0.2718
     49  CB        32.9220   24.2630  -10.2880 C.3    92  MET92       0.0401
     50  CG        32.6950   24.2480  -11.7750 C.3    92  MET92       0.0596
     51  SD        32.9320   22.6210  -12.5320 S.3    92  MET92      -0.1393
     52  CE        31.7880   21.5900  -11.4800 C.3    92  MET92       0.0692
     53  N         34.2790   26.9000   -9.7240 N.am   93  GLU93      -0.1966
     54  CA        34.2000   28.2200   -9.1190 C.3    93  GLU93       0.1733
     55  C         33.0380   28.2730   -8.1240 C.2    93  GLU93       0.2616
     56  O         31.9120   27.9050   -8.4810 O.2    93  GLU93      -0.2715
     57  CB        33.9890   29.2490  -10.2430 C.3    93  GLU93       0.0429
     58  CG        33.6660   30.6630   -9.7970 C.3    93  GLU93       0.1163
     59  CD        33.5190   31.6550  -10.9300 C.2    93  GLU93       0.3649
     60  OE1       33.6860   31.2600  -12.1100 O.co2  93  GLU93      -0.2457
     61  OE2       33.2390   32.8370  -10.6300 O.co2  93  GLU93      -0.2457
     62  N         33.3080   28.7110   -6.8840 N.am   94  PHE94      -0.1960
     63  CA        32.2490   28.8330   -5.8850 C.3    94  PHE94       0.1771
     64  C         31.4940   30.1540   -6.1020 C.2    94  PHE94       0.2619
     65  O         32.1100   31.2260   -6.0530 O.2    94  PHE94      -0.2715
     66  CB        32.7820   28.7360   -4.4450 C.3    94  PHE94       0.0574
     67  CG        31.6790   28.7470   -3.4110 C.ar   94  PHE94      -0.0200
     68  CD1       30.8430   27.6470   -3.2490 C.ar   94  PHE94      -0.0042
     69  CD2       31.4520   29.8680   -2.6260 C.ar   94  PHE94      -0.0042
     70  CE1       29.7910   27.6800   -2.3330 C.ar   94  PHE94      -0.0003
     71  CE2       30.4120   29.8850   -1.6910 C.ar   94  PHE94      -0.0003
     72  CZ        29.5920   28.7940   -1.5520 C.ar   94  PHE94      -0.0000
     73  N         30.1830   30.0820   -6.4080 N.am   95  CYS95      -0.1968
     74  CA        29.4060   31.3070   -6.6110 C.3    95  CYS95       0.1712
     75  C         28.7350   31.6660   -5.3040 C.2    95  CYS95       0.2296
     76  O         27.6730   31.1370   -4.9500 O.2    95  CYS95      -0.2864
     77  CB        28.4300   31.1660   -7.7740 C.3    95  CYS95       0.0983
     78  SG        29.2290   30.7930   -9.3560 S.3    95  CYS95      -0.0798
     79  N         24.9530   32.3220   -4.1580 N.3    98  GLY98      -0.1210
     80  CA        24.0000   31.2330   -4.3440 C.3    98  GLY98       0.1956
     81  C         23.2250   31.3160   -5.6490 C.2    98  GLY98       0.2612
     82  O         23.5520   32.1140   -6.5410 O.2    98  GLY98      -0.2717
     83  N         22.1890   30.4740   -5.7660 N.am   99  SER99      -0.1952
     84  CA        21.3730   30.3790   -6.9770 C.3    99  SER99       0.1924
     85  C         20.3350   31.4860   -7.0740 C.2    99  SER99       0.2314
     86  O         19.9800   32.0980   -6.0560 O.2    99  SER99      -0.2863
     87  CB        20.6860   29.0180   -7.0350 C.3    99  SER99       0.2116
     88  OG        19.5800   28.9790   -6.1480 O.3    99  SER99      -0.2180
     89  N         17.3970   30.5560   -4.6940 N.3   102  ASP102     -0.1239
     90  CA        17.6110   30.9360   -3.2940 C.3   102  ASP102      0.1674
     91  C         17.3600   32.4280   -3.1470 C.2   102  ASP102      0.2266
     92  O         16.6060   32.8130   -2.2510 O.2   102  ASP102     -0.2867
     93  CB        19.0300   30.5620   -2.8010 C.3   102  ASP102      0.1410
     94  CG        19.3870   29.0830   -2.8710 C.2   102  ASP102      0.3668
     95  OD1       18.4640   28.2360   -2.7090 O.co2 102  ASP102     -0.2456
     96  OD2       20.6000   28.7660   -3.0680 O.co2 102  ASP102     -0.2456
     97  N         18.0900   26.9770  -10.2330 N.3   144  GLN144     -0.1231
     98  CA        19.0960   26.2230   -9.4750 C.3   144  GLN144      0.1698
     99  C         20.4320   26.1060  -10.2200 C.2   144  GLN144      0.2592
    100  O         21.4580   25.8890   -9.5830 O.2   144  GLN144     -0.2718
    101  CB        18.5530   24.8290   -9.0970 C.3   144  GLN144      0.0381
    102  CG        18.8010   24.4160   -7.6570 C.3   144  GLN144      0.0905
    103  CD        18.1950   25.3450   -6.6300 C.2   144  GLN144      0.2608
    104  OE1       18.9030   26.0930   -5.9410 O.2   144  GLN144     -0.2717
    105  NE2       16.8800   25.2920   -6.4780 N.am  144  GLN144     -0.0878
    106  N         20.4260   26.2810  -11.5560 N.am  145  ASN145     -0.1974
    107  CA        21.6260   26.2080  -12.3860 C.3   145  ASN145      0.1688
    108  C         22.1390   27.5660  -12.8450 C.2   145  ASN145      0.2292
    109  O         23.0180   27.6240  -13.7030 O.2   145  ASN145     -0.2864
    110  CB        21.4310   25.2280  -13.5560 C.3   145  ASN145      0.1181
    111  CG        21.3100   23.7920  -13.0880 C.2   145  ASN145      0.2629
    112  OD1       21.6800   23.4700  -11.9720 O.2   145  ASN145     -0.2716
    113  ND2       20.8480   22.8940  -13.9250 N.am  145  ASN145     -0.0877
    114  N         23.7240   30.9050  -11.2070 N.3   147  LEU147     -0.1245
    115  CA        24.2890   31.3720   -9.9490 C.3   147  LEU147      0.1561
    116  C         24.7810   32.7830   -9.9980 C.2   147  LEU147      0.2260
    117  O         25.0660   33.3160  -11.0760 O.2   147  LEU147     -0.2867
    118  CB        25.4140   30.4260   -9.4710 C.3   147  LEU147      0.0270
    119  CG        25.1950   28.9160   -9.6010 C.3   147  LEU147      0.0019
    120  CD1       26.4470   28.1730   -9.2560 C.3   147  LEU147      0.0001
    121  CD2       24.0800   28.4280   -8.7250 C.3   147  LEU147      0.0001
    122  N         25.7910   26.8320  -14.5430 N.3   157  VAL157     -0.1231
    123  CA        26.4040   25.5720  -14.0940 C.3   157  VAL157      0.1692
    124  C         25.6560   24.3630  -14.6780 C.2   157  VAL157      0.2592
    125  O         24.5530   24.5300  -15.1960 O.2   157  VAL157     -0.2718
    126  CB        26.5870   25.4500  -12.5520 C.3   157  VAL157      0.0266
    127  CG1       27.5100   26.5300  -12.0160 C.3   157  VAL157      0.0020
    128  CG2       25.2480   25.4340  -11.8100 C.3   157  VAL157      0.0020
    129  N         26.2580   23.1530  -14.5630 N.am  158  ASP158     -0.1974
    130  CA        25.7230   21.8490  -14.9860 C.3   158  ASP158      0.1709
    131  C         25.2600   21.7740  -16.4550 C.2   158  ASP158      0.2293
    132  O         24.1480   21.3240  -16.7360 O.2   158  ASP158     -0.2864
    133  CB        24.6210   21.3840  -14.0010 C.3   158  ASP158      0.1436
    134  CG        24.5590   19.8860  -13.7600 C.2   158  ASP158      0.3671
    135  OD1       25.6200   19.2270  -13.8210 O.co2 158  ASP158     -0.2456
    136  OD2       23.4510   19.3750  -13.4830 O.co2 158  ASP158     -0.2456
@<TRIPOS>BOND
     1   132   131    2
     2   131   130    1
     3   125   124    2
     4   130   129    1
     5   130   133    1
     6   124   129   am
     7   124   123    1
     8   122   123    1
     9   123   126    1
    10   133   134    1
    11   113   111   am
    12   135   134   ar
    13   134   136   ar
    14   109   108    2
    15   110   111    1
    16   110   107    1
    17   111   112    2
    18   108   107    1
    19    44    43    1
    20   126   127    1
    21   126   128    1
    22    51    50    1
    23    51    52    1
    24   107   106    1
    25    60    59   ar
    26    23    22    2
    27    50    49    1
    28   106    99   am
    29    43    42    1
    30   114   115    1
    31   117   116    2
    32    42    41    1
    33    59    61   ar
    34    59    58    1
    35    22    21    1
    36    49    46    1
    37    21    20    1
    38    57    58    1
    39    57    54    1
    40    97    98    1
    41    99   100    2
    42    99    98    1
    43   116   115    1
    44   115   118    1
    45    46    45    1
    46    46    47    1
    47    53    54    1
    48    53    47   am
    49   119   118    1
    50   119   120    1
    51   119   121    1
    52    41    40    1
    53    98   101    1
    54    78    77    1
    55    54    55    1
    56   101   102    1
    57    40    37    1
    58    47    48    2
    59    20    14   am
    60    15    14    2
    61    56    55    2
    62    14    13    1
    63    55    62   am
    64    39    38    2
    65    77    74    1
    66   102   103    1
    67    37    38    1
    68    37    36    1
    69    30    28    1
    70    85    84    1
    71    85    86    2
    72    87    84    1
    73    87    88    1
    74    84    83    1
    75    34    33    2
    76    62    63    1
    77    18    17    2
    78    13    12    1
    79    13    16    1
    80   103   105   am
    81   103   104    2
    82    74    73    1
    83    74    75    1
    84    82    81    2
    85    35    32    1
    86    73    64   am
    87    64    65    2
    88    64    63    1
    89    12    10   am
    90    29    28    1
    91    16    17    1
    92    33    32    1
    93    63    66    1
    94    17    19   am
    95    28    25    1
    96    83    81   am
    97    81    80    1
    98    32    31    1
    99    75    76    2
   100    10     9    1
   101    10    11    2
   102    25    24    1
   103    25    26    1
   104    89    90    1
   105     9     8    1
   106    66    67    1
   107    80    79    1
   108     8     3   am
   109    26    27    2
   110    67    68   ar
   111    67    69   ar
   112    90    91    1
   113    90    93    1
   114    68    70   ar
   115    91    92    2
   116    96    94   ar
   117     7     5    1
   118    94    93    1
   119    94    95   ar
   120     4     3    2
   121     3     2    1
   122    69    71   ar
   123    70    72   ar
   124     5     2    1
   125     5     6    1
   126    71    72   ar
   127     2     1    1
