@<TRIPOS>MOLECULE
tmp/4u44A01.pdb
 165 155 0 0 0
SMALL
GASTEIGER

@<TRIPOS>ATOM
      1  N        -19.2050    2.2150   29.0040 N.3    20  VAL20      -0.1231
      2  CA       -17.8260    2.0350   28.5840 C.3    20  VAL20       0.1692
      3  C        -17.7660    1.1470   27.3440 C.2    20  VAL20       0.2593
      4  O        -16.7370    1.0740   26.6790 O.2    20  VAL20      -0.2718
      5  CB       -16.9740    1.4350   29.7310 C.3    20  VAL20       0.0266
      6  CG1      -17.0430   -0.0890   29.7320 C.3    20  VAL20       0.0020
      7  CG2      -15.5450    1.9260   29.6540 C.3    20  VAL20       0.0020
      8  N        -18.8780    0.4820   27.0310 N.am   21  GLY21      -0.1942
      9  CA       -18.9380   -0.4270   25.8990 C.3    21  GLY21       0.2014
     10  C        -20.2550   -1.1720   25.7790 C.2    21  GLY21       0.2639
     11  O        -21.2510   -0.7860   26.3870 O.2    21  GLY21      -0.2714
     12  N        -20.2580   -2.2360   24.9800 N.am   22  ASN22      -0.1958
     13  CA       -21.4420   -3.0760   24.7920 C.3    22  ASN22       0.1819
     14  C        -21.1430   -4.5490   25.0770 C.2    22  ASN22       0.2621
     15  O        -19.9810   -4.9510   25.1660 O.2    22  ASN22      -0.2715
     16  CB       -21.9870   -2.9460   23.3600 C.3    22  ASN22       0.1195
     17  CG       -22.2560   -1.5050   22.9530 C.2    22  ASN22       0.2630
     18  OD1      -23.1820   -0.8670   23.4570 O.2    22  ASN22      -0.2716
     19  ND2      -21.4570   -0.9940   22.0180 N.am   22  ASN22      -0.0877
     20  N        -22.1940   -5.3510   25.2180 N.am   23  GLY23      -0.1954
     21  CA       -22.0470   -6.7930   25.3070 C.3    23  GLY23       0.1869
     22  C        -22.8540   -7.4270   24.1910 C.2    23  GLY23       0.2309
     23  O        -23.4500   -6.7080   23.3840 O.2    23  GLY23      -0.2863
     24  N        -22.4980   -2.3070   28.8990 N.3    28  VAL28      -0.1245
     25  CA       -21.4200   -2.4790   29.8740 C.3    28  VAL28       0.1561
     26  C        -20.9780   -1.1340   30.4440 C.2    28  VAL28       0.2260
     27  O        -20.6260   -0.2120   29.7000 O.2    28  VAL28      -0.2867
     28  CB       -20.1940   -3.2130   29.2690 C.3    28  VAL28       0.0252
     29  CG1      -18.9990   -3.1410   30.2100 C.3    28  VAL28       0.0019
     30  CG2      -20.5350   -4.6600   28.9580 C.3    28  VAL28       0.0019
     31  N        -16.4160   -3.6890   36.1600 N.3    41  ALA41      -0.1245
     32  CA       -17.2920   -3.5390   35.0080 C.3    41  ALA41       0.1562
     33  C        -18.6390   -4.1650   35.3290 C.2    41  ALA41       0.2260
     34  O        -18.7210   -5.2510   35.9090 O.2    41  ALA41      -0.2867
     35  CB       -16.6910   -4.1460   33.7750 C.3    41  ALA41       0.0290
     36  N        -22.3540   -5.2410   33.7480 N.3    43  LYS43      -0.1245
     37  CA       -23.1870   -5.5080   32.5880 C.3    43  LYS43       0.1561
     38  C        -24.6500   -5.3620   32.9800 C.2    43  LYS43       0.2260
     39  O        -25.1800   -6.1530   33.7640 O.2    43  LYS43      -0.2867
     40  CB       -22.9130   -6.9110   32.0420 C.3    43  LYS43       0.0271
     41  CG       -23.2210   -7.0700   30.5580 C.3    43  LYS43       0.0035
     42  CD       -22.8810   -8.4720   30.0750 C.3    43  LYS43       0.0206
     43  CE       -22.9080   -8.5550   28.5590 C.3    43  LYS43       0.1093
     44  NZ       -22.6480   -9.9420   28.0690 N.3    43  LYS43      -0.1314
     45  N        -25.5580  -16.8330   31.6310 N.3    58  GLU58      -0.1245
     46  CA       -24.3470  -16.0180   31.6010 C.3    58  GLU58       0.1567
     47  C        -23.7900  -15.8240   33.0080 C.2    58  GLU58       0.2260
     48  O        -22.5760  -15.7350   33.1950 O.2    58  GLU58      -0.2867
     49  CB       -24.5730  -14.6650   30.9170 C.3    58  GLU58       0.0388
     50  CG       -23.2680  -13.9010   30.7040 C.3    58  GLU58       0.1160
     51  CD       -23.4190  -12.6500   29.8560 C.2    58  GLU58       0.3649
     52  OE1      -22.3970  -11.9450   29.6500 O.co2  58  GLU58      -0.2457
     53  OE2      -24.5510  -12.3730   29.4000 O.co2  58  GLU58      -0.2457
     54  N        -18.1600   -7.6700   37.4290 N.3    91  MET91      -0.1230
     55  CA       -16.9220   -8.4030   37.2350 C.3    91  MET91       0.1702
     56  C        -15.7140   -7.4780   37.2180 C.2    91  MET91       0.2592
     57  O        -15.8480   -6.2470   37.2270 O.2    91  MET91      -0.2718
     58  CB       -16.9810   -9.1920   35.9300 C.3    91  MET91       0.0401
     59  CG       -16.9520   -8.3140   34.7060 C.3    91  MET91       0.0596
     60  SD       -17.8360   -9.0550   33.3250 S.3    91  MET91      -0.1393
     61  CE       -19.5330   -8.8910   33.8710 C.3    91  MET91       0.0692
     62  N        -14.5380   -8.1000   37.1930 N.am   92  GLU92      -0.1966
     63  CA       -13.2560   -7.4080   37.1690 C.3    92  GLU92       0.1733
     64  C        -13.2080   -6.3620   36.0690 C.2    92  GLU92       0.2616
     65  O        -13.5810   -6.6330   34.9270 O.2    92  GLU92      -0.2715
     66  CB       -12.1340   -8.4320   36.9850 C.3    92  GLU92       0.0429
     67  CG       -10.7780   -7.8650   36.6620 C.3    92  GLU92       0.1163
     68  CD        -9.7110   -8.9460   36.5770 C.2    92  GLU92       0.3649
     69  OE1      -10.0670  -10.1380   36.4330 O.co2  92  GLU92      -0.2457
     70  OE2       -8.5100   -8.6050   36.6650 O.co2  92  GLU92      -0.2457
     71  N        -12.7760   -5.1530   36.4220 N.am   93  PHE93      -0.1960
     72  CA       -12.7040   -4.0820   35.4400 C.3    93  PHE93       0.1771
     73  C        -11.3420   -4.1220   34.7550 C.2    93  PHE93       0.2620
     74  O        -10.2950   -4.1230   35.4130 O.2    93  PHE93      -0.2715
     75  CB       -12.9690   -2.7110   36.0690 C.3    93  PHE93       0.0574
     76  CG       -13.1150   -1.6000   35.0600 C.ar   93  PHE93      -0.0200
     77  CD1      -14.2490   -1.5120   34.2640 C.ar   93  PHE93      -0.0042
     78  CD2      -12.1190   -0.6490   34.9040 C.ar   93  PHE93      -0.0042
     79  CE1      -14.3880   -0.4940   33.3310 C.ar   93  PHE93      -0.0003
     80  CE2      -12.2460    0.3720   33.9750 C.ar   93  PHE93      -0.0003
     81  CZ       -13.3840    0.4490   33.1850 C.ar   93  PHE93      -0.0000
     82  N        -11.3680   -4.1900   33.4300 N.am   94  CYS94      -0.1954
     83  CA       -10.1460   -4.1710   32.6490 C.3    94  CYS94       0.1843
     84  C         -9.9860   -2.7800   32.0360 C.2    94  CYS94       0.2626
     85  O        -10.5600   -2.4810   30.9890 O.2    94  CYS94      -0.2714
     86  CB       -10.1690   -5.2810   31.5900 C.3    94  CYS94       0.0997
     87  SG       -10.5250   -6.9550   32.2700 S.3    94  CYS94      -0.0797
     88  N         -9.1990   -1.9390   32.7120 N.am   95  GLY95      -0.1940
     89  CA        -9.0820   -0.5240   32.3900 C.3    95  GLY95       0.2014
     90  C         -8.5510   -0.1080   31.0270 C.2    95  GLY95       0.2639
     91  O         -8.9480    0.9400   30.5080 O.2    95  GLY95      -0.2714
     92  N         -7.6680   -0.9100   30.4350 N.am   96  ALA96      -0.1963
     93  CA        -7.0150   -0.5130   29.1790 C.3    96  ALA96       0.1728
     94  C         -7.8650   -0.7270   27.9170 C.2    96  ALA96       0.2617
     95  O         -7.4190   -0.4360   26.8070 O.2    96  ALA96      -0.2715
     96  CB        -5.6530   -1.1990   29.0350 C.3    96  ALA96       0.0334
     97  N         -9.0820   -1.2380   28.0860 N.am   97  GLY97      -0.1940
     98  CA        -9.9640   -1.4800   26.9570 C.3    97  GLY97       0.2014
     99  C         -9.6620   -2.7540   26.1880 C.2    97  GLY97       0.2639
    100  O         -9.0280   -3.6710   26.7080 O.2    97  GLY97      -0.2714
    101  N        -10.1100   -2.8160   24.9390 N.am   98  SER98      -0.1949
    102  CA        -9.9670   -4.0390   24.1560 C.3    98  SER98       0.1924
    103  C         -8.7140   -4.0780   23.2840 C.2    98  SER98       0.2314
    104  O         -7.9990   -3.0880   23.1270 O.2    98  SER98      -0.2863
    105  CB       -11.1970   -4.2570   23.2710 C.3    98  SER98       0.2116
    106  OG       -11.1920   -3.3540   22.1810 O.3    98  SER98      -0.2180
    107  N         -9.4030   -1.9410   20.2730 N.3   101  ASP101     -0.1239
    108  CA        -9.0610   -0.5780   20.6880 C.3   101  ASP101      0.1674
    109  C         -7.5670   -0.3060   20.5850 C.2   101  ASP101      0.2266
    110  O         -7.1520    0.7130   20.0440 O.2   101  ASP101     -0.2867
    111  CB        -9.4780   -0.3360   22.1330 C.3   101  ASP101      0.1410
    112  CG       -10.9790   -0.2670   22.3100 C.2   101  ASP101      0.3668
    113  OD1      -11.6750    0.1400   21.3470 O.co2 101  ASP101     -0.2456
    114  OD2      -11.4530   -0.6160   23.4220 O.co2 101  ASP101     -0.2456
    115  N        -12.6260   -7.5370   20.2100 N.3   143  GLN143     -0.1231
    116  CA       -13.5050   -6.7630   21.0800 C.3   143  GLN143      0.1698
    117  C        -13.7780   -7.4520   22.4210 C.2   143  GLN143      0.2592
    118  O        -14.1240   -6.7940   23.3970 O.2   143  GLN143     -0.2718
    119  CB       -14.8070   -6.4330   20.3640 C.3   143  GLN143      0.0381
    120  CG       -15.3880   -5.0950   20.7800 C.3   143  GLN143      0.0905
    121  CD       -14.4640   -3.9300   20.4420 C.2   143  GLN143      0.2608
    122  OE1      -13.8260   -3.3460   21.3250 O.2   143  GLN143     -0.2717
    123  NE2      -14.3990   -3.5810   19.1570 N.am  143  GLN143     -0.0878
    124  N        -13.6030   -8.7680   22.4730 N.am  144  ASN144     -0.1974
    125  CA       -13.8040   -9.5170   23.7140 C.3   144  ASN144      0.1688
    126  C        -12.5010   -9.9080   24.4130 C.2   144  ASN144      0.2292
    127  O        -12.5020  -10.6700   25.3760 O.2   144  ASN144     -0.2864
    128  CB       -14.6390  -10.7700   23.4590 C.3   144  ASN144      0.1181
    129  CG       -16.1130  -10.4620   23.2590 C.2   144  ASN144      0.2629
    130  OD1      -16.6340   -9.4910   23.7970 O.2   144  ASN144     -0.2716
    131  ND2      -16.7940  -11.3020   22.4930 N.am  144  ASN144     -0.0877
    132  N         -9.5940   -8.2370   26.5010 N.3   146  LEU146     -0.1245
    133  CA        -9.3100   -6.9690   27.1530 C.3   146  LEU146      0.1561
    134  C         -7.9410   -6.9040   27.8210 C.2   146  LEU146      0.2260
    135  O         -7.2650   -7.9210   28.0340 O.2   146  LEU146     -0.2867
    136  CB       -10.3910   -6.6400   28.1730 C.3   146  LEU146      0.0270
    137  CG       -11.8280   -6.7870   27.6820 C.3   146  LEU146      0.0019
    138  CD1      -12.7770   -6.2450   28.7370 C.3   146  LEU146      0.0001
    139  CD2      -12.0270   -6.0940   26.3450 C.3   146  LEU146      0.0001
    140  N        -13.4960  -11.9180   28.0100 N.3   156  VAL156     -0.1231
    141  CA       -14.8470  -11.6380   28.4920 C.3   156  VAL156      0.1692
    142  C        -15.9370  -12.1740   27.5720 C.2   156  VAL156      0.2592
    143  O        -15.6710  -12.5940   26.4340 O.2   156  VAL156     -0.2718
    144  CB       -15.1050  -10.1250   28.6860 C.3   156  VAL156      0.0266
    145  CG1      -14.0870   -9.5180   29.6470 C.3   156  VAL156      0.0020
    146  CG2      -15.1230   -9.4150   27.3390 C.3   156  VAL156      0.0020
    147  N        -17.1550  -12.1590   28.1150 N.am  157  ASP157     -0.1974
    148  CA       -18.4200  -12.4030   27.4100 C.3   157  ASP157      0.1709
    149  C        -18.7460  -13.8680   27.1590 C.2   157  ASP157      0.2293
    150  O        -18.3530  -14.4450   26.1490 O.2   157  ASP157     -0.2864
    151  CB       -18.5190  -11.6020   26.1060 C.3   157  ASP157      0.1436
    152  CG       -19.9430  -11.1820   25.7870 C.2   157  ASP157      0.3671
    153  OD1      -20.1080  -10.1400   25.1170 O.co2 157  ASP157     -0.2456
    154  OD2      -20.8980  -11.8760   26.2170 O.co2 157  ASP157     -0.2456
    155  N         -3.8150    7.0160   27.7490 N.3   286  ARG286     -0.1245
    156  CA        -4.6580    7.6030   28.7830 C.3   286  ARG286      0.1563
    157  C         -4.4760    9.1210   28.8480 C.2   286  ARG286      0.2260
    158  O         -3.8590    9.7290   27.9690 O.2   286  ARG286     -0.2867
    159  CB        -4.3610    6.9760   30.1470 C.3   286  ARG286      0.0307
    160  CG        -4.9080    5.5710   30.3180 C.3   286  ARG286      0.0489
    161  CD        -5.9180    5.5100   31.4580 C.3   286  ARG286      0.2205
    162  NE        -7.1570    6.2290   31.1550 N.pl3 286  ARG286     -0.0865
    163  CZ        -8.2500    5.6600   30.6510 C.cat 286  ARG286      0.5346
    164  NH1       -8.2630    4.3600   30.3870 N.pl3 286  ARG286      0.1354
    165  NH2       -9.3300    6.3910   30.4100 N.pl3 286  ARG286      0.1354
@<TRIPOS>BOND
     1   123   121   am
     2   110   109    2
     3   115   116    1
     4   107   108    1
     5   119   120    1
     6   119   116    1
     7   121   120    1
     8   121   122    2
     9   109   108    1
    10   108   111    1
    11   116   117    1
    12   113   112   ar
    13    19    17   am
    14   111   112    1
    15   106   105    1
    16   112   114   ar
    17   117   124   am
    18   117   118    2
    19   124   125    1
    20   131   129   am
    21    17    16    1
    22    17    18    2
    23   104   103    2
    24   129   128    1
    25   129   130    2
    26   105   102    1
    27   103   102    1
    28    16    13    1
    29    23    22    2
    30   128   125    1
    31   125   126    1
    32   102   101    1
    33    22    21    1
    34   126   127    2
    35    13    12    1
    36    13    14    1
    37   101    99   am
    38    12    10   am
    39    14    15    2
    40    14    20   am
    41   153   152   ar
    42    20    21    1
    43    10     9    1
    44    10    11    2
    45   152   151    1
    46   152   154   ar
    47     9     8    1
    48   151   148    1
    49   150   149    2
    50    99   100    2
    51    99    98    1
    52   139   137    1
    53   143   142    2
    54   132   133    1
    55     4     3    2
    56    95    94    2
    57    98    97    1
    58     8     3   am
    59   133   134    1
    60   133   136    1
    61   149   148    1
    62   146   144    1
    63     3     2    1
    64   148   147    1
    65   142   147   am
    66   142   141    1
    67   137   136    1
    68   137   138    1
    69   155   156    1
    70   134   135    2
    71    94    97   am
    72    94    93    1
    73   158   157    2
    74   140   141    1
    75    44    43    1
    76   141   144    1
    77    43    42    1
    78     2     1    1
    79     2     5    1
    80   144   145    1
    81   156   157    1
    82   156   159    1
    83    24    25    1
    84    30    28    1
    85    96    93    1
    86    93    92    1
    87    28    25    1
    88    28    29    1
    89    53    51   ar
    90    52    51   ar
    91     7     5    1
    92    27    26    2
    93     5     6    1
    94    51    50    1
    95    25    26    1
    96    42    41    1
    97   159   160    1
    98   160   161    1
    99   164   163    1
   100   165   163    1
   101    92    90   am
   102    91    90    2
   103    41    40    1
   104   163   162    2
   105    50    49    1
   106    49    46    1
   107    85    84    2
   108    90    89    1
   109   162   161    1
   110    86    87    1
   111    86    83    1
   112    46    45    1
   113    46    47    1
   114    84    83    1
   115    84    88   am
   116    40    37    1
   117    89    88    1
   118    37    38    1
   119    37    36    1
   120    83    82    1
   121    38    39    2
   122    47    48    2
   123    81    79   ar
   124    81    80   ar
   125    60    61    1
   126    60    59    1
   127    79    77   ar
   128    82    73   am
   129    35    32    1
   130    80    78   ar
   131    77    76   ar
   132    59    58    1
   133    73    74    2
   134    73    72    1
   135    78    76   ar
   136    65    64    2
   137    32    33    1
   138    32    31    1
   139    76    75    1
   140    33    34    2
   141    72    75    1
   142    72    71    1
   143    58    55    1
   144    64    71   am
   145    64    63    1
   146    69    68   ar
   147    68    67    1
   148    68    70   ar
   149    67    66    1
   150    66    63    1
   151    63    62    1
   152    62    56   am
   153    56    57    2
   154    56    55    1
   155    55    54    1
