@<TRIPOS>MOLECULE
tmp/4u45A00.pdb
 158 147 0 0 0
SMALL
GASTEIGER

@<TRIPOS>ATOM
      1  N        -21.1760   -1.8850  -17.1840 N.3    20  VAL20      -0.1245
      2  CA       -22.4400   -1.4740  -17.8140 C.3    20  VAL20       0.1561
      3  C        -22.1970   -0.4520  -18.9420 C.2    20  VAL20       0.2260
      4  O        -23.1550    0.1270  -19.4680 O.2    20  VAL20      -0.2867
      5  CB       -23.5310   -1.0010  -16.8060 C.3    20  VAL20       0.0252
      6  CG1      -23.9530   -2.1250  -15.8690 C.3    20  VAL20       0.0019
      7  CG2      -23.0940    0.2380  -16.0290 C.3    20  VAL20       0.0019
      8  N        -19.0800    2.5390  -20.7540 N.3    22  ASN22      -0.1225
      9  CA       -17.9320    3.4480  -20.7260 C.3    22  ASN22       0.1785
     10  C        -18.4460    4.8920  -20.8950 C.2    22  ASN22       0.2597
     11  O        -19.6090    5.0930  -21.2710 O.2    22  ASN22      -0.2718
     12  CB       -16.8980    3.0770  -21.8210 C.3    22  ASN22       0.1169
     13  CG       -17.4800    2.5620  -23.1270 C.2    22  ASN22       0.2627
     14  OD1      -17.9930    3.3200  -23.9600 O.2    22  ASN22      -0.2716
     15  ND2      -17.3930    1.2560  -23.3450 N.am   22  ASN22      -0.0877
     16  N        -17.6030    5.8690  -20.5690 N.am   23  GLY23      -0.1957
     17  CA       -17.9240    7.2860  -20.7120 C.3    23  GLY23       0.1869
     18  C        -17.0780    7.9070  -21.8040 C.2    23  GLY23       0.2309
     19  O        -16.7170    7.2190  -22.7700 O.2    23  GLY23      -0.2863
     20  N        -17.6810    2.3020  -17.0880 N.3    28  VAL28      -0.1245
     21  CA       -18.7630    2.5060  -16.1280 C.3    28  VAL28       0.1561
     22  C        -19.2330    1.1470  -15.6510 C.2    28  VAL28       0.2260
     23  O        -19.6810    0.3270  -16.4490 O.2    28  VAL28      -0.2867
     24  CB       -19.9170    3.4020  -16.6650 C.3    28  VAL28       0.0252
     25  CG1      -21.0140    3.5850  -15.6190 C.3    28  VAL28       0.0019
     26  CG2      -19.3840    4.7580  -17.1020 C.3    28  VAL28       0.0019
     27  N        -23.6790    3.7220   -9.7050 N.3    41  ALA41      -0.1245
     28  CA       -22.8830    3.6570  -10.9190 C.3    41  ALA41       0.1562
     29  C        -21.5070    4.2080  -10.5820 C.2    41  ALA41       0.2260
     30  O        -21.3830    5.2850   -9.9840 O.2    41  ALA41      -0.2867
     31  CB       -23.5220    4.4730  -12.0150 C.3    41  ALA41       0.0290
     32  N        -17.7610    5.1660  -12.1450 N.3    43  LYS43      -0.1245
     33  CA       -16.9650    5.5010  -13.3200 C.3    43  LYS43       0.1561
     34  C        -15.4860    5.3600  -12.9170 C.2    43  LYS43       0.2260
     35  O        -14.9790    6.1560  -12.1190 O.2    43  LYS43      -0.2867
     36  CB       -17.3070    6.9170  -13.8400 C.3    43  LYS43       0.0271
     37  CG       -16.9500    7.1260  -15.3120 C.3    43  LYS43       0.0035
     38  CD       -17.2240    8.5540  -15.7800 C.3    43  LYS43       0.0206
     39  CE       -17.0560    8.6910  -17.2720 C.3    43  LYS43       0.1093
     40  NZ       -17.2350   10.0930  -17.7380 N.3    43  LYS43      -0.1314
     41  N        -14.6630   16.8960  -14.3210 N.3    58  GLU58      -0.1245
     42  CA       -15.9150   16.1270  -14.2820 C.3    58  GLU58       0.1567
     43  C        -16.4530   16.0120  -12.8590 C.2    58  GLU58       0.2260
     44  O        -17.6620   16.1490  -12.6690 O.2    58  GLU58      -0.2867
     45  CB       -15.7640   14.7370  -14.9400 C.3    58  GLU58       0.0388
     46  CG       -17.1070   14.0940  -15.2540 C.3    58  GLU58       0.1160
     47  CD       -17.1300   12.7510  -15.9600 C.2    58  GLU58       0.3649
     48  OE1      -16.0830   12.3460  -16.5190 O.co2  58  GLU58      -0.2457
     49  OE2      -18.2190   12.1240  -15.9970 O.co2  58  GLU58      -0.2457
     50  N        -20.1300   17.4460  -11.7790 N.3    62  LEU62      -0.1245
     51  CA       -21.0040   16.4140  -11.2320 C.3    62  LEU62       0.1561
     52  C        -21.3900   16.7310   -9.7900 C.2    62  LEU62       0.2260
     53  O        -22.5700   16.6500   -9.4720 O.2    62  LEU62      -0.2867
     54  CB       -20.3630   15.0150  -11.3460 C.3    62  LEU62       0.0270
     55  CG       -21.2900   13.7920  -11.1470 C.3    62  LEU62       0.0019
     56  CD1      -22.3980   13.7230  -12.1880 C.3    62  LEU62       0.0001
     57  CD2      -20.4990   12.4990  -11.1080 C.3    62  LEU62       0.0001
     58  N        -21.9240    7.7600   -8.4870 N.3    92  MET92      -0.1230
     59  CA       -23.1870    8.4530   -8.6780 C.3    92  MET92       0.1702
     60  C        -24.3490    7.4570   -8.6500 C.2    92  MET92       0.2592
     61  O        -24.1530    6.2320   -8.6730 O.2    92  MET92      -0.2718
     62  CB       -23.1840    9.1830  -10.0290 C.3    92  MET92       0.0401
     63  CG       -23.1080    8.2450  -11.2240 C.3    92  MET92       0.0596
     64  SD       -22.1710    8.9690  -12.5780 S.3    92  MET92      -0.1393
     65  CE       -20.4920    8.6640  -12.0610 C.3    92  MET92       0.0692
     66  N        -25.5570    8.0120   -8.6730 N.am   93  GLU93      -0.1966
     67  CA       -26.8300    7.3100   -8.6940 C.3    93  GLU93       0.1733
     68  C        -26.9010    6.3250   -9.8590 C.2    93  GLU93       0.2616
     69  O        -26.5260    6.6710  -10.9820 O.2    93  GLU93      -0.2715
     70  CB       -27.9400    8.3730   -8.7440 C.3    93  GLU93       0.0429
     71  CG       -29.2520    7.9860   -9.3930 C.3    93  GLU93       0.1163
     72  CD       -30.2990    9.0860   -9.3910 C.2    93  GLU93       0.3649
     73  OE1      -29.9570   10.2580   -9.6800 O.co2  93  GLU93      -0.2457
     74  OE2      -31.4830    8.7590   -9.1500 O.co2  93  GLU93      -0.2457
     75  N        -27.3150    5.0720   -9.5710 N.am   94  PHE94      -0.1960
     76  CA       -27.4360    4.0270  -10.5890 C.3    94  PHE94       0.1771
     77  C        -28.7710    4.1260  -11.2720 C.2    94  PHE94       0.2620
     78  O        -29.7830    4.3100  -10.5980 O.2    94  PHE94      -0.2715
     79  CB       -27.2360    2.6070  -10.0210 C.3    94  PHE94       0.0574
     80  CG       -26.9920    1.5500  -11.0850 C.ar   94  PHE94      -0.0200
     81  CD1      -25.7980    1.5060  -11.7880 C.ar   94  PHE94      -0.0042
     82  CD2      -27.9730    0.6200  -11.4040 C.ar   94  PHE94      -0.0042
     83  CE1      -25.6010    0.5570  -12.8000 C.ar   94  PHE94      -0.0003
     84  CE2      -27.7530   -0.3600  -12.3830 C.ar   94  PHE94      -0.0003
     85  CZ       -26.5750   -0.3830  -13.0780 C.ar   94  PHE94      -0.0000
     86  N        -28.7830    4.0090  -12.6030 N.am   95  CYS95      -0.1954
     87  CA       -30.0040    4.0640  -13.3870 C.3    95  CYS95       0.1843
     88  C        -30.2190    2.6940  -14.0360 C.2    95  CYS95       0.2626
     89  O        -29.7130    2.4350  -15.1270 O.2    95  CYS95      -0.2714
     90  CB       -29.9250    5.1900  -14.4120 C.3    95  CYS95       0.0997
     91  SG       -29.6020    6.8260  -13.7020 S.3    95  CYS95      -0.0797
     92  N        -30.9260    1.8210  -13.3000 N.am   96  GLY96      -0.1940
     93  CA       -31.1920    0.4130  -13.6010 C.3    96  GLY96       0.2014
     94  C        -31.7110    0.0260  -14.9640 C.2    96  GLY96       0.2639
     95  O        -31.2710   -0.9900  -15.5140 O.2    96  GLY96      -0.2714
     96  N        -32.6620    0.7990  -15.5070 N.am   97  ALA97      -0.1963
     97  CA       -33.3010    0.5010  -16.8050 C.3    97  ALA97       0.1728
     98  C        -32.4340    0.7760  -18.0590 C.2    97  ALA97       0.2617
     99  O        -32.8410    0.4440  -19.1670 O.2    97  ALA97      -0.2715
    100  CB       -34.6360    1.2220  -16.9090 C.3    97  ALA97       0.0334
    101  N        -31.2420    1.3270  -17.8700 N.am   98  GLY98      -0.1940
    102  CA       -30.3050    1.6340  -18.9460 C.3    98  GLY98       0.2014
    103  C        -30.6220    2.8910  -19.7340 C.2    98  GLY98       0.2639
    104  O        -31.4910    3.6960  -19.3570 O.2    98  GLY98      -0.2714
    105  N        -29.9040    3.0630  -20.8470 N.am   99  SER99      -0.1949
    106  CA       -30.0460    4.2270  -21.7220 C.3    99  SER99       0.1924
    107  C        -31.3100    4.2040  -22.5670 C.2    99  SER99       0.2314
    108  O        -31.9020    3.1500  -22.7740 O.2    99  SER99      -0.2863
    109  CB       -28.8190    4.3850  -22.6140 C.3    99  SER99       0.2116
    110  OG       -28.9520    3.5760  -23.7690 O.3    99  SER99      -0.2180
    111  N        -30.7760    1.9140  -25.5280 N.3   102  ASP102     -0.1239
    112  CA       -31.0940    0.5350  -25.1640 C.3   102  ASP102      0.1674
    113  C        -32.5980    0.3040  -25.2510 C.2   102  ASP102      0.2266
    114  O        -33.0130   -0.7070  -25.8090 O.2   102  ASP102     -0.2867
    115  CB       -30.5880    0.2100  -23.7530 C.3   102  ASP102      0.1410
    116  CG       -29.0950    0.4080  -23.5260 C.2   102  ASP102      0.3668
    117  OD1      -28.2950   -0.0170  -24.4080 O.co2 102  ASP102     -0.2456
    118  OD2      -28.7230    0.9790  -22.4540 O.co2 102  ASP102     -0.2456
    119  N        -27.4630    7.6580  -25.5000 N.3   144  GLN144     -0.1231
    120  CA       -26.5540    6.9210  -24.6240 C.3   144  GLN144      0.1698
    121  C        -26.3060    7.6280  -23.2710 C.2   144  GLN144      0.2592
    122  O        -26.0460    6.9610  -22.2560 O.2   144  GLN144     -0.2718
    123  CB       -25.2450    6.6080  -25.3560 C.3   144  GLN144      0.0381
    124  CG       -24.7010    5.2200  -25.0370 C.3   144  GLN144      0.0905
    125  CD       -25.5630    4.0930  -25.5680 C.2   144  GLN144      0.2608
    126  OE1      -25.6480    3.8580  -26.7770 O.2   144  GLN144     -0.2717
    127  NE2      -26.1850    3.3440  -24.6700 N.am  144  GLN144     -0.0878
    128  N        -26.4680    8.9640  -23.2440 N.am  145  ASN145     -0.1974
    129  CA       -26.3060    9.7890  -22.0410 C.3   145  ASN145      0.1688
    130  C        -27.6290   10.1740  -21.3960 C.2   145  ASN145      0.2292
    131  O        -27.6710   11.0820  -20.5640 O.2   145  ASN145     -0.2864
    132  CB       -25.4270   11.0280  -22.3240 C.3   145  ASN145      0.1181
    133  CG       -23.9820   10.6810  -22.5630 C.2   145  ASN145      0.2629
    134  OD1      -23.5100    9.6230  -22.1710 O.2   145  ASN145     -0.2716
    135  ND2      -23.2420   11.5530  -23.2150 N.am  145  ASN145     -0.0877
    136  N        -30.4850    8.2700  -19.3810 N.3   147  LEU147     -0.1245
    137  CA       -30.8010    7.0190  -18.7220 C.3   147  LEU147      0.1561
    138  C        -32.1180    7.0070  -18.0010 C.2   147  LEU147      0.2260
    139  O        -32.6680    8.0540  -17.6230 O.2   147  LEU147     -0.2867
    140  CB       -29.6810    6.6050  -17.7760 C.3   147  LEU147      0.0270
    141  CG       -28.2500    6.8830  -18.2150 C.3   147  LEU147      0.0019
    142  CD1      -27.3240    6.5510  -17.1280 C.3   147  LEU147      0.0001
    143  CD2      -27.8580    6.0750  -19.4460 C.3   147  LEU147      0.0001
    144  N        -26.4900   12.0270  -17.7280 N.3   157  VAL157     -0.1231
    145  CA       -25.1520   11.6470  -17.2730 C.3   157  VAL157      0.1692
    146  C        -24.0680   12.2130  -18.2010 C.2   157  VAL157      0.2592
    147  O        -24.3580   12.7440  -19.2740 O.2   157  VAL157     -0.2718
    148  CB       -24.9530   10.1160  -17.0870 C.3   157  VAL157      0.0266
    149  CG1      -25.8770    9.5390  -16.0210 C.3   157  VAL157      0.0020
    150  CG2      -25.0610    9.3620  -18.4170 C.3   157  VAL157      0.0020
    151  N        -22.8070   12.0250  -17.7700 N.am  158  ASP158     -0.1974
    152  CA       -21.5350   12.3300  -18.3990 C.3   158  ASP158      0.1709
    153  C        -21.2660   13.8080  -18.6020 C.2   158  ASP158      0.2293
    154  O        -21.7460   14.4370  -19.5530 O.2   158  ASP158     -0.2864
    155  CB       -21.3250   11.5530  -19.7150 C.3   158  ASP158      0.1436
    156  CG       -19.8750   11.2340  -20.0280 C.2   158  ASP158      0.3671
    157  OD1      -18.9690   11.8970  -19.4430 O.co2 158  ASP158     -0.2456
    158  OD2      -19.6340   10.3230  -20.8550 O.co2 158  ASP158     -0.2456
@<TRIPOS>BOND
     1   126   125    2
     2   114   113    2
     3   125   124    1
     4   125   127   am
     5   111   112    1
     6   119   120    1
     7   123   124    1
     8   123   120    1
     9   113   112    1
    10   112   115    1
    11   120   121    1
    12   117   116   ar
    13    14    13    2
    14   110   109    1
    15   115   116    1
    16   116   118   ar
    17    15    13   am
    18   121   128   am
    19   121   122    2
    20   128   129    1
    21   135   133   am
    22    13    12    1
    23   108   107    2
    24    19    18    2
    25   109   106    1
    26   107   106    1
    27   133   132    1
    28   133   134    2
    29   132   129    1
    30   129   130    1
    31    12     9    1
    32    18    17    1
    33   106   105    1
    34   130   131    2
    35    11    10    2
    36    10     9    1
    37    10    16   am
    38   158   156   ar
    39   105   103   am
    40     8     9    1
    41    17    16    1
    42   156   155    1
    43   156   157   ar
    44   103   104    2
    45   103   102    1
    46   155   152    1
    47   154   153    2
    48     4     3    2
    49   143   141    1
    50   136   137    1
    51   147   146    2
    52    99    98    2
    53   102   101    1
    54     3     2    1
    55   137   138    1
    56   137   140    1
    57   153   152    1
    58   150   148    1
    59   152   151    1
    60   141   140    1
    61   141   142    1
    62   146   151   am
    63   146   145    1
    64    98   101   am
    65    98    97    1
    66   138   139    2
    67     2     1    1
    68     2     5    1
    69    40    39    1
    70   144   145    1
    71   145   148    1
    72    39    38    1
    73    26    24    1
    74    20    21    1
    75   148   149    1
    76   100    97    1
    77     5     7    1
    78     5     6    1
    79    97    96    1
    80    24    21    1
    81    24    25    1
    82    48    47   ar
    83    23    22    2
    84    21    22    1
    85    49    47   ar
    86    47    46    1
    87    38    37    1
    88    95    94    2
    89    96    94   am
    90    37    36    1
    91    46    45    1
    92    89    88    2
    93    94    93    1
    94    45    42    1
    95    90    91    1
    96    90    87    1
    97    41    42    1
    98    42    43    1
    99    88    87    1
   100    88    92   am
   101    36    33    1
   102    93    92    1
   103    87    86    1
   104    33    34    1
   105    33    32    1
   106    85    83   ar
   107    85    84   ar
   108    34    35    2
   109    43    44    2
   110    83    81   ar
   111    86    77   am
   112    64    65    1
   113    64    63    1
   114    84    82   ar
   115    56    55    1
   116    31    28    1
   117    81    80   ar
   118    50    51    1
   119    82    80   ar
   120    54    51    1
   121    54    55    1
   122    77    78    2
   123    77    76    1
   124    51    52    1
   125    63    62    1
   126    55    57    1
   127    80    79    1
   128    69    68    2
   129    28    29    1
   130    28    27    1
   131    76    79    1
   132    76    75    1
   133    29    30    2
   134    62    59    1
   135    68    75   am
   136    68    67    1
   137    52    53    2
   138    73    72   ar
   139    71    72    1
   140    71    70    1
   141    72    74   ar
   142    70    67    1
   143    67    66    1
   144    59    60    1
   145    59    58    1
   146    66    60   am
   147    61    60    2
