@<TRIPOS>MOLECULE
tmp/4u4aC00.pdb
 143 137 0 0 0
SMALL
GASTEIGER

@<TRIPOS>ATOM
      1  N         56.7920  141.5670  -18.6360 N.3     7  VAL7       -0.1231
      2  CA        56.6500  142.9920  -18.3620 C.3     7  VAL7        0.1692
      3  C         56.6200  143.1990  -16.8600 C.2     7  VAL7        0.2593
      4  O         56.5470  142.2360  -16.0930 O.2     7  VAL7       -0.2718
      5  CB        55.3590  143.5950  -18.9580 C.3     7  VAL7        0.0266
      6  CG1       55.4370  143.5930  -20.4740 C.3     7  VAL7        0.0020
      7  CG2       54.1150  142.8670  -18.4560 C.3     7  VAL7        0.0020
      8  N         56.6730  144.4550  -16.4320 N.am    8  SER8       -0.1938
      9  CA        56.4340  144.7450  -15.0400 C.3     8  SER8        0.2055
     10  C         56.0450  146.1820  -14.8780 C.2     8  SER8        0.2644
     11  O         56.4780  147.0320  -15.6500 O.2     8  SER8       -0.2714
     12  CB        57.6640  144.4430  -14.1980 C.3     8  SER8        0.2130
     13  OG        57.2770  144.1840  -12.8750 O.3     8  SER8       -0.2179
     14  N         55.2340  146.4450  -13.8580 N.am    9  GLY9       -0.1939
     15  CA        54.7880  147.8050  -13.5400 C.3     9  GLY9        0.2014
     16  C         53.7390  148.3450  -14.5030 C.2     9  GLY9        0.2638
     17  O         53.5030  149.5590  -14.5800 O.2     9  GLY9       -0.2714
     18  N         53.0800  147.4370  -15.2080 N.am   10  LEU10      -0.1977
     19  CA        52.1170  147.8080  -16.2300 C.3    10  LEU10       0.1596
     20  C         50.7120  147.7200  -15.6790 C.2    10  LEU10       0.2287
     21  O         50.3990  146.8160  -14.8960 O.2    10  LEU10      -0.2864
     22  CB        52.2310  146.8750  -17.4320 C.3    10  LEU10       0.0297
     23  CG        53.2760  147.2050  -18.5030 C.3    10  LEU10       0.0022
     24  CD1       52.8470  148.3970  -19.3460 C.3    10  LEU10       0.0001
     25  CD2       54.6610  147.4340  -17.9160 C.3    10  LEU10       0.0001
     26  N         46.8260  146.7990  -16.2750 N.3    12  PRO12      -0.2116
     27  CA        46.2570  145.8220  -17.1930 C.3    12  PRO12       0.1372
     28  C         46.1140  146.5190  -18.5340 C.2    12  PRO12       0.2244
     29  O         46.7880  146.1620  -19.4990 O.2    12  PRO12      -0.2868
     30  CB        44.8840  145.5020  -16.5840 C.3    12  PRO12       0.0268
     31  CG        44.6320  146.5590  -15.5460 C.3    12  PRO12       0.0207
     32  CD        45.9810  147.0130  -15.0860 C.3    12  PRO12       0.0892
     33  N         60.3710  152.3250  -11.3800 N.3    51  GLU51      -0.1231
     34  CA        60.2800  151.7780  -10.0280 C.3    51  GLU51       0.1699
     35  C         60.9320  150.4000   -9.9840 C.2    51  GLU51       0.2592
     36  O         61.3030  149.8620  -11.0260 O.2    51  GLU51      -0.2718
     37  CB        58.8190  151.6840   -9.5760 C.3    51  GLU51       0.0402
     38  CG        58.2800  152.9500   -8.9250 C.3    51  GLU51       0.1161
     39  CD        56.9270  152.7440   -8.2460 C.2    51  GLU51       0.3649
     40  OE1       56.4740  153.6370   -7.5110 O.co2  51  GLU51      -0.2457
     41  OE2       56.3050  151.6860   -8.4350 O.co2  51  GLU51      -0.2457
     42  N         61.0460  149.8270   -8.7880 N.am   52  ARG52      -0.1966
     43  CA        61.8020  148.5950   -8.5790 C.3    52  ARG52       0.1729
     44  C         60.9070  147.4450   -8.1790 C.2    52  ARG52       0.2617
     45  O         60.5610  147.2530   -7.0310 O.2    52  ARG52      -0.2715
     46  CB        62.8790  148.8220   -7.5350 C.3    52  ARG52       0.0348
     47  CG        63.6170  150.1370   -7.7440 C.3    52  ARG52       0.0492
     48  CD        64.9650  150.1030   -7.0680 C.3    52  ARG52       0.2205
     49  NE        64.8270  149.8220   -5.6480 N.pl3  52  ARG52      -0.0865
     50  CZ        65.8090  149.3800   -4.8680 C.cat  52  ARG52       0.5346
     51  NH1       67.0300  149.1360   -5.3580 N.pl3  52  ARG52       0.1354
     52  NH2       65.5660  149.1730   -3.5780 N.pl3  52  ARG52       0.1354
     53  N         60.5410  146.6910   -9.1890 N.am   53  THR53      -0.1937
     54  CA        59.6910  145.5410   -9.0480 C.3    53  THR53       0.2028
     55  C         60.6210  144.3650   -8.9190 C.2    53  THR53       0.2642
     56  O         61.8130  144.4780   -9.2250 O.2    53  THR53      -0.2714
     57  CB        58.8350  145.3490  -10.3250 C.3    53  THR53       0.1808
     58  OG1       59.6860  145.0270  -11.4410 O.3    53  THR53      -0.2208
     59  CG2       58.0380  146.6290  -10.6640 C.3    53  THR53       0.0379
     60  N         60.0880  143.2160   -8.5390 N.am   54  LEU54      -0.1963
     61  CA        60.9270  142.0290   -8.4750 C.3    54  LEU54       0.1728
     62  C         61.5250  141.6880   -9.8360 C.2    54  LEU54       0.2616
     63  O         62.6940  141.3110   -9.9430 O.2    54  LEU54      -0.2715
     64  CB        60.1560  140.8250   -7.9390 C.3    54  LEU54       0.0311
     65  CG        60.9290  139.4890   -7.9450 C.3    54  LEU54       0.0022
     66  CD1       62.3620  139.6240   -7.4390 C.3    54  LEU54       0.0001
     67  CD2       60.2290  138.4290   -7.1070 C.3    54  LEU54       0.0001
     68  N         60.7190  141.7940  -10.8770 N.am   55  LYS55      -0.1977
     69  CA        61.2010  141.4570  -12.2060 C.3    55  LYS55       0.1596
     70  C         62.3360  142.3850  -12.6170 C.2    55  LYS55       0.2287
     71  O         63.3250  141.9550  -13.2120 O.2    55  LYS55      -0.2864
     72  CB        60.0500  141.4950  -13.2090 C.3    55  LYS55       0.0298
     73  CG        59.0670  140.3520  -13.0110 C.3    55  LYS55       0.0038
     74  CD        57.7250  140.6400  -13.6540 C.3    55  LYS55       0.0206
     75  CE        56.6240  139.8170  -13.0080 C.3    55  LYS55       0.1093
     76  NZ        55.2870  140.1990  -13.5300 N.3    55  LYS55      -0.1314
     77  N         64.6540  143.6550  -10.7460 N.3    57  PHE57      -0.1241
     78  CA        65.8880  143.1090  -10.1580 C.3    57  PHE57       0.1605
     79  C         66.3890  141.8770  -10.9130 C.2    57  PHE57       0.2264
     80  O         67.5570  141.8010  -11.2850 O.2    57  PHE57      -0.2867
     81  CB        65.7050  142.7600   -8.6670 C.3    57  PHE57       0.0534
     82  CG        65.3660  143.9490   -7.7890 C.ar   57  PHE57      -0.0203
     83  CD1       66.2090  145.0590   -7.7260 C.ar   57  PHE57      -0.0042
     84  CD2       64.2110  143.9480   -7.0140 C.ar   57  PHE57      -0.0042
     85  CE1       65.8940  146.1430   -6.9200 C.ar   57  PHE57      -0.0003
     86  CE2       63.9010  145.0300   -6.2050 C.ar   57  PHE57      -0.0003
     87  CZ        64.7410  146.1240   -6.1570 C.ar   57  PHE57      -0.0000
     88  N         64.2970  154.9060   -9.3960 N.3    93  VAL93      -0.1231
     89  CA        63.9220  155.9290   -8.3920 C.3    93  VAL93       0.1692
     90  C         64.8460  156.0110   -7.1530 C.2    93  VAL93       0.2591
     91  O         65.2490  157.0990   -6.7190 O.2    93  VAL93      -0.2718
     92  CB        62.4650  155.7150   -7.8980 C.3    93  VAL93       0.0266
     93  CG1       61.4860  155.8910   -9.0500 C.3    93  VAL93       0.0020
     94  CG2       62.2850  154.3470   -7.2290 C.3    93  VAL93       0.0020
     95  N         65.2040  154.8450   -6.6260 N.am   94  VAL94      -0.1980
     96  CA        65.9810  154.7410   -5.4060 C.3    94  VAL94       0.1595
     97  C         67.4420  155.0610   -5.6680 C.2    94  VAL94       0.2287
     98  O         68.0090  155.9920   -5.0880 O.2    94  VAL94      -0.2864
     99  CB        65.9010  153.3070   -4.8710 C.3    94  VAL94       0.0276
    100  CG1       66.7730  153.1480   -3.6310 C.3    94  VAL94       0.0022
    101  CG2       64.4490  152.9190   -4.6040 C.3    94  VAL94       0.0022
    102  N         59.1600  139.0200    2.7590 N.3   126  THR126     -0.1203
    103  CA        57.8530  139.3940    2.2000 C.3   126  THR126      0.1994
    104  C         58.0040  139.8350    0.7470 C.2   126  THR126      0.2618
    105  O         59.0690  140.3380    0.3530 O.2   126  THR126     -0.2717
    106  CB        57.1790  140.5560    2.9670 C.3   126  THR126      0.1784
    107  OG1       57.7970  141.8040    2.6010 O.3   126  THR126     -0.2211
    108  CG2       57.2390  140.3370    4.4700 C.3   126  THR126      0.0376
    109  N         56.9510  139.6210   -0.0540 N.am  127  ASN127     -0.1960
    110  CA        57.0070  139.9880   -1.4490 C.3   127  ASN127      0.1819
    111  C         58.2410  139.3270   -2.0310 C.2   127  ASN127      0.2621
    112  O         58.8480  139.8670   -2.9360 O.2   127  ASN127     -0.2715
    113  CB        57.0380  141.5170   -1.6150 C.3   127  ASN127      0.1195
    114  CG        55.9190  142.2070   -0.8620 C.2   127  ASN127      0.2630
    115  OD1       55.6300  141.8750    0.2860 O.2   127  ASN127     -0.2716
    116  ND2       55.2870  143.1860   -1.5030 N.am  127  ASN127     -0.0877
    117  N         58.6430  138.1880   -1.4550 N.am  128  MET128     -0.1977
    118  CA        59.6850  137.3670   -1.9830 C.3   128  MET128      0.1605
    119  C         59.4300  135.9330   -1.5330 C.2   128  MET128      0.2287
    120  O         58.9310  135.6970   -0.4190 O.2   128  MET128     -0.2864
    121  CB        61.0290  137.8090   -1.4110 C.3   128  MET128      0.0413
    122  CG        61.4910  139.1790   -1.7830 C.3   128  MET128      0.0598
    123  SD        61.7110  139.4750   -3.5370 S.3   128  MET128     -0.1393
    124  CE        62.8630  138.2200   -4.0980 C.3   128  MET128      0.0692
    125  N         68.5160  142.8170    3.3830 N.3   188  ARG188     -0.1245
    126  CA        68.2140  142.5800    1.9810 C.3   188  ARG188      0.1563
    127  C         68.6820  143.7620    1.1210 C.2   188  ARG188      0.2260
    128  O         69.2080  143.5830    0.0130 O.2   188  ARG188     -0.2867
    129  CB        66.7030  142.3820    1.8350 C.3   188  ARG188      0.0307
    130  CG        66.2720  141.7810    0.5120 C.3   188  ARG188      0.0489
    131  CD        64.8500  141.2440    0.5880 C.3   188  ARG188      0.2205
    132  NE        63.8810  142.2930    0.8740 N.pl3 188  ARG188     -0.0865
    133  CZ        62.5760  142.0830    1.0130 C.cat 188  ARG188      0.5346
    134  NH1       62.0670  140.8580    0.9000 N.pl3 188  ARG188      0.1354
    135  NH2       61.7770  143.1070    1.2760 N.pl3 188  ARG188      0.1354
    136  N         69.7750  144.0870   -3.0180 N.3   192  LEU192     -0.1245
    137  CA        68.9640  144.8230   -3.9640 C.3   192  LEU192      0.1561
    138  C         69.7320  145.9740   -4.5990 C.2   192  LEU192      0.2260
    139  O         69.7350  146.1310   -5.8110 O.2   192  LEU192     -0.2867
    140  CB        67.7290  145.3660   -3.2480 C.3   192  LEU192      0.0270
    141  CG        66.8520  144.3080   -2.5580 C.3   192  LEU192      0.0019
    142  CD1       65.6900  144.9490   -1.8030 C.3   192  LEU192      0.0001
    143  CD2       66.3370  143.3020   -3.5740 C.3   192  LEU192      0.0001
@<TRIPOS>BOND
     1     6     5    1
     2    29    28    2
     3    24    23    1
     4     5     7    1
     5     5     2    1
     6     1     2    1
     7    28    27    1
     8    23    25    1
     9    23    22    1
    10     2     3    1
    11    22    19    1
    12    27    30    1
    13    27    26    1
    14     3     8   am
    15     3     4    2
    16    30    31    1
    17     8     9    1
    18    26    32    1
    19    19    20    1
    20    19    18    1
    21    20    21    2
    22    11    10    2
    23    31    32    1
    24    18    16   am
    25     9    10    1
    26     9    12    1
    27    10    14   am
    28    17    16    2
    29    16    15    1
    30    12    13    1
    31    14    15    1
    32    74    73    1
    33    74    75    1
    34    76    75    1
    35    71    70    2
    36    72    73    1
    37    72    69    1
    38    70    69    1
    39    69    68    1
    40    58    57    1
    41    33    34    1
    42    80    79    2
    43    36    35    2
    44    79    78    1
    45    68    62   am
    46    77    78    1
    47    59    57    1
    48    57    54    1
    49    78    81    1
    50    34    35    1
    51    34    37    1
    52    35    42   am
    53    63    62    2
    54    62    61    1
    55    37    38    1
    56    88    89    1
    57    56    55    2
    58    53    54    1
    59    53    44   am
    60    93    92    1
    61    54    55    1
    62    38    39    1
    63    55    60   am
    64    42    43    1
    65    81    82    1
    66    43    44    1
    67    43    46    1
    68    60    61    1
    69    61    64    1
    70    41    39   ar
    71    89    92    1
    72    89    90    1
    73    39    40   ar
    74    44    45    2
    75    65    64    1
    76    65    66    1
    77    65    67    1
    78    92    94    1
    79    82    83   ar
    80    82    84   ar
    81    47    46    1
    82    47    48    1
    83    83    85   ar
    84    90    91    2
    85    90    95   am
    86    48    49    1
    87    84    86   ar
    88    85    87   ar
    89    95    96    1
    90    86    87   ar
    91   139   138    2
    92    97    96    1
    93    97    98    2
    94    49    50    2
    95    96    99    1
    96    51    50    1
    97    99   101    1
    98    99   100    1
    99    50    52    1
   100   138   137    1
   101   124   123    1
   102   137   140    1
   103   137   136    1
   104   143   141    1
   105   123   122    1
   106   140   141    1
   107   112   111    2
   108   141   142    1
   109   111   117   am
   110   111   110    1
   111   118   119    1
   112   118   117    1
   113   118   121    1
   114   122   121    1
   115   113   110    1
   116   113   114    1
   117   119   120    2
   118   116   114   am
   119   110   109    1
   120   114   115    2
   121   109   104   am
   122   128   127    2
   123   105   104    2
   124   130   131    1
   125   130   129    1
   126   131   132    1
   127   104   103    1
   128   132   133    2
   129   134   133    1
   130   133   135    1
   131   127   126    1
   132   129   126    1
   133   126   125    1
   134   103   102    1
   135   103   106    1
   136   107   106    1
   137   106   108    1
