@<TRIPOS>MOLECULE
tmp/4u4aA00.pdb
 143 138 0 0 0
SMALL
GASTEIGER

@<TRIPOS>ATOM
      1  N         66.3430  158.5870   26.3680 N.3    10  SER10      -0.1202
      2  CA        66.1460  159.9930   26.6630 C.3    10  SER10       0.2020
      3  C         64.7260  160.2520   27.0430 C.2    10  SER10       0.2619
      4  O         63.8350  159.5310   26.5810 O.2    10  SER10      -0.2717
      5  CB        66.4850  160.8570   25.4670 C.3    10  SER10       0.2103
      6  OG        66.8140  162.1530   25.9000 O.3    10  SER10      -0.2182
      7  N         64.5160  161.2770   27.8780 N.am   11  GLY11      -0.1942
      8  CA        63.1700  161.6560   28.3540 C.3    11  GLY11       0.2014
      9  C         62.5850  160.6920   29.3810 C.2    11  GLY11       0.2639
     10  O         61.3710  160.6410   29.6080 O.2    11  GLY11      -0.2714
     11  N         63.4670  159.9250   30.0090 N.am   12  LEU12      -0.1963
     12  CA        63.0730  158.8910   30.9300 C.3    12  LEU12       0.1728
     13  C         63.2280  159.4080   32.3240 C.2    12  LEU12       0.2617
     14  O         64.1860  160.1040   32.6430 O.2    12  LEU12      -0.2715
     15  CB        63.9500  157.6400   30.7620 C.3    12  LEU12       0.0311
     16  CG        63.5440  156.6080   29.6870 C.3    12  LEU12       0.0022
     17  CD1       62.3180  155.8130   30.1060 C.3    12  LEU12       0.0001
     18  CD2       63.3280  157.2350   28.3150 C.3    12  LEU12       0.0001
     19  N         62.2880  159.0220   33.1690 N.am   13  THR13      -0.1937
     20  CA        62.4490  159.2110   34.5930 C.3    13  THR13       0.2013
     21  C         63.5590  158.2700   35.0540 C.2    13  THR13       0.2484
     22  O         63.8390  157.2690   34.3740 O.2    13  THR13      -0.2729
     23  CB        61.1740  158.8520   35.3760 C.3    13  THR13       0.1807
     24  OG1       60.8680  157.4660   35.1880 O.3    13  THR13      -0.2208
     25  CG2       59.9930  159.7120   34.9330 C.3    13  THR13       0.0379
     26  N         64.2060  158.5900   36.1990 N.am   14  PRO14      -0.2726
     27  CA        65.1450  157.6080   36.7210 C.3    14  PRO14       0.1402
     28  C         64.3850  156.3170   36.8250 C.2    14  PRO14       0.2269
     29  O         64.6790  155.3500   36.1240 O.2    14  PRO14      -0.2865
     30  CB        65.5180  158.1600   38.1090 C.3    14  PRO14       0.0296
     31  CG        64.5370  159.2530   38.4050 C.3    14  PRO14       0.0237
     32  CD        64.0950  159.7750   37.0720 C.3    14  PRO14       0.0939
     33  N         58.7670  164.1280   22.8660 N.3    53  GLU53      -0.1231
     34  CA        59.3680  165.4520   22.9970 C.3    53  GLU53       0.1699
     35  C         60.7370  165.4290   22.3470 C.2    53  GLU53       0.2592
     36  O         61.2090  164.3900   21.9350 O.2    53  GLU53      -0.2718
     37  CB        59.4920  165.8720   24.4610 C.3    53  GLU53       0.0402
     38  CG        58.2780  166.6030   25.0110 C.3    53  GLU53       0.1161
     39  CD        58.5720  167.3080   26.3270 C.2    53  GLU53       0.3649
     40  OE1       57.7590  168.1630   26.7500 O.co2  53  GLU53      -0.2457
     41  OE2       59.6150  167.0070   26.9490 O.co2  53  GLU53      -0.2457
     42  N         61.3530  166.6010   22.2510 N.am   54  ARG54      -0.1966
     43  CA        62.5770  166.7830   21.4890 C.3    54  ARG54       0.1729
     44  C         63.7410  167.0970   22.3930 C.2    54  ARG54       0.2617
     45  O         63.9600  168.2340   22.8090 O.2    54  ARG54      -0.2715
     46  CB        62.3820  167.8850   20.4650 C.3    54  ARG54       0.0348
     47  CG        61.0560  167.7640   19.7260 C.3    54  ARG54       0.0492
     48  CD        61.1040  168.4920   18.4050 C.3    54  ARG54       0.2205
     49  NE        61.4240  169.9020   18.5930 N.pl3  54  ARG54      -0.0865
     50  CZ        61.8940  170.7010   17.6410 C.cat  54  ARG54       0.5346
     51  NH1       62.1230  170.2450   16.4060 N.pl3  54  ARG54       0.1354
     52  NH2       62.1400  171.9700   17.9250 N.pl3  54  ARG54       0.1354
     53  N         64.4610  166.0450   22.7130 N.am   55  THR55      -0.1937
     54  CA        65.6040  166.1140   23.5740 C.3    55  THR55       0.2028
     55  C         66.7730  166.1990   22.6730 C.2    55  THR55       0.2642
     56  O         66.6450  165.9430   21.4830 O.2    55  THR55      -0.2714
     57  CB        65.7340  164.8090   24.3880 C.3    55  THR55       0.1808
     58  OG1       66.0060  163.7070   23.5080 O.3    55  THR55      -0.2208
     59  CG2       64.4400  164.4950   25.1900 C.3    55  THR55       0.0379
     60  N         67.9290  166.5120   23.2280 N.am   56  LEU56      -0.1963
     61  CA        69.1250  166.5450   22.4010 C.3    56  LEU56       0.1728
     62  C         69.4350  165.1960   21.7510 C.2    56  LEU56       0.2616
     63  O         69.7810  165.1100   20.5800 O.2    56  LEU56      -0.2715
     64  CB        70.3290  166.9920   23.1970 C.3    56  LEU56       0.0311
     65  CG        71.6510  166.9410   22.4080 C.3    56  LEU56       0.0022
     66  CD1       71.5540  167.5180   21.0100 C.3    56  LEU56       0.0001
     67  CD2       72.7400  167.6950   23.1480 C.3    56  LEU56       0.0001
     68  N         69.2900  164.1370   22.5040 N.am   57  LYS57      -0.1977
     69  CA        69.5450  162.8180   21.9550 C.3    57  LYS57       0.1596
     70  C         68.5830  162.5100   20.8150 C.2    57  LYS57       0.2287
     71  O         68.9690  161.9230   19.8110 O.2    57  LYS57      -0.2864
     72  CB        69.4720  161.7550   23.0670 C.3    57  LYS57       0.0298
     73  CG        70.6420  161.8390   24.0490 C.3    57  LYS57       0.0038
     74  CD        70.3290  161.1510   25.3590 C.3    57  LYS57       0.0206
     75  CE        71.2200  161.6940   26.4560 C.3    57  LYS57       0.1093
     76  NZ        70.8070  161.1440   27.7780 N.3    57  LYS57      -0.1314
     77  N         67.3810  164.5460   18.5890 N.3    59  PHE59      -0.1241
     78  CA        67.9600  165.1320   17.3780 C.3    59  PHE59       0.1605
     79  C         69.1590  164.3230   16.8490 C.2    59  PHE59       0.2264
     80  O         69.2280  164.0030   15.6700 O.2    59  PHE59      -0.2867
     81  CB        68.3880  166.5910   17.6140 C.3    59  PHE59       0.0534
     82  CG        67.2520  167.5120   17.9770 C.ar   59  PHE59      -0.0203
     83  CD1       66.1340  167.6490   17.1520 C.ar   59  PHE59      -0.0042
     84  CD2       67.2960  168.2550   19.1370 C.ar   59  PHE59      -0.0042
     85  CE1       65.0830  168.5080   17.4810 C.ar   59  PHE59      -0.0003
     86  CE2       66.2360  169.0940   19.4760 C.ar   59  PHE59      -0.0003
     87  CZ        65.1300  169.2230   18.6480 C.ar   59  PHE59      -0.0000
     88  N         56.2700  166.3770   18.9700 N.3    95  VAL95      -0.1231
     89  CA        55.2690  167.3750   19.3760 C.3    95  VAL95       0.1692
     90  C         55.2150  168.6130   18.4880 C.2    95  VAL95       0.2591
     91  O         54.1420  169.0960   18.1190 O.2    95  VAL95      -0.2718
     92  CB        55.4970  167.8180   20.8490 C.3    95  VAL95       0.0266
     93  CG1       55.2720  166.6440   21.8110 C.3    95  VAL95       0.0020
     94  CG2       56.8870  168.4180   21.0610 C.3    95  VAL95       0.0020
     95  N         56.3920  169.1210   18.1620 N.am   96  VAL96      -0.1980
     96  CA        56.5350  170.3840   17.4440 C.3    96  VAL96       0.1595
     97  C         56.2160  170.1860   15.9730 C.2    96  VAL96       0.2287
     98  O         55.3150  170.8240   15.4320 O.2    96  VAL96      -0.2864
     99  CB        57.9870  170.8710   17.5400 C.3    96  VAL96       0.0276
    100  CG1       58.1940  172.1300   16.7210 C.3    96  VAL96       0.0022
    101  CG2       58.3850  171.0660   18.9970 C.3    96  VAL96       0.0022
    102  N         72.4660  177.4920   24.5910 N.3   128  THR128     -0.1203
    103  CA        72.1010  176.8520   25.8520 C.3   128  THR128      0.1994
    104  C         71.6210  175.4270   25.6100 C.2   128  THR128      0.2618
    105  O         71.0710  175.1190   24.5570 O.2   128  THR128     -0.2717
    106  CB        70.9710  177.6240   26.5920 C.3   128  THR128      0.1784
    107  OG1       69.6990  177.3630   25.9840 O.3   128  THR128     -0.2211
    108  CG2       71.2190  179.1460   26.6100 C.3   128  THR128      0.0376
    109  N         71.8050  174.5730   26.6080 N.am  129  ASN129     -0.1960
    110  CA        71.1390  173.2580   26.6610 C.3   129  ASN129      0.1819
    111  C         71.5340  172.3390   25.5540 C.2   129  ASN129      0.2621
    112  O         70.9890  171.2470   25.4200 O.2   129  ASN129     -0.2715
    113  CB        69.6500  173.4390   26.6110 C.3   129  ASN129      0.1195
    114  CG        69.2290  174.6590   27.3590 C.2   129  ASN129      0.2630
    115  OD1       69.8650  175.7070   27.2760 O.2   129  ASN129     -0.2716
    116  ND2       68.1840  174.5230   28.1320 N.am  129  ASN129     -0.0877
    117  N         72.4670  172.8370   24.7610 N.am  130  MET130     -0.1977
    118  CA        73.3550  172.0280   23.9760 C.3   130  MET130      0.1605
    119  C         74.4700  172.9450   23.5550 C.2   130  MET130      0.2287
    120  O         74.2390  174.0350   23.0290 O.2   130  MET130     -0.2864
    121  CB        72.7230  171.3920   22.7490 C.3   130  MET130      0.0413
    122  CG        72.7570  172.2040   21.4490 C.3   130  MET130      0.0598
    123  SD        71.7000  171.4120   20.2190 S.3   130  MET130     -0.1393
    124  CE        70.1220  171.9020   20.8820 C.3   130  MET130      0.0692
    125  N         68.7130  178.7380   15.3070 N.3   190  ARG190     -0.1245
    126  CA        68.9030  177.3160   15.5360 C.3   190  ARG190      0.1563
    127  C         67.7140  176.5170   15.0280 C.2   190  ARG190      0.2260
    128  O         67.8680  175.4270   14.4720 O.2   190  ARG190     -0.2867
    129  CB        69.0920  177.0960   17.0450 C.3   190  ARG190      0.0307
    130  CG        69.6580  175.7370   17.4270 C.3   190  ARG190      0.0489
    131  CD        70.1840  175.7260   18.8520 C.3   190  ARG190      0.2205
    132  NE        69.1270  175.9950   19.8210 N.pl3 190  ARG190     -0.0865
    133  CZ        69.3330  176.0500   21.1270 C.cat 190  ARG190      0.5346
    134  NH1       70.5580  175.8610   21.6310 N.pl3 190  ARG190      0.1354
    135  NH2       68.3160  176.3020   21.9320 N.pl3 190  ARG190      0.1354
    136  N         67.2860  172.4640   13.7900 N.3   194  LEU194     -0.1245
    137  CA        66.5020  171.5160   14.5470 C.3   194  LEU194      0.1561
    138  C         65.3330  170.9740   13.7410 C.2   194  LEU194      0.2260
    139  O         65.1290  169.7600   13.6900 O.2   194  LEU194     -0.2867
    140  CB        65.9720  172.2030   15.8010 C.3   194  LEU194      0.0270
    141  CG        67.0560  172.8150   16.7000 C.3   194  LEU194      0.0019
    142  CD1       66.4310  173.5410   17.8850 C.3   194  LEU194      0.0001
    143  CD2       68.0160  171.7320   17.1760 C.3   194  LEU194      0.0001
@<TRIPOS>BOND
     1   139   138    2
     2   138   137    1
     3   136   137    1
     4   128   127    2
     5   137   140    1
     6   127   126    1
     7   125   126    1
     8    98    97    2
     9   126   129    1
    10    80    79    2
    11   140   141    1
    12    97    96    1
    13    51    50    1
    14   141   143    1
    15   141   142    1
    16   100    99    1
    17    79    78    1
    18   129   130    1
    19    83    85   ar
    20    83    82   ar
    21    78    81    1
    22    78    77    1
    23   130   131    1
    24    96    99    1
    25    96    95    1
    26    85    87   ar
    27    99   101    1
    28    81    82    1
    29    50    52    1
    30    50    49    2
    31    82    84   ar
    32    91    90    2
    33    95    90   am
    34    48    49    1
    35    48    47    1
    36    90    89    1
    37    87    86   ar
    38   131   132    1
    39    88    89    1
    40    84    86   ar
    41    89    92    1
    42    47    46    1
    43    71    70    2
    44   132   133    2
    45   123   124    1
    46   123   122    1
    47    46    43    1
    48    63    62    2
    49    70    69    1
    50    92    94    1
    51    92    93    1
    52    66    65    1
    53   133   134    1
    54   133   135    1
    55   122   121    1
    56    56    55    2
    57    43    42    1
    58    43    44    1
    59    62    61    1
    60    62    68   am
    61    36    35    2
    62    69    68    1
    63    69    72    1
    64    42    35   am
    65    35    34    1
    66    44    53   am
    67    44    45    2
    68    61    64    1
    69    61    60    1
    70    65    67    1
    71    65    64    1
    72    55    60   am
    73    55    54    1
    74    53    54    1
    75   121   118    1
    76    33    34    1
    77    34    37    1
    78   120   119    2
    79    72    73    1
    80    58    57    1
    81   119   118    1
    82    54    57    1
    83   118   117    1
    84    73    74    1
    85    57    59    1
    86    37    38    1
    87   105   104    2
    88   102   103    1
    89   117   111   am
    90    38    39    1
    91    74    75    1
    92   112   111    2
    93     5     6    1
    94     5     2    1
    95   111   110    1
    96   104   103    1
    97   104   109   am
    98   103   106    1
    99   107   106    1
   100    39    40   ar
   101    39    41   ar
   102     1     2    1
   103    75    76    1
   104     4     3    2
   105   106   108    1
   106   109   110    1
   107   113   110    1
   108   113   114    1
   109     2     3    1
   110     3     7   am
   111   115   114    2
   112   114   116   am
   113     7     8    1
   114    18    16    1
   115     8     9    1
   116     9    10    2
   117     9    11   am
   118    16    17    1
   119    16    15    1
   120    11    12    1
   121    15    12    1
   122    12    13    1
   123    13    14    2
   124    13    19   am
   125    19    20    1
   126    22    21    2
   127    20    21    1
   128    20    23    1
   129    25    23    1
   130    21    26   am
   131    24    23    1
   132    29    28    2
   133    26    27    1
   134    26    32    1
   135    27    28    1
   136    27    30    1
   137    32    31    1
   138    30    31    1
