@<TRIPOS>MOLECULE
tmp/4u4aB00.pdb
 143 137 0 0 0
SMALL
GASTEIGER

@<TRIPOS>ATOM
      1  N         55.5070  201.2110   14.9900 N.3     9  VAL9       -0.1231
      2  CA        55.0900  201.2990   16.3910 C.3     9  VAL9        0.1692
      3  C         53.5660  201.3330   16.4710 C.2     9  VAL9        0.2593
      4  O         52.8840  201.4390   15.4390 O.2     9  VAL9       -0.2718
      5  CB        55.6410  202.5570   17.0750 C.3     9  VAL9        0.0266
      6  CG1       57.1490  202.4670   17.2030 C.3     9  VAL9        0.0020
      7  CG2       55.2130  203.8220   16.3240 C.3     9  VAL9        0.0020
      8  N         53.0160  201.2640   17.6820 N.am   10  SER10      -0.1938
      9  CA        51.5950  201.5250   17.8440 C.3    10  SER10       0.2055
     10  C         51.2950  201.8840   19.2590 C.2    10  SER10       0.2644
     11  O         51.9770  201.4110   20.1660 O.2    10  SER10      -0.2714
     12  CB        50.7650  200.3160   17.4420 C.3    10  SER10       0.2130
     13  OG        49.4700  200.7360   17.0770 O.3    10  SER10      -0.2179
     14  N         50.2650  202.7080   19.4440 N.am   11  GLY11      -0.1939
     15  CA        49.8140  203.1310   20.7900 C.3    11  GLY11       0.2014
     16  C         50.7100  204.1720   21.4420 C.2    11  GLY11       0.2638
     17  O         50.6950  204.3580   22.6680 O.2    11  GLY11      -0.2714
     18  N         51.4970  204.8380   20.6020 N.am   12  LEU12      -0.1977
     19  CA        52.5030  205.7630   21.0660 C.3    12  LEU12       0.1596
     20  C         51.9720  207.1540   20.9190 C.2    12  LEU12       0.2287
     21  O         51.2810  207.4690   19.9540 O.2    12  LEU12      -0.2864
     22  CB        53.7940  205.6330   20.2500 C.3    12  LEU12       0.0297
     23  CG        54.8230  204.5700   20.6670 C.3    12  LEU12       0.0022
     24  CD1       55.5480  204.9740   21.9340 C.3    12  LEU12       0.0001
     25  CD2       54.2140  203.1910   20.8110 C.3    12  LEU12       0.0001
     26  N         52.6860  211.0100   20.0260 N.3    14  PRO14      -0.2116
     27  CA        53.7110  211.5960   19.1810 C.3    14  PRO14       0.1372
     28  C         54.9710  211.7250   20.0130 C.2    14  PRO14       0.2244
     29  O         55.9750  211.0700   19.7540 O.2    14  PRO14      -0.2868
     30  CB        53.1440  212.9800   18.8160 C.3    14  PRO14       0.0268
     31  CG        52.0000  213.2210   19.7560 C.3    14  PRO14       0.0207
     32  CD        51.4910  211.8650   20.1430 C.3    14  PRO14       0.0892
     33  N         47.2570  197.3770   24.9410 N.3    53  GLU53      -0.1231
     34  CA        45.9490  197.4930   24.3070 C.3    53  GLU53       0.1699
     35  C         46.0310  196.8750   22.9310 C.2    53  GLU53       0.2592
     36  O         47.1160  196.5220   22.4660 O.2    53  GLU53      -0.2718
     37  CB        45.4920  198.9520   24.1990 C.3    53  GLU53       0.0402
     38  CG        44.6880  199.4500   25.3890 C.3    53  GLU53       0.1161
     39  CD        43.9610  200.7540   25.0930 C.2    53  GLU53       0.3649
     40  OE1       43.1030  201.1670   25.9010 O.co2  53  GLU53      -0.2457
     41  OE2       44.2490  201.3770   24.0520 O.co2  53  GLU53      -0.2457
     42  N         44.8800  196.7720   22.2770 N.am   54  ARG54      -0.1966
     43  CA        44.7780  196.0710   21.0200 C.3    54  ARG54       0.1729
     44  C         44.4990  197.0340   19.8870 C.2    54  ARG54       0.2617
     45  O         43.3570  197.4110   19.6140 O.2    54  ARG54      -0.2715
     46  CB        43.7040  195.0170   21.1130 C.3    54  ARG54       0.0348
     47  CG        43.7980  194.2290   22.4060 C.3    54  ARG54       0.0492
     48  CD        43.1140  192.8820   22.2780 C.3    54  ARG54       0.2205
     49  NE        41.7150  193.0320   21.9080 N.pl3  54  ARG54      -0.0865
     50  CZ        40.9710  192.0770   21.3560 C.cat  54  ARG54       0.5346
     51  NH1       41.4770  190.8740   21.0920 N.pl3  54  ARG54       0.1354
     52  NH2       39.7060  192.3460   21.0560 N.pl3  54  ARG54       0.1354
     53  N         45.5850  197.4190   19.2190 N.am   55  THR55      -0.1937
     54  CA        45.5630  198.3110   18.0650 C.3    55  THR55       0.2028
     55  C         45.5460  197.4320   16.8350 C.2    55  THR55       0.2642
     56  O         45.7860  196.2350   16.9390 O.2    55  THR55      -0.2714
     57  CB        46.8430  199.1630   18.0020 C.3    55  THR55       0.1808
     58  OG1       47.9610  198.3120   17.7380 O.3    55  THR55      -0.2208
     59  CG2       47.0710  199.9070   19.3240 C.3    55  THR55       0.0379
     60  N         45.2580  198.0090   15.6790 N.am   56  LEU56      -0.1963
     61  CA        45.2480  197.2140   14.4710 C.3    56  LEU56       0.1728
     62  C         46.6150  196.6150   14.2210 C.2    56  LEU56       0.2616
     63  O         46.7400  195.4670   13.8210 O.2    56  LEU56      -0.2715
     64  CB        44.8190  198.0490   13.2700 C.3    56  LEU56       0.0311
     65  CG        44.9260  197.3280   11.9090 C.3    56  LEU56       0.0022
     66  CD1       44.3950  195.9000   11.9480 C.3    56  LEU56       0.0001
     67  CD2       44.1930  198.1060   10.8220 C.3    56  LEU56       0.0001
     68  N         47.6530  197.4100   14.4280 N.am   57  LYS57      -0.1977
     69  CA        49.0060  196.9190   14.1910 C.3    57  LYS57       0.1596
     70  C         49.3160  195.7390   15.1180 C.2    57  LYS57       0.2287
     71  O         49.9440  194.7680   14.7070 O.2    57  LYS57      -0.2864
     72  CB        50.0260  198.0480   14.3440 C.3    57  LYS57       0.0298
     73  CG        49.9490  199.0620   13.2150 C.3    57  LYS57       0.0038
     74  CD        50.6010  200.3810   13.5820 C.3    57  LYS57       0.0206
     75  CE        50.0660  201.5130   12.7160 C.3    57  LYS57       0.1093
     76  NZ        50.5680  202.8280   13.1850 N.3    57  LYS57      -0.1314
     77  N         47.3030  193.4090   16.1380 N.3    59  PHE59      -0.1241
     78  CA        46.7690  192.2120   15.5040 C.3    59  PHE59       0.1605
     79  C         47.6090  191.7470   14.3290 C.2    59  PHE59       0.2264
     80  O         47.9760  190.5980   14.2300 O.2    59  PHE59      -0.2867
     81  CB        45.3270  192.4400   15.0420 C.3    59  PHE59       0.0534
     82  CG        44.3600  192.7450   16.1630 C.ar   59  PHE59      -0.0203
     83  CD1       44.1940  191.8570   17.2370 C.ar   59  PHE59      -0.0042
     84  CD2       43.5950  193.9000   16.1420 C.ar   59  PHE59      -0.0042
     85  CE1       43.2960  192.1250   18.2670 C.ar   59  PHE59      -0.0003
     86  CE2       42.7010  194.1710   17.1690 C.ar   59  PHE59      -0.0003
     87  CZ        42.5480  193.2840   18.2290 C.ar   59  PHE59      -0.0000
     88  N         45.0360  193.3690   27.2590 N.3    95  VAL95      -0.1231
     89  CA        43.9790  193.7150   28.2160 C.3    95  VAL95       0.1692
     90  C         42.7630  192.7890   28.1560 C.2    95  VAL95       0.2591
     91  O         42.2370  192.3600   29.1890 O.2    95  VAL95      -0.2718
     92  CB        43.5070  195.1770   28.0160 C.3    95  VAL95       0.0266
     93  CG1       44.6430  196.1530   28.3060 C.3    95  VAL95       0.0020
     94  CG2       42.9500  195.4110   26.6070 C.3    95  VAL95       0.0020
     95  N         42.3270  192.4790   26.9400 N.am   96  VAL96      -0.1980
     96  CA        41.1040  191.7250   26.7090 C.3    96  VAL96       0.1595
     97  C         41.3320  190.2480   27.0030 C.2    96  VAL96       0.2287
     98  O         40.6550  189.6500   27.8550 O.2    96  VAL96      -0.2864
     99  CB        40.6580  191.8660   25.2400 C.3    96  VAL96       0.0276
    100  CG1       39.4250  191.0080   24.9620 C.3    96  VAL96       0.0022
    101  CG2       40.4230  193.3290   24.8930 C.3    96  VAL96       0.0022
    102  N         34.3520  199.2660   10.8200 N.3   128  THR128     -0.1203
    103  CA        34.9080  200.5430   11.2690 C.3   128  THR128      0.1994
    104  C         36.3250  200.3590   11.8170 C.2   128  THR128      0.2618
    105  O         36.6710  199.2780   12.3130 O.2   128  THR128     -0.2717
    106  CB        34.0610  201.1800   12.3960 C.3   128  THR128      0.1784
    107  OG1       34.3190  200.5160   13.6480 O.3   128  THR128     -0.2211
    108  CG2       32.5740  201.1420   12.0790 C.3   128  THR128      0.0376
    109  N         37.1370  201.4190   11.7240 N.am  129  ASN129     -0.1960
    110  CA        38.4480  201.5210   12.4050 C.3   129  ASN129      0.1819
    111  C         39.4730  200.5390   11.8990 C.2   129  ASN129      0.2621
    112  O         40.5690  200.3850   12.4540 O.2   129  ASN129     -0.2715
    113  CB        38.2850  201.3430   13.8990 C.3   129  ASN129      0.1195
    114  CG        37.1070  202.1080   14.4490 C.2   129  ASN129      0.2630
    115  OD1       36.0310  202.1250   13.8530 O.2   129  ASN129     -0.2716
    116  ND2       37.3010  202.7390   15.5940 N.am  129  ASN129     -0.0877
    117  N         39.0310  199.8080   10.8950 N.am  130  MET130     -0.1977
    118  CA        39.8830  199.0970   10.0040 C.3   130  MET130      0.1605
    119  C         39.0600  198.8080    8.7820 C.2   130  MET130      0.2287
    120  O         37.8580  198.5060    8.8810 O.2   130  MET130     -0.2864
    121  CB        40.3390  197.7970   10.6170 C.3   130  MET130      0.0413
    122  CG        40.8670  196.7590    9.6070 C.3   130  MET130      0.0598
    123  SD        40.5860  195.0300   10.0990 S.3   130  MET130     -0.1393
    124  CE        40.8890  195.0460   11.8690 C.3   130  MET130      0.0692
    125  N         33.2860  189.7570   14.0630 N.3   190  ARG190     -0.1245
    126  CA        34.6980  190.0680   13.9620 C.3   190  ARG190      0.1563
    127  C         35.4630  189.5610   15.1920 C.2   190  ARG190      0.2260
    128  O         36.5660  189.0000   15.0720 O.2   190  ARG190     -0.2867
    129  CB        34.8660  191.5760   13.8580 C.3   190  ARG190      0.0307
    130  CG        36.2340  192.0160   13.3750 C.3   190  ARG190      0.0489
    131  CD        36.2360  193.4660   12.9160 C.3   190  ARG190      0.2205
    132  NE        35.9020  194.3940   13.9940 N.pl3 190  ARG190     -0.0865
    133  CZ        35.8250  195.7130   13.8460 C.cat 190  ARG190      0.5346
    134  NH1       36.0520  196.2720   12.6570 N.pl3 190  ARG190      0.1354
    135  NH2       35.5070  196.4710   14.8880 N.pl3 190  ARG190      0.1354
    136  N         39.5300  188.3770   15.7720 N.3   194  LEU194     -0.1245
    137  CA        40.4270  189.1490   16.6180 C.3   194  LEU194      0.1561
    138  C         40.9620  188.3430   17.7830 C.2   194  LEU194      0.2260
    139  O         42.1590  188.3060   18.0240 O.2   194  LEU194     -0.2867
    140  CB        39.6870  190.3610   17.1590 C.3   194  LEU194      0.0270
    141  CG        39.0920  191.2880   16.0930 C.3   194  LEU194      0.0019
    142  CD1       38.2990  192.4260   16.7290 C.3   194  LEU194      0.0001
    143  CD2       40.1910  191.8320   15.1890 C.3   194  LEU194      0.0001
@<TRIPOS>BOND
     1   119   120    2
     2   119   118    1
     3   122   123    1
     4   122   121    1
     5   118   121    1
     6   118   117    1
     7   123   124    1
     8   102   103    1
     9    67    65    1
    10   117   111   am
    11   103   104    1
    12   103   106    1
    13   109   104   am
    14   109   110    1
    15   104   105    2
    16   111   110    1
    17   111   112    2
    18    65    66    1
    19    65    64    1
    20   108   106    1
    21   106   107    1
    22   110   113    1
    23   134   133    1
    24    75    76    1
    25    75    74    1
    26   131   130    1
    27   131   132    1
    28    73    74    1
    29    73    72    1
    30    64    61    1
    31   130   129    1
    32    63    62    2
    33   133   132    2
    34   133   135    1
    35   115   114    2
    36   129   126    1
    37   113   114    1
    38   126   125    1
    39   126   127    1
    40    69    72    1
    41    69    68    1
    42    69    70    1
    43    62    68   am
    44    62    61    1
    45    80    79    2
    46    79    78    1
    47   114   116   am
    48    61    60    1
    49    71    70    2
    50     1     2    1
    51    81    78    1
    52    81    82    1
    53   128   127    2
    54   143   141    1
    55     4     3    2
    56    78    77    1
    57    60    55   am
    58   136   137    1
    59   141   142    1
    60   141   140    1
    61    84    82   ar
    62    84    86   ar
    63    82    83   ar
    64     7     5    1
    65     2     3    1
    66     2     5    1
    67     3     8   am
    68   137   140    1
    69   137   138    1
    70    55    56    2
    71    55    54    1
    72     5     6    1
    73    13    12    1
    74    86    87   ar
    75    83    85   ar
    76    12     9    1
    77     8     9    1
    78    58    57    1
    79   138   139    2
    80     9    10    1
    81    57    54    1
    82    57    59    1
    83    54    53    1
    84    87    85   ar
    85    30    27    1
    86    30    31    1
    87    27    28    1
    88    27    26    1
    89    53    44   am
    90    10    14   am
    91    10    11    2
    92    14    15    1
    93    45    44    2
    94    29    28    2
    95    31    32    1
    96    44    43    1
    97    21    20    2
    98    26    32    1
    99    22    23    1
   100    22    19    1
   101    18    19    1
   102    18    16   am
   103    23    25    1
   104    23    24    1
   105    15    16    1
   106    20    19    1
   107    43    46    1
   108    43    42    1
   109    52    50    1
   110    51    50    1
   111    46    47    1
   112    50    49    2
   113    16    17    2
   114    49    48    1
   115    42    35   am
   116    48    47    1
   117    36    35    2
   118    35    34    1
   119    41    39   ar
   120    37    34    1
   121    37    38    1
   122    34    33    1
   123   101    99    1
   124   100    99    1
   125    39    38    1
   126    39    40   ar
   127    99    96    1
   128    94    92    1
   129    96    95    1
   130    96    97    1
   131    95    90   am
   132    97    98    2
   133    88    89    1
   134    92    89    1
   135    92    93    1
   136    90    89    1
   137    90    91    2
