@<TRIPOS>MOLECULE
tmp/4u4cA02.pdb
 82 80 0 0 0
SMALL
GASTEIGER

@<TRIPOS>ATOM
      1  N         17.6900   32.0950  -18.2190 N.3   265  PRO265     -0.2116
      2  CA        16.7960   33.1420  -17.7390 C.3   265  PRO265      0.1372
      3  C         17.2650   34.5360  -18.0770 C.2   265  PRO265      0.2244
      4  O         18.4620   34.8190  -18.1420 O.2   265  PRO265     -0.2868
      5  CB        16.8160   32.9360  -16.2340 C.3   265  PRO265      0.0268
      6  CG        18.1790   32.4580  -15.9860 C.3   265  PRO265      0.0207
      7  CD        18.4380   31.4990  -17.1020 C.3   265  PRO265      0.0892
      8  N         13.0040   32.6330   -8.2990 N.3   348  PHE348     -0.1227
      9  CA        13.9150   32.9810   -9.3760 C.3   348  PHE348      0.1736
     10  C         15.2350   32.2480   -9.2120 C.2   348  PHE348      0.2595
     11  O         15.8130   31.7530  -10.1760 O.2   348  PHE348     -0.2718
     12  CB        14.1540   34.4840   -9.4270 C.3   348  PHE348      0.0547
     13  CG        14.9980   34.9050  -10.5840 C.ar  348  PHE348     -0.0202
     14  CD1       14.5370   34.7720  -11.8690 C.ar  348  PHE348     -0.0042
     15  CD2       16.2530   35.4070  -10.3850 C.ar  348  PHE348     -0.0042
     16  CE1       15.3040   35.1460  -12.9230 C.ar  348  PHE348     -0.0003
     17  CE2       17.0320   35.7790  -11.4400 C.ar  348  PHE348     -0.0003
     18  CZ        16.5610   35.6480  -12.7120 C.ar  348  PHE348     -0.0000
     19  N         15.7040   32.1840   -7.9750 N.am  349  GLN349     -0.1965
     20  CA        16.9620   31.5320   -7.6700 C.3   349  GLN349      0.1733
     21  C         16.8770   30.0400   -7.9070 C.2   349  GLN349      0.2616
     22  O         17.8510   29.4050   -8.2730 O.2   349  GLN349     -0.2715
     23  CB        17.3670   31.8070   -6.2240 C.3   349  GLN349      0.0408
     24  CG        17.7540   33.2450   -5.9600 C.3   349  GLN349      0.0908
     25  CD        18.1590   33.4740   -4.5240 C.2   349  GLN349      0.2608
     26  OE1       17.4040   33.1670   -3.6050 O.2   349  GLN349     -0.2717
     27  NE2       19.3590   34.0110   -4.3180 N.am  349  GLN349     -0.0878
     28  N         15.7040   29.4730   -7.6910 N.am  350  GLU350     -0.1963
     29  CA        15.5410   28.0410   -7.8470 C.3   350  GLU350      0.1733
     30  C         15.2890   27.7250   -9.2990 C.2   350  GLU350      0.2616
     31  O         15.0290   26.5850   -9.6650 O.2   350  GLU350     -0.2715
     32  CB        14.3920   27.5330   -6.9900 C.3   350  GLU350      0.0429
     33  CG        14.5470   27.8430   -5.5190 C.3   350  GLU350      0.1163
     34  CD        15.0910   26.6710   -4.7430 C.2   350  GLU350      0.3649
     35  OE1       14.3160   25.7110   -4.4940 O.co2 350  GLU350     -0.2457
     36  OE2       16.2900   26.7150   -4.3870 O.co2 350  GLU350     -0.2457
     37  N         15.3360   28.7560  -10.1260 N.am  351  GLY351     -0.1955
     38  CA        15.2540   28.5640  -11.5540 C.3   351  GLY351      0.1869
     39  C         13.8710   28.3080  -12.0890 C.2   351  GLY351      0.2309
     40  O         13.7330   27.7220  -13.1540 O.2   351  GLY351     -0.2863
     41  N         22.8380   37.5430   -5.0400 N.3   367  ASN367     -0.1225
     42  CA        22.9470   36.2700   -5.7510 C.3   367  ASN367      0.1785
     43  C         21.7670   35.9630   -6.6540 C.2   367  ASN367      0.2597
     44  O         21.1470   34.9090   -6.5260 O.2   367  ASN367     -0.2718
     45  CB        23.1030   35.1170   -4.7570 C.3   367  ASN367      0.1169
     46  CG        24.3600   35.2320   -3.9150 C.2   367  ASN367      0.2627
     47  OD1       24.2960   35.2690   -2.6830 O.2   367  ASN367     -0.2716
     48  ND2       25.5130   35.2850   -4.5750 N.am  367  ASN367     -0.0877
     49  N         21.4360   36.8790   -7.5530 N.am  368  MET368     -0.1966
     50  CA        20.2960   36.6610   -8.4400 C.3   368  MET368      0.1721
     51  C         20.5930   37.0830   -9.8720 C.2   368  MET368      0.2458
     52  O         19.8910   37.9170  -10.4390 O.2   368  MET368     -0.2730
     53  CB        19.0750   37.4050   -7.9040 C.3   368  MET368      0.0427
     54  CG        18.5460   36.7730   -6.6420 C.3   368  MET368      0.0599
     55  SD        16.9620   37.4100   -6.0540 S.3   368  MET368     -0.1393
     56  CE        17.4870   38.8280   -5.1160 C.3   368  MET368      0.0692
     57  N         21.6340   36.4990  -10.4710 N.am  369  PRO369     -0.2727
     58  CA        21.9970   36.9140  -11.8210 C.3   369  PRO369      0.1402
     59  C         21.1930   36.1520  -12.8440 C.2   369  PRO369      0.2269
     60  O         20.4880   35.2170  -12.4740 O.2   369  PRO369     -0.2865
     61  CB        23.4670   36.5230  -11.9060 C.3   369  PRO369      0.0296
     62  CG        23.4990   35.2160  -11.1520 C.3   369  PRO369      0.0237
     63  CD        22.4930   35.3960  -10.0040 C.3   369  PRO369      0.0939
     64  N         25.9080   33.7460  -15.6240 N.3   403  ARG403     -0.1245
     65  CA        25.9000   32.9400  -14.4130 C.3   403  ARG403      0.1563
     66  C         27.1460   32.0790  -14.3380 C.2   403  ARG403      0.2260
     67  O         27.3480   31.1980  -15.1770 O.2   403  ARG403     -0.2867
     68  CB        24.6610   32.0520  -14.3650 C.3   403  ARG403      0.0307
     69  CG        23.3340   32.7920  -14.2760 C.3   403  ARG403      0.0489
     70  CD        22.1970   31.8090  -14.4640 C.3   403  ARG403      0.2205
     71  NE        22.3350   31.1450  -15.7530 N.pl3 403  ARG403     -0.0865
     72  CZ        21.5630   30.1590  -16.1920 C.cat 403  ARG403      0.5346
     73  NH1       20.5660   29.6890  -15.4470 N.pl3 403  ARG403      0.1354
     74  NH2       21.8050   29.6380  -17.3900 N.pl3 403  ARG403      0.1354
     75  N         27.2330   28.2550  -15.1550 N.3   406  LEU406     -0.1245
     76  CA        26.4470   27.6720  -16.2240 C.3   406  LEU406      0.1561
     77  C         26.4940   28.3660  -17.5780 C.2   406  LEU406      0.2260
     78  O         25.9080   27.8680  -18.5400 O.2   406  LEU406     -0.2867
     79  CB        25.0010   27.6150  -15.7630 C.3   406  LEU406      0.0270
     80  CG        24.8110   26.7810  -14.5010 C.3   406  LEU406      0.0019
     81  CD1       23.3980   26.9670  -13.9570 C.3   406  LEU406      0.0001
     82  CD2       25.0850   25.3060  -14.7970 C.3   406  LEU406      0.0001
@<TRIPOS>BOND
     1    78    77    2
     2     1     2    1
     3     1     7    1
     4     4     3    2
     5     3     2    1
     6     2     5    1
     7    77    76    1
     8    74    72    1
     9     7     6    1
    10     5     6    1
    11    76    79    1
    12    76    75    1
    13    72    71    2
    14    72    73    1
    15    79    80    1
    16    71    70    1
    17    64    65    1
    18    67    66    2
    19    82    80    1
    20    80    81    1
    21    70    69    1
    22    65    68    1
    23    65    66    1
    24    68    69    1
    25    40    39    2
    26    16    18   ar
    27    16    14   ar
    28    59    60    2
    29    59    58    1
    30    18    17   ar
    31    39    38    1
    32    61    58    1
    33    61    62    1
    34    14    13   ar
    35    58    57    1
    36    38    37    1
    37    17    15   ar
    38    62    63    1
    39    13    15   ar
    40    13    12    1
    41    57    63    1
    42    57    51   am
    43    52    51    2
    44    11    10    2
    45    37    30   am
    46    51    50    1
    47    31    30    2
    48    12     9    1
    49     9    10    1
    50     9     8    1
    51    30    29    1
    52    10    19   am
    53    50    53    1
    54    50    49    1
    55    22    21    2
    56    19    20    1
    57    21    28   am
    58    21    20    1
    59    53    54    1
    60    29    28    1
    61    29    32    1
    62    20    23    1
    63    49    43   am
    64    32    33    1
    65    43    44    2
    66    43    42    1
    67    54    55    1
    68    23    24    1
    69    55    56    1
    70    24    25    1
    71    42    41    1
    72    42    45    1
    73    33    34    1
    74    45    46    1
    75    34    35   ar
    76    34    36   ar
    77    48    46   am
    78    25    27   am
    79    25    26    2
    80    46    47    2
