@<TRIPOS>MOLECULE
tmp/4u4cA01.pdb
 96 91 0 0 0
SMALL
GASTEIGER

@<TRIPOS>ATOM
      1  N         17.6170   46.2150   11.7080 N.3   107  THR107     -0.1203
      2  CA        17.2190   47.1740   10.6920 C.3   107  THR107      0.1994
      3  C         16.1660   48.1010   11.2400 C.2   107  THR107      0.2618
      4  O         15.7620   47.9920   12.3920 O.2   107  THR107     -0.2717
      5  CB        16.6460   46.4950    9.4770 C.3   107  THR107      0.1784
      6  OG1       15.3970   45.9000    9.8410 O.3   107  THR107     -0.2211
      7  CG2       17.6020   45.4060    8.9650 C.3   107  THR107      0.0376
      8  N         15.7060   49.0080   10.3960 N.am  108  GLY108     -0.1942
      9  CA        14.5900   49.8610   10.7500 C.3   108  GLY108      0.2014
     10  C         13.3730   49.0470   11.1390 C.2   108  GLY108      0.2639
     11  O         12.6120   49.4580   12.0170 O.2   108  GLY108     -0.2714
     12  N         13.1920   47.8860   10.5130 N.am  109  ASP109     -0.1957
     13  CA        11.9790   47.0930   10.7230 C.3   109  ASP109      0.1840
     14  C         12.0730   46.0730   11.8400 C.2   109  ASP109      0.2622
     15  O         11.0550   45.6150   12.3470 O.2   109  ASP109     -0.2715
     16  CB        11.5970   46.3540    9.4450 C.3   109  ASP109      0.1450
     17  CG        11.1140   47.2900    8.3500 C.2   109  ASP109      0.3671
     18  OD1       10.7490   48.4470    8.6660 O.co2 109  ASP109     -0.2456
     19  OD2       11.0910   46.8670    7.1680 O.co2 109  ASP109     -0.2456
     20  N         13.2800   45.6830   12.2210 N.am  110  ILE110     -0.1963
     21  CA        13.3670   44.5400   13.1140 C.3   110  ILE110      0.1727
     22  C         14.7300   44.3840   13.7620 C.2   110  ILE110      0.2616
     23  O         15.7270   45.0010   13.3490 O.2   110  ILE110     -0.2715
     24  CB        13.0060   43.2530   12.3530 C.3   110  ILE110      0.0290
     25  CG1       12.6470   42.1240   13.3040 C.3   110  ILE110      0.0022
     26  CG2       14.1240   42.8690   11.4300 C.3   110  ILE110      0.0023
     27  CD1       12.1490   40.8940   12.5970 C.3   110  ILE110      0.0001
     28  N         14.7460   43.5900   14.8220 N.am  111  THR111     -0.1951
     29  CA        15.9520   43.2830   15.5330 C.3   111  THR111      0.1897
     30  C         15.9290   41.8050   15.8550 C.2   111  THR111      0.2313
     31  O         14.9450   41.2920   16.3600 O.2   111  THR111     -0.2863
     32  CB        16.0850   44.1180   16.8030 C.3   111  THR111      0.1794
     33  OG1       16.2180   45.4990   16.4440 O.3   111  THR111     -0.2208
     34  CG2       17.3330   43.7180   17.5470 C.3   111  THR111      0.0378
     35  N         21.0200   52.3360   10.8130 N.3   125  ILE125     -0.1245
     36  CA        21.0340   51.8550   12.1890 C.3   125  ILE125      0.1561
     37  C         22.4180   52.0280   12.7730 C.2   125  ILE125      0.2260
     38  O         22.5750   52.3160   13.9580 O.2   125  ILE125     -0.2867
     39  CB        20.6230   50.3880   12.2890 C.3   125  ILE125      0.0252
     40  CG1       19.1550   50.2260   11.9090 C.3   125  ILE125      0.0019
     41  CG2       20.7870   49.8910   13.7090 C.3   125  ILE125      0.0019
     42  CD1       18.2090   50.9060   12.9230 C.3   125  ILE125      0.0001
     43  N          5.5970   52.8700   11.5680 N.3   883  GLU883     -0.1231
     44  CA         5.9800   52.1700   12.7910 C.3   883  GLU883      0.1699
     45  C          7.3560   52.5910   13.3200 C.2   883  GLU883      0.2592
     46  O          7.5080   52.9020   14.5080 O.2   883  GLU883     -0.2718
     47  CB         5.9730   50.6660   12.5600 C.3   883  GLU883      0.0402
     48  CG         4.6020   50.0880   12.3110 C.3   883  GLU883      0.1161
     49  CD         4.6420   48.5770   12.1630 C.2   883  GLU883      0.3649
     50  OE1        5.7160   48.0380   11.7910 O.co2 883  GLU883     -0.2457
     51  OE2        3.6030   47.9270   12.4280 O.co2 883  GLU883     -0.2457
     52  N          8.3580   52.6160   12.4510 N.am  884  GLU884     -0.1979
     53  CA         9.7000   52.9700   12.9140 C.3   884  GLU884      0.1602
     54  C          9.6720   54.3460   13.5540 C.2   884  GLU884      0.2287
     55  O         10.1450   54.5270   14.6780 O.2   884  GLU884     -0.2864
     56  CB        10.7260   52.9370   11.7790 C.3   884  GLU884      0.0415
     57  CG        12.1360   53.4090   12.1990 C.3   884  GLU884      0.1163
     58  CD        13.2040   53.1170   11.1460 C.2   884  GLU884      0.3649
     59  OE1       12.8270   52.8730    9.9800 O.co2 884  GLU884     -0.2457
     60  OE2       14.4210   53.1200   11.4780 O.co2 884  GLU884     -0.2457
     61  N          8.0690   54.2590   16.9350 N.3   887  LYS887     -0.1231
     62  CA         8.9930   53.7170   17.9290 C.3   887  LYS887      0.1693
     63  C         10.0080   54.7770   18.3670 C.2   887  LYS887      0.2591
     64  O         10.3320   54.8880   19.5490 O.2   887  LYS887     -0.2718
     65  CB         9.7270   52.5010   17.3790 C.3   887  LYS887      0.0285
     66  CG         8.8670   51.2630   17.2070 C.3   887  LYS887      0.0035
     67  CD         9.6600   50.1870   16.4620 C.3   887  LYS887      0.0206
     68  CE         8.8430   48.9380   16.2120 C.3   887  LYS887      0.1093
     69  NZ         9.5730   48.0570   15.2550 N.3   887  LYS887     -0.1314
     70  N         10.4970   55.5680   17.4220 N.am  888  GLU888     -0.1979
     71  CA        11.4270   56.6200   17.7930 C.3   888  GLU888      0.1602
     72  C         10.7520   57.6160   18.7330 C.2   888  GLU888      0.2287
     73  O         11.3740   58.1290   19.6530 O.2   888  GLU888     -0.2864
     74  CB        11.9810   57.3190   16.5550 C.3   888  GLU888      0.0415
     75  CG        13.0270   56.4870   15.8310 C.3   888  GLU888      0.1163
     76  CD        13.4550   57.1010   14.5130 C.2   888  GLU888      0.3649
     77  OE1       13.1520   58.2920   14.2710 O.co2 888  GLU888     -0.2457
     78  OE2       14.1060   56.3950   13.7140 O.co2 888  GLU888     -0.2457
     79  N          1.1020   52.4000   17.7880 N.3   909  LEU909     -0.1245
     80  CA         1.7630   51.1550   17.3790 C.3   909  LEU909      0.1561
     81  C          0.8220   49.9680   17.3710 C.2   909  LEU909      0.2260
     82  O          0.8260   49.1660   16.4310 O.2   909  LEU909     -0.2867
     83  CB         2.9230   50.8270   18.3020 C.3   909  LEU909      0.0270
     84  CG         4.2750   51.3720   17.8910 C.3   909  LEU909      0.0019
     85  CD1        5.3610   50.6670   18.6790 C.3   909  LEU909      0.0001
     86  CD2        4.4690   51.1440   16.4070 C.3   909  LEU909      0.0001
     87  N          0.0020   47.9540   13.9040 N.3   913  HIS913     -0.1241
     88  CA         0.7340   46.7210   13.7040 C.3   913  HIS913      0.1621
     89  C         -0.1390   45.4920   13.7580 C.2   913  HIS913      0.2264
     90  O         -0.1590   44.8050   14.7740 O.2   913  HIS913     -0.2867
     91  CB         1.8270   46.6040   14.7470 C.3   913  HIS913      0.0745
     92  CG         2.8080   45.5210   14.4590 C.ar  913  HIS913      0.0817
     93  ND1        3.9250   45.7230   13.6730 N.ar  913  HIS913     -0.2268
     94  CD2        2.8450   44.2270   14.8480 C.ar  913  HIS913      0.1154
     95  CE1        4.6020   44.5940   13.5900 C.ar  913  HIS913      0.1986
     96  NE2        3.9720   43.6720   14.2950 N.ar  913  HIS913     -0.2212
@<TRIPOS>BOND
     1    19    17   ar
     2    17    18   ar
     3    17    16    1
     4     7     5    1
     5    16    13    1
     6     5     6    1
     7     5     2    1
     8    59    58   ar
     9     8     9    1
    10     8     3   am
    11    12    13    1
    12    12    10   am
    13     2     3    1
    14     2     1    1
    15    13    14    1
    16     9    10    1
    17    35    36    1
    18    10    11    2
    19    58    60   ar
    20    58    57    1
    21     3     4    2
    22    26    24    1
    23    43    44    1
    24    56    57    1
    25    56    53    1
    26    50    49   ar
    27    14    20   am
    28    14    15    2
    29    40    39    1
    30    40    42    1
    31    49    48    1
    32    49    51   ar
    33    36    39    1
    34    36    37    1
    35    20    21    1
    36    39    41    1
    37    48    47    1
    38    24    21    1
    39    24    25    1
    40    52    53    1
    41    52    45   am
    42    47    44    1
    43    27    25    1
    44    37    38    2
    45    44    45    1
    46    53    54    1
    47    21    22    1
    48    45    46    2
    49    23    22    2
    50    54    55    2
    51    95    93   ar
    52    95    96   ar
    53    93    92   ar
    54    88    89    1
    55    88    87    1
    56    88    91    1
    57    78    76   ar
    58    89    90    2
    59    22    28   am
    60    77    76   ar
    61    96    94   ar
    62    92    91    1
    63    92    94   ar
    64    76    75    1
    65    28    29    1
    66    69    68    1
    67    29    30    1
    68    29    32    1
    69    75    74    1
    70    30    31    2
    71    68    67    1
    72    86    84    1
    73    82    81    2
    74    33    32    1
    75    67    66    1
    76    74    71    1
    77    32    34    1
    78    61    62    1
    79    66    65    1
    80    81    80    1
    81    80    79    1
    82    80    83    1
    83    65    62    1
    84    70    71    1
    85    70    63   am
    86    71    72    1
    87    84    83    1
    88    84    85    1
    89    62    63    1
    90    63    64    2
    91    72    73    2
