@<TRIPOS>MOLECULE
tmp/4u4fC01.pdb
 154 147 0 0 0
SMALL
GASTEIGER

@<TRIPOS>ATOM
      1  N        113.8470  199.0300   47.2550 N.3   393  GLU393     -0.1245
      2  CA       113.9210  198.2780   48.5040 C.3   393  GLU393      0.1567
      3  C        113.0930  198.9630   49.5860 C.2   393  GLU393      0.2260
      4  O        113.1180  200.1870   49.7090 O.2   393  GLU393     -0.2867
      5  CB       115.3740  198.1640   48.9730 C.3   393  GLU393      0.0388
      6  CG       115.6130  197.0980   50.0350 C.3   393  GLU393      0.1160
      7  CD       115.6290  195.6910   49.4590 C.2   393  GLU393      0.3649
      8  OE1      116.7250  195.0940   49.3750 O.co2 393  GLU393     -0.2457
      9  OE2      114.5480  195.1830   49.0900 O.co2 393  GLU393     -0.2457
     10  N        113.2710  202.0680   51.6980 N.3   396  TYR396     -0.1241
     11  CA       114.0720  203.1540   51.1400 C.3   396  TYR396      0.1605
     12  C        113.3820  203.7710   49.9310 C.2   396  TYR396      0.2264
     13  O        113.3560  204.9910   49.7780 O.2   396  TYR396     -0.2867
     14  CB       115.4660  202.6640   50.7530 C.3   396  TYR396      0.0534
     15  CG       116.2070  201.9730   51.8720 C.ar  396  TYR396     -0.0201
     16  CD1      116.8600  202.7030   52.8570 C.ar  396  TYR396     -0.0009
     17  CD2      116.2550  200.5880   51.9400 C.ar  396  TYR396     -0.0009
     18  CE1      117.5400  202.0690   53.8790 C.ar  396  TYR396      0.0417
     19  CE2      116.9320  199.9470   52.9540 C.ar  396  TYR396      0.0417
     20  CZ       117.5710  200.6910   53.9210 C.ar  396  TYR396      0.1957
     21  OH       118.2440  200.0500   54.9310 O.3   396  TYR396     -0.2866
     22  N        122.5710  196.5670   43.4820 N.3   441  TYR441     -0.1241
     23  CA       123.3620  197.6300   44.0880 C.3   441  TYR441      0.1605
     24  C        124.5970  197.9360   43.2540 C.2   441  TYR441      0.2264
     25  O        124.6740  198.9770   42.6020 O.2   441  TYR441     -0.2867
     26  CB       123.7750  197.2530   45.5090 C.3   441  TYR441      0.0534
     27  CG       122.6370  197.2620   46.4980 C.ar  441  TYR441     -0.0201
     28  CD1      122.0980  198.4580   46.9530 C.ar  441  TYR441     -0.0009
     29  CD2      122.1050  196.0760   46.9840 C.ar  441  TYR441     -0.0009
     30  CE1      121.0580  198.4720   47.8600 C.ar  441  TYR441      0.0417
     31  CE2      121.0650  196.0790   47.8920 C.ar  441  TYR441      0.0417
     32  CZ       120.5460  197.2800   48.3270 C.ar  441  TYR441      0.1957
     33  OH       119.5110  197.2890   49.2320 O.3   441  TYR441     -0.2866
     34  N        120.4030  202.4710   49.7210 N.3   469  PRO469     -0.2102
     35  CA       121.1970  201.8440   50.7850 C.3   469  PRO469      0.1504
     36  C        122.4290  201.1280   50.2360 C.2   469  PRO469      0.2576
     37  O        122.5140  199.9020   50.3170 O.2   469  PRO469     -0.2718
     38  CB       120.2280  200.8200   51.3820 C.3   469  PRO469      0.0282
     39  CG       119.2980  200.4990   50.2660 C.3   469  PRO469      0.0208
     40  CD       119.0970  201.8060   49.5570 C.3   469  PRO469      0.0893
     41  N        123.3720  201.8870   49.6880 N.am  470  LEU470     -0.1966
     42  CA       124.5840  201.3080   49.1240 C.3   470  LEU470      0.1728
     43  C        125.6840  201.2870   50.1740 C.2   470  LEU470      0.2616
     44  O        126.0070  202.3180   50.7630 O.2   470  LEU470     -0.2715
     45  CB       125.0400  202.1060   47.9000 C.3   470  LEU470      0.0311
     46  CG       126.1280  201.4880   47.0170 C.3   470  LEU470      0.0022
     47  CD1      125.6240  200.2410   46.3080 C.3   470  LEU470      0.0001
     48  CD2      126.6290  202.5080   46.0100 C.3   470  LEU470      0.0001
     49  N        126.2510  200.1080   50.4090 N.am  471  THR471     -0.1951
     50  CA       127.3180  199.9510   51.3920 C.3   471  THR471      0.1897
     51  C        128.6330  200.5260   50.8750 C.2   471  THR471      0.2313
     52  O        129.0940  200.1650   49.7920 O.2   471  THR471     -0.2863
     53  CB       127.5310  198.4690   51.7610 C.3   471  THR471      0.1794
     54  OG1      126.3290  197.9390   52.3320 O.3   471  THR471     -0.2208
     55  CG2      128.6620  198.3240   52.7610 C.3   471  THR471      0.0378
     56  N        134.5410  199.7830   45.8600 N.3   476  ARG476     -0.1245
     57  CA       133.5980  200.7570   45.3260 C.3   476  ARG476      0.1563
     58  C        134.2030  202.1600   45.3090 C.2   476  ARG476      0.2260
     59  O        133.9960  202.9170   44.3640 O.2   476  ARG476     -0.2867
     60  CB       132.2870  200.7320   46.1150 C.3   476  ARG476      0.0307
     61  CG       131.3760  199.5630   45.7570 C.3   476  ARG476      0.0489
     62  CD       130.1690  199.4880   46.6830 C.3   476  ARG476      0.2205
     63  NE       129.3780  198.2830   46.4520 N.pl3 476  ARG476     -0.0865
     64  CZ       128.3450  197.9140   47.2040 C.cat 476  ARG476      0.5346
     65  NH1      127.9740  198.6570   48.2400 N.pl3 476  ARG476      0.1354
     66  NH2      127.6790  196.8020   46.9230 N.pl3 476  ARG476      0.1354
     67  N        122.3110  185.6590   52.3430 N.3   612  LEU612     -0.1245
     68  CA       121.9020  185.8800   50.9660 C.3   612  LEU612      0.1561
     69  C        122.8960  185.1720   50.0520 C.2   612  LEU612      0.2260
     70  O        124.0870  185.1120   50.3550 O.2   612  LEU612     -0.2867
     71  CB       121.8800  187.3810   50.6710 C.3   612  LEU612      0.0270
     72  CG       120.9790  187.9060   49.5520 C.3   612  LEU612      0.0019
     73  CD1      119.5460  187.4610   49.7730 C.3   612  LEU612      0.0001
     74  CD2      121.0610  189.4240   49.4830 C.3   612  LEU612      0.0001
     75  N        125.6740  189.2720   47.1310 N.3   615  GLY615     -0.1210
     76  CA       125.7350  190.5340   47.8410 C.3   615  GLY615      0.1956
     77  C        126.8310  190.5650   48.8870 C.2   615  GLY615      0.2613
     78  O        127.5300  189.5750   49.1020 O.2   615  GLY615     -0.2717
     79  N        126.9640  191.7110   49.5480 N.am  616  SER616     -0.1938
     80  CA       128.0560  191.9610   50.4850 C.3   616  SER616      0.2055
     81  C        128.1510  190.9510   51.6260 C.2   616  SER616      0.2643
     82  O        129.2470  190.5270   51.9930 O.2   616  SER616     -0.2714
     83  CB       127.9310  193.3710   51.0660 C.3   616  SER616      0.2130
     84  OG       128.8060  193.5490   52.1650 O.3   616  SER616     -0.2179
     85  N        127.0020  190.5780   52.1810 N.am  617  THR617     -0.1950
     86  CA       126.9460  189.7230   53.3660 C.3   617  THR617      0.1897
     87  C        127.6940  188.4050   53.1890 C.2   617  THR617      0.2313
     88  O        128.4650  187.9930   54.0580 O.2   617  THR617     -0.2863
     89  CB       125.4910  189.4150   53.7590 C.3   617  THR617      0.1794
     90  OG1      124.7650  190.6400   53.9110 O.3   617  THR617     -0.2208
     91  CG2      125.4450  188.6400   55.0650 C.3   617  THR617      0.0378
     92  N        115.8550  188.4830   49.9930 N.3   648  THR648     -0.1218
     93  CA       115.6980  188.9340   51.3690 C.3   648  THR648      0.1862
     94  C        114.3730  188.4040   51.9130 C.2   648  THR648      0.2287
     95  O        114.2480  188.1070   53.1010 O.2   648  THR648     -0.2866
     96  CB       115.7360  190.4770   51.4600 C.3   648  THR648      0.1770
     97  OG1      117.0040  190.9550   50.9910 O.3   648  THR648     -0.2211
     98  CG2      115.5290  190.9420   52.8920 C.3   648  THR648      0.0375
     99  N        118.6670  183.7030   59.8100 N.3   664  TYR664     -0.1241
    100  CA       119.1100  184.4260   58.6230 C.3   664  TYR664      0.1605
    101  C        120.0440  185.5710   58.9940 C.2   664  TYR664      0.2264
    102  O        119.7090  186.4170   59.8240 O.2   664  TYR664     -0.2867
    103  CB       117.9070  184.9540   57.8370 C.3   664  TYR664      0.0534
    104  CG       118.2550  185.6730   56.5510 C.ar  664  TYR664     -0.0201
    105  CD1      118.8210  184.9940   55.4810 C.ar  664  TYR664     -0.0009
    106  CD2      117.9970  187.0290   56.4020 C.ar  664  TYR664     -0.0009
    107  CE1      119.1330  185.6480   54.3040 C.ar  664  TYR664      0.0417
    108  CE2      118.3030  187.6900   55.2270 C.ar  664  TYR664      0.0417
    109  CZ       118.8710  186.9960   54.1830 C.ar  664  TYR664      0.1957
    110  OH       119.1770  187.6560   53.0150 O.3   664  TYR664     -0.2866
    111  N        121.8420  188.9600   57.9910 N.3   666  LEU666     -0.1231
    112  CA       121.6980  190.0930   57.0860 C.3   666  LEU666      0.1693
    113  C        122.0650  191.3970   57.7850 C.2   666  LEU666      0.2591
    114  O        122.3180  191.4170   58.9900 O.2   666  LEU666     -0.2718
    115  CB       120.2680  190.1780   56.5470 C.3   666  LEU666      0.0284
    116  CG       119.1700  190.7670   57.4420 C.3   666  LEU666      0.0019
    117  CD1      117.8830  190.9210   56.6510 C.3   666  LEU666      0.0001
    118  CD2      118.9240  189.9290   58.6920 C.3   666  LEU666      0.0001
    119  N        122.0840  192.4840   57.0210 N.am  667  GLU667     -0.1979
    120  CA       122.4320  193.7990   57.5480 C.3   667  GLU667      0.1602
    121  C        121.3710  194.3060   58.5260 C.2   667  GLU667      0.2287
    122  O        120.1830  194.0250   58.3610 O.2   667  GLU667     -0.2864
    123  CB       122.6460  194.7810   56.3940 C.3   667  GLU667      0.0415
    124  CG       123.6820  194.2890   55.3890 C.3   667  GLU667      0.1163
    125  CD       123.8790  195.2260   54.2130 C.2   667  GLU667      0.3649
    126  OE1      123.0310  196.1180   54.0050 O.co2 667  GLU667     -0.2457
    127  OE2      124.8900  195.0660   53.4950 O.co2 667  GLU667     -0.2457
    128  N        119.8840  197.1200   59.2370 N.3   669  THR669     -0.1203
    129  CA       118.8030  197.9870   58.7870 C.3   669  THR669      0.1994
    130  C        117.5810  197.1910   58.3470 C.2   669  THR669      0.2617
    131  O        116.4550  197.5040   58.7350 O.2   669  THR669     -0.2717
    132  CB       119.2520  198.8910   57.6320 C.3   669  THR669      0.1784
    133  OG1      119.7930  198.0870   56.5760 O.3   669  THR669     -0.2211
    134  CG2      120.3060  199.8710   58.1060 C.3   669  THR669      0.0376
    135  N        117.8090  196.1580   57.5430 N.am  670  MET670     -0.1979
    136  CA       116.7240  195.3080   57.0710 C.3   670  MET670      0.1605
    137  C        116.2080  194.4150   58.1960 C.2   670  MET670      0.2287
    138  O        115.0260  194.0800   58.2380 O.2   670  MET670     -0.2864
    139  CB       117.1840  194.4630   55.8790 C.3   670  MET670      0.0413
    140  CG       116.0710  193.6830   55.1960 C.3   670  MET670      0.0598
    141  SD       114.7530  194.7350   54.5570 S.3   670  MET670     -0.1393
    142  CE       115.6840  195.8130   53.4740 C.3   670  MET670      0.0692
    143  N        125.9230  203.3400   54.8940 N.3   694  TYR694     -0.1241
    144  CA       125.2570  203.7130   53.6480 C.3   694  TYR694      0.1605
    145  C        125.5570  205.1640   53.2940 C.2   694  TYR694      0.2264
    146  O        125.3100  206.0590   54.0970 O.2   694  TYR694     -0.2867
    147  CB       123.7440  203.5390   53.7790 C.3   694  TYR694      0.0534
    148  CG       123.2880  202.1040   53.8550 C.ar  694  TYR694     -0.0201
    149  CD1      123.9900  201.0990   53.2080 C.ar  694  TYR694     -0.0009
    150  CD2      122.1550  201.7540   54.5750 C.ar  694  TYR694     -0.0009
    151  CE1      123.5770  199.7840   53.2720 C.ar  694  TYR694      0.0417
    152  CE2      121.7330  200.4410   54.6470 C.ar  694  TYR694      0.0417
    153  CZ       122.4470  199.4600   53.9930 C.ar  694  TYR694      0.1957
    154  OH       122.0320  198.1510   54.0600 O.3   694  TYR694     -0.2866
@<TRIPOS>BOND
     1    25    24    2
     2    24    23    1
     3    22    23    1
     4    23    26    1
     5    59    58    2
     6    58    57    1
     7    57    56    1
     8    57    60    1
     9    26    27    1
    10    61    60    1
    11    61    62    1
    12    48    46    1
    13    47    46    1
    14    63    62    1
    15    63    64    2
    16    27    28   ar
    17    27    29   ar
    18    66    64    1
    19    28    30   ar
    20    29    31   ar
    21    46    45    1
    22    75    76    1
    23    64    65    1
    24     1     2    1
    25    76    77    1
    26    30    32   ar
    27    31    32   ar
    28    45    42    1
    29    32    33    1
    30     2     5    1
    31     2     3    1
    32    77    78    2
    33    77    79   am
    34     5     6    1
    35     9     7   ar
    36    42    41    1
    37    42    43    1
    38     8     7   ar
    39     7     6    1
    40    74    72    1
    41    79    80    1
    42    72    73    1
    43    72    71    1
    44    40    34    1
    45    40    39    1
    46     3     4    2
    47    41    36   am
    48    34    35    1
    49    13    12    2
    50    52    51    2
    51    12    11    1
    52    92    93    1
    53    69    70    2
    54    69    68    1
    55    43    49   am
    56    43    44    2
    57    36    37    2
    58    36    35    1
    59    39    38    1
    60    49    50    1
    61    80    83    1
    62    80    81    1
    63    71    68    1
    64    14    11    1
    65    14    15    1
    66    35    38    1
    67    51    50    1
    68    68    67    1
    69    97    96    1
    70    83    84    1
    71    11    10    1
    72    93    96    1
    73    93    94    1
    74    50    53    1
    75    96    98    1
    76    81    82    2
    77    81    85   am
    78    53    54    1
    79    53    55    1
    80    15    17   ar
    81    15    16   ar
    82    94    95    2
    83    17    19   ar
    84    85    86    1
    85    16    18   ar
    86    19    20   ar
    87   110   109    1
    88    87    86    1
    89    87    88    2
    90   149   151   ar
    91   149   148   ar
    92   151   153   ar
    93   145   144    1
    94   145   146    2
    95    86    89    1
    96   142   141    1
    97   127   125   ar
    98   144   147    1
    99   144   143    1
   100    89    90    1
   101    89    91    1
   102   147   148    1
   103   148   150   ar
   104    18    20   ar
   105    20    21    1
   106   153   154    1
   107   153   152   ar
   108   126   125   ar
   109   109   107   ar
   110   109   108   ar
   111   125   124    1
   112   107   105   ar
   113   141   140    1
   114   150   152   ar
   115   140   139    1
   116   108   106   ar
   117   124   123    1
   118   105   104   ar
   119   139   136    1
   120   123   120    1
   121   106   104   ar
   122   115   112    1
   123   115   116    1
   124   104   103    1
   125   133   132    1
   126   117   116    1
   127   119   120    1
   128   119   113   am
   129   136   135    1
   130   136   137    1
   131   112   113    1
   132   112   111    1
   133   116   118    1
   134   135   130   am
   135   120   121    1
   136   132   134    1
   137   132   129    1
   138   113   114    2
   139   103   100    1
   140   137   138    2
   141   130   131    2
   142   130   129    1
   143   122   121    2
   144   100   101    1
   145   100    99    1
   146   129   128    1
   147   101   102    2
