@<TRIPOS>MOLECULE
tmp/4u4lC00.pdb
 111 106 0 0 0
SMALL
GASTEIGER

@<TRIPOS>ATOM
      1  N         54.4220   -0.3550   19.4700 N.3    25  MET25      -0.1245
      2  CA        54.3150    1.0850   19.3480 C.3    25  MET25       0.1570
      3  C         55.5340    1.7990   19.9190 C.2    25  MET25       0.2261
      4  O         55.4360    2.4140   20.9860 O.2    25  MET25      -0.2867
      5  CB        53.0550    1.5650   20.0700 C.3    25  MET25       0.0387
      6  CG        52.3370    2.7220   19.3900 C.3    25  MET25       0.0595
      7  SD        51.2330    2.1160   18.1020 S.3    25  MET25      -0.1393
      8  CE        51.5060    3.3340   16.8280 C.3    25  MET25       0.0692
      9  N         50.8140   -2.7070   21.4940 N.3    26  VAL26      -0.1245
     10  CA        49.4350   -2.1970   21.6020 C.3    26  VAL26       0.1561
     11  C         48.4280   -3.0060   20.7800 C.2    26  VAL26       0.2260
     12  O         48.6400   -3.2750   19.5870 O.2    26  VAL26      -0.2867
     13  CB        49.3630   -0.6850   21.1510 C.3    26  VAL26       0.0252
     14  CG1       47.9450   -0.1490   21.3920 C.3    26  VAL26       0.0019
     15  CG2       50.4330    0.1450   21.8900 C.3    26  VAL26       0.0019
     16  N         46.0880   -3.3340   11.9640 N.3    46  TRP46      -0.1241
     17  CA        47.1110   -2.2960   11.8340 C.3    46  TRP46       0.1605
     18  C         47.7730   -2.2470   10.4500 C.2    46  TRP46       0.2264
     19  O         48.1690   -1.1700    9.9860 O.2    46  TRP46      -0.2867
     20  CB        48.2180   -2.4760   12.8780 C.3    46  TRP46       0.0550
     21  CG        47.8350   -2.3700   14.3370 C.ar   46  TRP46       0.0003
     22  CD1       47.5040   -3.4070   15.1710 C.ar   46  TRP46       0.0946
     23  CD2       47.8470   -1.1870   15.1580 C.ar   46  TRP46       0.0152
     24  NE1       47.2650   -2.9360   16.4430 N.ar   46  TRP46      -0.2442
     25  CE2       47.4630   -1.5790   16.4620 C.ar   46  TRP46       0.0810
     26  CE3       48.1160    0.1640   14.9130 C.ar   46  TRP46       0.0012
     27  CZ2       47.3510   -0.6720   17.5120 C.ar   46  TRP46       0.0191
     28  CZ3       47.9950    1.0680   15.9640 C.ar   46  TRP46       0.0001
     29  CH2       47.6240    0.6410   17.2460 C.ar   46  TRP46       0.0015
     30  N         42.8240    6.5670   11.5140 N.3    75  HIS75      -0.1226
     31  CA        44.0650    6.2860   12.2360 C.3    75  HIS75       0.1752
     32  C         44.5440    4.9030   11.7930 C.2    75  HIS75       0.2596
     33  O         43.7560    4.1250   11.2520 O.2    75  HIS75      -0.2718
     34  CB        43.8650    6.3510   13.7550 C.3    75  HIS75       0.0759
     35  CG        43.9010    7.7460   14.3180 C.ar   75  HIS75       0.0818
     36  ND1       43.4600    8.0470   15.5900 N.ar   75  HIS75      -0.2268
     37  CD2       44.3340    8.9170   13.7860 C.ar   75  HIS75       0.1154
     38  CE1       43.6140    9.3420   15.8160 C.ar   75  HIS75       0.1986
     39  NE2       44.1450    9.8920   14.7370 N.ar   75  HIS75      -0.2212
     40  N         45.8210    4.5950   12.0100 N.am   76  GLN76      -0.1965
     41  CA        46.4020    3.3660   11.4580 C.3    76  GLN76       0.1733
     42  C         45.7450    2.0730   11.9550 C.2    76  GLN76       0.2616
     43  O         45.6850    1.0820   11.2240 O.2    76  GLN76      -0.2715
     44  CB        47.9050    3.2920   11.7500 C.3    76  GLN76       0.0408
     45  CG        48.5980    2.1810   10.9320 C.3    76  GLN76       0.0908
     46  CD        50.0100    1.8840   11.3910 C.2    76  GLN76       0.2608
     47  OE1       50.6210    2.6700   12.1180 O.2    76  GLN76      -0.2717
     48  NE2       50.5490    0.7460   10.9490 N.am   76  GLN76      -0.0878
     49  N         45.2840    2.0560   13.1990 N.am   77  ASP77      -0.1971
     50  CA        44.7160    0.8260   13.7280 C.3    77  ASP77       0.1709
     51  C         43.3570    0.4710   13.1050 C.2    77  ASP77       0.2293
     52  O         42.9390   -0.6980   13.1340 O.2    77  ASP77      -0.2864
     53  CB        44.6060    0.9020   15.2560 C.3    77  ASP77       0.1436
     54  CG        43.8500    2.1240   15.7470 C.2    77  ASP77       0.3671
     55  OD1       43.8340    3.1700   15.0610 O.co2  77  ASP77      -0.2456
     56  OD2       43.2840    2.0330   16.8540 O.co2  77  ASP77      -0.2456
     57  N         37.2900   11.6660   20.3820 N.3   142  HIS142     -0.1241
     58  CA        38.6330   11.1280   20.1710 C.3   142  HIS142      0.1621
     59  C         39.2560   11.7900   18.9410 C.2   142  HIS142      0.2264
     60  O         40.4120   12.2250   18.9610 O.2   142  HIS142     -0.2867
     61  CB        38.5500    9.5990   20.0090 C.3   142  HIS142      0.0745
     62  CG        39.8280    8.9480   19.5630 C.ar  142  HIS142      0.0817
     63  ND1       40.9410    8.8410   20.3740 N.ar  142  HIS142     -0.2268
     64  CD2       40.1650    8.3550   18.3900 C.ar  142  HIS142      0.1154
     65  CE1       41.9060    8.2160   19.7210 C.ar  142  HIS142      0.1986
     66  NE2       41.4620    7.9130   18.5160 N.ar  142  HIS142     -0.2212
     67  N         37.4710    3.8260   19.0920 N.3   161  CYS161     -0.1235
     68  CA        38.4610    4.4040   20.0000 C.3   161  CYS161      0.1677
     69  C         37.9120    5.5520   20.8360 C.2   161  CYS161      0.2270
     70  O         38.6150    6.0810   21.6990 O.2   161  CYS161     -0.2867
     71  CB        39.6830    4.8750   19.2230 C.3   161  CYS161      0.0956
     72  SG        40.3590    3.5910   18.1540 S.3   161  CYS161     -0.0801
     73  N         36.5980    4.2760   26.1920 N.3   164  LYS164     -0.1245
     74  CA        37.6310    3.5770   26.9630 C.3   164  LYS164      0.1561
     75  C         36.9580    2.7170   28.0250 C.2   164  LYS164      0.2260
     76  O         35.8170    2.9860   28.4030 O.2   164  LYS164     -0.2867
     77  CB        38.5920    4.5600   27.6470 C.3   164  LYS164      0.0271
     78  CG        39.2750    5.5980   26.7500 C.3   164  LYS164      0.0035
     79  CD        39.7500    5.0570   25.4110 C.3   164  LYS164      0.0206
     80  CE        40.3530    6.1890   24.5670 C.3   164  LYS164      0.1093
     81  NZ        40.8420    5.7260   23.2340 N.3   164  LYS164     -0.1314
     82  N         41.9560    9.4810   28.9340 N.3   171  LEU171     -0.1231
     83  CA        41.4110    9.3260   27.5870 C.3   171  LEU171      0.1693
     84  C         42.4560    9.2500   26.4870 C.2   171  LEU171      0.2592
     85  O         42.1360    8.9280   25.3420 O.2   171  LEU171     -0.2718
     86  CB        40.4610   10.4910   27.2980 C.3   171  LEU171      0.0284
     87  CG        39.1640   10.4720   28.1060 C.3   171  LEU171      0.0019
     88  CD1       38.3600   11.7340   27.8450 C.3   171  LEU171      0.0001
     89  CD2       38.3610    9.2260   27.7490 C.3   171  LEU171      0.0001
     90  N         43.7070    9.5580   26.8080 N.am  172  GLY172     -0.1957
     91  CA        44.7400    9.4620   25.8000 C.3   172  GLY172      0.1869
     92  C         44.5620   10.4900   24.6990 C.2   172  GLY172      0.2309
     93  O         45.1280   10.3480   23.6160 O.2   172  GLY172     -0.2863
     94  N         44.7190   13.4600   22.1230 N.3   174  LEU174     -0.1245
     95  CA        45.8450   14.1600   21.5330 C.3   174  LEU174      0.1561
     96  C         45.3180   15.3930   20.8310 C.2   174  LEU174      0.2260
     97  O         44.2040   15.8440   21.1110 O.2   174  LEU174     -0.2867
     98  CB        46.6050   13.2660   20.5520 C.3   174  LEU174      0.0270
     99  CG        47.2280   12.0070   21.1600 C.3   174  LEU174      0.0019
    100  CD1       48.0390   11.2570   20.1190 C.3   174  LEU174      0.0001
    101  CD2       48.0790   12.3570   22.3760 C.3   174  LEU174      0.0001
    102  N         40.6630   -0.5730   22.2670 N.3   203  HIS203     -0.1241
    103  CA        41.9000   -0.8230   23.0090 C.3   203  HIS203      0.1621
    104  C         41.6900   -1.3850   24.4040 C.2   203  HIS203      0.2264
    105  O         42.5790   -1.3130   25.2550 O.2   203  HIS203     -0.2867
    106  CB        42.7270    0.4630   23.0650 C.3   203  HIS203      0.0745
    107  CG        43.0100    1.0350   21.7130 C.ar  203  HIS203      0.0817
    108  ND1       43.7760    0.3740   20.7770 N.ar  203  HIS203     -0.2268
    109  CD2       42.5890    2.1770   21.1170 C.ar  203  HIS203      0.1154
    110  CE1       43.8330    1.0930   19.6700 C.ar  203  HIS203      0.1986
    111  NE2       43.1240    2.1930   19.8500 N.ar  203  HIS203     -0.2212
@<TRIPOS>BOND
     1    19    18    2
     2    18    17    1
     3    45    46    1
     4    45    44    1
     5    48    46   am
     6    43    42    2
     7    33    32    2
     8    46    47    2
     9    41    44    1
    10    41    42    1
    11    41    40    1
    12    30    31    1
    13    32    40   am
    14    32    31    1
    15    17    16    1
    16    17    20    1
    17    42    49   am
    18    31    34    1
    19    20    21    1
    20    51    52    2
    21    51    50    1
    22    49    50    1
    23    50    53    1
    24    34    35    1
    25    37    35   ar
    26    37    39   ar
    27    35    36   ar
    28    21    23   ar
    29    21    22   ar
    30    39    38   ar
    31    26    23   ar
    32    26    28   ar
    33    55    54   ar
    34    23    25   ar
    35    22    24   ar
    36    53    54    1
    37    36    38   ar
    38    54    56   ar
    39    28    29   ar
    40    24    25   ar
    41    25    27   ar
    42     8     7    1
    43    29    27   ar
    44     7     6    1
    45    72    71    1
    46    64    66   ar
    47    64    62   ar
    48    66    65   ar
    49    59    60    2
    50    59    58    1
    51    67    68    1
    52    71    68    1
    53     2     1    1
    54     2     3    1
    55     2     5    1
    56     6     5    1
    57    62    61    1
    58    62    63   ar
    59    12    11    2
    60   110   111   ar
    61   110   108   ar
    62    65    63   ar
    63   111   109   ar
    64     3     4    2
    65    68    69    1
    66    61    58    1
    67   100    99    1
    68    58    57    1
    69    98    99    1
    70    98    95    1
    71   108   107   ar
    72    11    10    1
    73    96    97    2
    74    96    95    1
    75    69    70    2
    76   109   107   ar
    77    13    14    1
    78    13    10    1
    79    13    15    1
    80    99   101    1
    81     9    10    1
    82    95    94    1
    83   107   106    1
    84   102   103    1
    85   103   106    1
    86   103   104    1
    87    81    80    1
    88    93    92    2
    89   104   105    2
    90    80    79    1
    91    92    91    1
    92    85    84    2
    93    79    78    1
    94    91    90    1
    95    73    74    1
    96    84    90   am
    97    84    83    1
    98    78    77    1
    99    74    77    1
   100    74    75    1
   101    86    83    1
   102    86    87    1
   103    83    82    1
   104    89    87    1
   105    88    87    1
   106    75    76    2
