@<TRIPOS>MOLECULE
tmp/4u4wA01.pdb
 103 99 0 0 0
SMALL
GASTEIGER

@<TRIPOS>ATOM
      1  N          6.8270  -40.3540  -36.7380 N.3    32  VAL32      -0.1231
      2  CA         5.9970  -41.1850  -35.8690 C.3    32  VAL32       0.1678
      3  C          6.5360  -41.2660  -34.4330 C.2    32  VAL32       0.2434
      4  O          5.7840  -41.0170  -33.4910 O.2    32  VAL32      -0.2733
      5  CB         5.8280  -42.6110  -36.4510 C.3    32  VAL32       0.0265
      6  CG1        5.3440  -43.5800  -35.3820 C.3    32  VAL32       0.0020
      7  CG2        4.8680  -42.5850  -37.6270 C.3    32  VAL32       0.0020
      8  N          7.8320  -41.5960  -34.2480 N.am   33  PRO33      -0.2729
      9  CA         8.2820  -41.6390  -32.8510 C.3    33  PRO33       0.1401
     10  C          8.3180  -40.2620  -32.1940 C.2    33  PRO33       0.2269
     11  O          8.1130  -40.1620  -30.9850 O.2    33  PRO33      -0.2865
     12  CB         9.6930  -42.2250  -32.9550 C.3    33  PRO33       0.0296
     13  CG        10.1390  -41.8820  -34.3240 C.3    33  PRO33       0.0237
     14  CD         8.9130  -41.9860  -35.1730 C.3    33  PRO33       0.0939
     15  N          4.8050  -39.6210  -31.2070 N.3    36  LEU36      -0.1231
     16  CA         4.4600  -40.5370  -30.1270 C.3    36  LEU36       0.1693
     17  C          4.9760  -40.0070  -28.7920 C.2    36  LEU36       0.2591
     18  O          4.2760  -40.0570  -27.7800 O.2    36  LEU36      -0.2718
     19  CB         5.0240  -41.9320  -30.4100 C.3    36  LEU36       0.0284
     20  CG         4.6740  -43.0680  -29.4440 C.3    36  LEU36       0.0019
     21  CD1        4.4930  -44.3710  -30.2060 C.3    36  LEU36       0.0001
     22  CD2        5.7420  -43.2300  -28.3680 C.3    36  LEU36       0.0001
     23  N          6.2030  -39.4960  -28.7980 N.am   37  LEU37      -0.1980
     24  CA         6.7970  -38.9170  -27.5990 C.3    37  LEU37       0.1596
     25  C          6.0560  -37.6560  -27.1660 C.2    37  LEU37       0.2287
     26  O          6.0230  -37.3200  -25.9830 O.2    37  LEU37      -0.2864
     27  CB         8.2750  -38.6010  -27.8320 C.3    37  LEU37       0.0297
     28  CG         9.2120  -39.8030  -27.9570 C.3    37  LEU37       0.0022
     29  CD1       10.6330  -39.3510  -28.2460 C.3    37  LEU37       0.0001
     30  CD2        9.1610  -40.6370  -26.6890 C.3    37  LEU37       0.0001
     31  N          1.4310  -45.6080  -24.1360 N.3   170  VAL170     -0.1245
     32  CA         2.8430  -45.8790  -23.8890 C.3   170  VAL170      0.1561
     33  C          3.2890  -45.2240  -22.5860 C.2   170  VAL170      0.2260
     34  O          3.9050  -45.8670  -21.7370 O.2   170  VAL170     -0.2867
     35  CB         3.7290  -45.3800  -25.0510 C.3   170  VAL170      0.0252
     36  CG1        5.1960  -45.3980  -24.6520 C.3   170  VAL170      0.0019
     37  CG2        3.5010  -46.2300  -26.2930 C.3   170  VAL170      0.0019
     38  N          4.5120  -46.9760  -19.1870 N.3   174  VAL174     -0.1245
     39  CA         5.9070  -46.8240  -18.7860 C.3   174  VAL174      0.1561
     40  C          6.0420  -46.1380  -17.4280 C.2   174  VAL174      0.2260
     41  O          6.8400  -46.5600  -16.5900 O.2   174  VAL174     -0.2867
     42  CB         6.7050  -46.0250  -19.8420 C.3   174  VAL174      0.0252
     43  CG1        8.0480  -45.5710  -19.2860 C.3   174  VAL174      0.0019
     44  CG2        6.9000  -46.8580  -21.0970 C.3   174  VAL174      0.0019
     45  N          8.5330  -47.2410  -14.1410 N.3   178  VAL178     -0.1245
     46  CA         9.8090  -46.5900  -13.8600 C.3   178  VAL178      0.1561
     47  C          9.8650  -45.8860  -12.5020 C.2   178  VAL178      0.2260
     48  O         10.9510  -45.6500  -11.9680 O.2   178  VAL178     -0.2867
     49  CB        10.1510  -45.5630  -14.9600 C.3   178  VAL178      0.0252
     50  CG1       10.3850  -46.2710  -16.2800 C.3   178  VAL178      0.0019
     51  CG2        9.0390  -44.5300  -15.0940 C.3   178  VAL178      0.0019
     52  N         16.6740  -45.1980  -11.0520 N.3   183  ILE183     -0.1245
     53  CA        17.5260  -45.1720  -12.2370 C.3   183  ILE183      0.1561
     54  C         18.2370  -43.8370  -12.4420 C.2   183  ILE183      0.2260
     55  O         19.2590  -43.7740  -13.1260 O.2   183  ILE183     -0.2867
     56  CB        16.7140  -45.4930  -13.5090 C.3   183  ILE183      0.0252
     57  CG1       15.3080  -44.9020  -13.4020 C.3   183  ILE183      0.0019
     58  CG2       16.6410  -46.9960  -13.7380 C.3   183  ILE183      0.0019
     59  CD1       14.4090  -45.2550  -14.5650 C.3   183  ILE183      0.0001
     60  N         12.0500  -39.8300  -17.6690 N.3   208  ILE208     -0.1231
     61  CA        12.3030  -40.9760  -18.5380 C.3   208  ILE208      0.1692
     62  C         12.2230  -40.5890  -20.0160 C.2   208  ILE208      0.2592
     63  O         12.8250  -41.2380  -20.8720 O.2   208  ILE208     -0.2718
     64  CB        11.3090  -42.1280  -18.2470 C.3   208  ILE208      0.0266
     65  CG1       11.7230  -43.4080  -18.9780 C.3   208  ILE208      0.0019
     66  CG2        9.8860  -41.7240  -18.6060 C.3   208  ILE208      0.0020
     67  CD1       13.1140  -43.8800  -18.6320 C.3   208  ILE208      0.0001
     68  N         11.4970  -39.5160  -20.3100 N.am  209  TRP209     -0.1976
     69  CA        11.2900  -39.0970  -21.6890 C.3   209  TRP209      0.1640
     70  C         12.4090  -38.1930  -22.1880 C.2   209  TRP209      0.2290
     71  O         12.6050  -38.0530  -23.3940 O.2   209  TRP209     -0.2864
     72  CB         9.9410  -38.3910  -21.8260 C.3   209  TRP209      0.0576
     73  CG         8.8140  -39.1800  -21.2340 C.ar  209  TRP209      0.0006
     74  CD1        8.0490  -38.8400  -20.1550 C.ar  209  TRP209      0.0946
     75  CD2        8.3420  -40.4600  -21.6730 C.ar  209  TRP209      0.0152
     76  NE1        7.1210  -39.8220  -19.9040 N.ar  209  TRP209     -0.2442
     77  CE2        7.2810  -40.8270  -20.8210 C.ar  209  TRP209      0.0810
     78  CE3        8.7080  -41.3260  -22.7070 C.ar  209  TRP209      0.0012
     79  CZ2        6.5850  -42.0260  -20.9710 C.ar  209  TRP209      0.0191
     80  CZ3        8.0150  -42.5150  -22.8550 C.ar  209  TRP209      0.0001
     81  CH2        6.9650  -42.8530  -21.9930 C.ar  209  TRP209      0.0015
     82  N         14.9270  -39.8910  -24.5760 N.3   212  PHE212     -0.1241
     83  CA        14.2760  -40.2420  -25.8330 C.3   212  PHE212      0.1605
     84  C         13.9240  -39.0010  -26.6500 C.2   212  PHE212      0.2264
     85  O         13.9990  -39.0170  -27.8770 O.2   212  PHE212     -0.2867
     86  CB        13.0220  -41.0720  -25.5700 C.3   212  PHE212      0.0534
     87  CG        13.3060  -42.4410  -25.0270 C.ar  212  PHE212     -0.0203
     88  CD1       13.5460  -43.5030  -25.8840 C.ar  212  PHE212     -0.0042
     89  CD2       13.3280  -42.6700  -23.6610 C.ar  212  PHE212     -0.0042
     90  CE1       13.8050  -44.7670  -25.3880 C.ar  212  PHE212     -0.0003
     91  CE2       13.5850  -43.9310  -23.1600 C.ar  212  PHE212     -0.0003
     92  CZ        13.8230  -44.9800  -24.0250 C.ar  212  PHE212     -0.0000
     93  N         15.5980  -38.4210  -30.5260 N.3   216  PHE216     -0.1241
     94  CA        14.8120  -38.2260  -31.7390 C.3   216  PHE216      0.1605
     95  C         14.7860  -36.7700  -32.1950 C.2   216  PHE216      0.2264
     96  O         14.2900  -36.4650  -33.2800 O.2   216  PHE216     -0.2867
     97  CB        13.3910  -38.7470  -31.5360 C.3   216  PHE216      0.0534
     98  CG        13.3020  -40.2440  -31.5020 C.ar  216  PHE216     -0.0203
     99  CD1       13.3030  -40.9780  -32.6780 C.ar  216  PHE216     -0.0042
    100  CD2       13.2300  -40.9210  -30.2960 C.ar  216  PHE216     -0.0042
    101  CE1       13.2290  -42.3560  -32.6510 C.ar  216  PHE216     -0.0003
    102  CE2       13.1530  -42.3010  -30.2630 C.ar  216  PHE216     -0.0003
    103  CZ        13.1520  -43.0180  -31.4430 C.ar  216  PHE216     -0.0000
@<TRIPOS>BOND
     1     7     5    1
     2     1     2    1
     3     5     2    1
     4     5     6    1
     5     2     3    1
     6    14    13    1
     7    14     8    1
     8     3     8   am
     9     3     4    2
    10    13    12    1
    11     8     9    1
    12    96    95    2
    13    12     9    1
    14     9    10    1
    15    99   101   ar
    16    99    98   ar
    17   101   103   ar
    18    95    94    1
    19    10    11    2
    20    94    97    1
    21    94    93    1
    22    97    98    1
    23    98   100   ar
    24   103   102   ar
    25    15    16    1
    26    19    16    1
    27    19    20    1
    28   100   102   ar
    29    21    20    1
    30    16    17    1
    31    20    22    1
    32    23    17   am
    33    23    24    1
    34    17    18    2
    35    29    28    1
    36    28    27    1
    37    28    30    1
    38    85    84    2
    39    27    24    1
    40    24    25    1
    41    25    26    2
    42    84    83    1
    43    37    35    1
    44    88    90   ar
    45    88    87   ar
    46    83    86    1
    47    83    82    1
    48    86    87    1
    49    90    92   ar
    50    35    36    1
    51    35    32    1
    52    87    89   ar
    53    31    32    1
    54    92    91   ar
    55    32    33    1
    56    89    91   ar
    57    71    70    2
    58    80    78   ar
    59    80    81   ar
    60    78    75   ar
    61    33    34    2
    62    70    69    1
    63    81    79   ar
    64    72    69    1
    65    72    73    1
    66    69    68    1
    67    75    73   ar
    68    75    77   ar
    69    73    74   ar
    70    44    42    1
    71    79    77   ar
    72    63    62    2
    73    77    76   ar
    74    68    62   am
    75    74    76   ar
    76    62    61    1
    77    42    43    1
    78    42    39    1
    79    38    39    1
    80    65    67    1
    81    65    64    1
    82    39    40    1
    83    66    64    1
    84    61    64    1
    85    61    60    1
    86    40    41    2
    87    50    49    1
    88    51    49    1
    89    49    46    1
    90    59    57    1
    91    45    46    1
    92    46    47    1
    93    58    56    1
    94    56    57    1
    95    56    53    1
    96    55    54    2
    97    47    48    2
    98    54    53    1
    99    53    52    1
