@<TRIPOS>MOLECULE
tmp/4u4wA04.pdb
 79 75 0 0 0
SMALL
GASTEIGER

@<TRIPOS>ATOM
      1  N         -9.9420  -31.0050  -21.9830 N.3   400  PHE400     -0.1227
      2  CA       -10.0560  -30.1440  -20.8120 C.3   400  PHE400      0.1736
      3  C        -11.4240  -30.2900  -20.1670 C.2   400  PHE400      0.2595
      4  O        -11.5350  -30.3900  -18.9460 O.2   400  PHE400     -0.2718
      5  CB        -9.8130  -28.6760  -21.1810 C.3   400  PHE400      0.0547
      6  CG       -10.3150  -27.7020  -20.1470 C.ar  400  PHE400     -0.0202
      7  CD1       -9.6080  -27.4900  -18.9740 C.ar  400  PHE400     -0.0042
      8  CD2      -11.4960  -27.0030  -20.3450 C.ar  400  PHE400     -0.0042
      9  CE1      -10.0690  -26.5980  -18.0200 C.ar  400  PHE400     -0.0003
     10  CE2      -11.9610  -26.1120  -19.3930 C.ar  400  PHE400     -0.0003
     11  CZ       -11.2460  -25.9100  -18.2310 C.ar  400  PHE400     -0.0000
     12  N        -12.4610  -30.2980  -20.9970 N.am  401  PHE401     -0.1976
     13  CA       -13.8330  -30.3050  -20.5090 C.3   401  PHE401      0.1639
     14  C        -14.1390  -31.5180  -19.6330 C.2   401  PHE401      0.2290
     15  O        -14.6550  -31.3700  -18.5280 O.2   401  PHE401     -0.2864
     16  CB       -14.8140  -30.2500  -21.6820 C.3   401  PHE401      0.0560
     17  CG       -16.2530  -30.1470  -21.2630 C.ar  401  PHE401     -0.0200
     18  CD1      -16.8150  -28.9160  -20.9610 C.ar  401  PHE401     -0.0042
     19  CD2      -17.0470  -31.2800  -21.1720 C.ar  401  PHE401     -0.0042
     20  CE1      -18.1410  -28.8180  -20.5730 C.ar  401  PHE401     -0.0003
     21  CE2      -18.3720  -31.1890  -20.7860 C.ar  401  PHE401     -0.0003
     22  CZ       -18.9200  -29.9570  -20.4860 C.ar  401  PHE401     -0.0000
     23  N        -12.2860  -31.6300  -16.2140 N.3   404  LYS404     -0.1231
     24  CA       -12.7660  -30.4870  -15.4470 C.3   404  LYS404      0.1693
     25  C        -14.2060  -30.6980  -15.0010 C.2   404  LYS404      0.2591
     26  O        -14.5960  -30.2730  -13.9130 O.2   404  LYS404     -0.2718
     27  CB       -12.6620  -29.1950  -16.2580 C.3   404  LYS404      0.0285
     28  CG       -12.8750  -27.9440  -15.4190 C.3   404  LYS404      0.0035
     29  CD       -11.7390  -27.7700  -14.4200 C.3   404  LYS404      0.0206
     30  CE       -12.2390  -27.2210  -13.0970 C.3   404  LYS404      0.1093
     31  NZ       -13.1710  -28.1770  -12.4410 N.3   404  LYS404     -0.1314
     32  N        -14.9920  -31.3540  -15.8480 N.am  405  ALA405     -0.1980
     33  CA       -16.3810  -31.6500  -15.5200 C.3   405  ALA405      0.1597
     34  C        -16.4620  -32.6210  -14.3490 C.2   405  ALA405      0.2287
     35  O        -17.2970  -32.4640  -13.4620 O.2   405  ALA405     -0.2864
     36  CB       -17.1090  -32.2150  -16.7290 C.3   405  ALA405      0.0319
     37  N        -15.3850  -30.7690  -11.1230 N.3   408  SER408     -0.1202
     38  CA       -16.4330  -29.8540  -10.6910 C.3   408  SER408      0.2020
     39  C        -17.6420  -30.6040  -10.1450 C.2   408  SER408      0.2619
     40  O        -18.2470  -30.1800   -9.1630 O.2   408  SER408     -0.2717
     41  CB       -16.8580  -28.9430  -11.8430 C.3   408  SER408      0.2103
     42  OG       -15.7950  -28.0910  -12.2290 O.3   408  SER408     -0.2182
     43  N        -17.9900  -31.7170  -10.7840 N.am  409  SER409     -0.1951
     44  CA       -19.1130  -32.5370  -10.3380 C.3   409  SER409      0.1924
     45  C        -18.8290  -33.1790   -8.9800 C.2   409  SER409      0.2314
     46  O        -19.7130  -33.2730   -8.1270 O.2   409  SER409     -0.2863
     47  CB       -19.4310  -33.6170  -11.3740 C.3   409  SER409      0.2116
     48  OG       -20.5640  -34.3720  -10.9850 O.3   409  SER409     -0.2180
     49  N        -18.7740  -30.2050   -6.2280 N.3   412  LEU412     -0.1231
     50  CA       -20.0680  -29.5890   -5.9580 C.3   412  LEU412      0.1693
     51  C        -21.0860  -30.5730   -5.3820 C.2   412  LEU412      0.2592
     52  O        -21.8820  -30.2100   -4.5160 O.2   412  LEU412     -0.2718
     53  CB       -20.6300  -28.9570   -7.2350 C.3   412  LEU412      0.0284
     54  CG       -19.8810  -27.7520   -7.8120 C.3   412  LEU412      0.0019
     55  CD1      -20.4590  -27.3600   -9.1630 C.3   412  LEU412      0.0001
     56  CD2      -19.9360  -26.5810   -6.8490 C.3   412  LEU412      0.0001
     57  N        -21.0540  -31.8150   -5.8550 N.am  413  THR413     -0.1953
     58  CA       -22.0990  -32.7790   -5.5250 C.3   413  THR413      0.1897
     59  C        -21.5870  -34.0280   -4.8110 C.2   413  THR413      0.2313
     60  O        -22.3780  -34.8240   -4.3040 O.2   413  THR413     -0.2863
     61  CB       -22.8500  -33.2240   -6.7910 C.3   413  THR413      0.1794
     62  OG1      -21.9290  -33.8390   -7.7000 O.3   413  THR413     -0.2208
     63  CG2      -23.5000  -32.0280   -7.4680 C.3   413  THR413      0.0378
     64  N        -23.0690  -35.9080  -12.0860 N.3   418  GLY418     -0.1210
     65  CA       -23.3630  -34.6250  -12.7010 C.3   418  GLY418      0.1956
     66  C        -22.6240  -34.4020  -14.0060 C.2   418  GLY418      0.2611
     67  O        -23.1800  -33.8540  -14.9590 O.2   418  GLY418     -0.2717
     68  N        -21.3670  -34.8310  -14.0500 N.am  419  ALA419     -0.1979
     69  CA       -20.5570  -34.7060  -15.2540 C.3   419  ALA419      0.1597
     70  C        -20.9850  -35.7290  -16.2990 C.2   419  ALA419      0.2287
     71  O        -20.8980  -35.4780  -17.5000 O.2   419  ALA419     -0.2864
     72  CB       -19.0830  -34.8710  -14.9240 C.3   419  ALA419      0.0319
     73  N        -24.1660  -34.6270  -18.2820 N.3   422  VAL422     -0.1245
     74  CA       -23.7930  -33.7020  -19.3460 C.3   422  VAL422      0.1561
     75  C        -23.2430  -34.4550  -20.5540 C.2   422  VAL422      0.2260
     76  O        -23.5920  -34.1500  -21.6960 O.2   422  VAL422     -0.2867
     77  CB       -22.7500  -32.6740  -18.8570 C.3   422  VAL422      0.0252
     78  CG1      -22.2310  -31.8380  -20.0180 C.3   422  VAL422      0.0019
     79  CG2      -23.3540  -31.7820  -17.7830 C.3   422  VAL422      0.0019
@<TRIPOS>BOND
     1     1     2    1
     2    76    75    2
     3    16    17    1
     4    16    13    1
     5    17    19   ar
     6    17    18   ar
     7     5     2    1
     8     5     6    1
     9    19    21   ar
    10    12    13    1
    11    12     3   am
    12    18    20   ar
    13     2     3    1
    14    21    22   ar
    15    20    22   ar
    16    75    74    1
    17    13    14    1
    18     8     6   ar
    19     8    10   ar
    20     3     4    2
    21     6     7   ar
    22    78    77    1
    23    14    15    2
    24    10    11   ar
    25    74    77    1
    26    74    73    1
    27     7     9   ar
    28    77    79    1
    29    11     9   ar
    30    71    70    2
    31    36    33    1
    32    70    69    1
    33    27    24    1
    34    27    28    1
    35    23    24    1
    36    32    33    1
    37    32    25   am
    38    33    34    1
    39    24    25    1
    40    28    29    1
    41    69    72    1
    42    69    68    1
    43    25    26    2
    44    67    66    2
    45    29    30    1
    46    34    35    2
    47    68    66   am
    48    66    65    1
    49    30    31    1
    50    65    64    1
    51    42    41    1
    52    41    38    1
    53    47    48    1
    54    47    44    1
    55    37    38    1
    56    43    44    1
    57    43    39   am
    58    38    39    1
    59    44    45    1
    60    39    40    2
    61    55    54    1
    62    45    46    2
    63    54    53    1
    64    54    56    1
    65    62    61    1
    66    63    61    1
    67    53    50    1
    68    61    58    1
    69    49    50    1
    70    50    51    1
    71    57    58    1
    72    57    51   am
    73    58    59    1
    74    51    52    2
    75    59    60    2
