@<TRIPOS>MOLECULE
tmp/4u4wB05.pdb
 98 93 0 0 0
SMALL
GASTEIGER

@<TRIPOS>ATOM
      1  N         11.5930  -14.7650  -38.5630 N.3    28  TRP28      -0.1241
      2  CA        10.8040  -15.2470  -37.4340 C.3    28  TRP28       0.1605
      3  C         11.6420  -16.0030  -36.4120 C.2    28  TRP28       0.2264
      4  O         11.1070  -16.6040  -35.4830 O.2    28  TRP28      -0.2867
      5  CB         9.6510  -16.1220  -37.9290 C.3    28  TRP28       0.0550
      6  CG         8.6090  -15.3220  -38.6470 C.ar   28  TRP28       0.0003
      7  CD1        8.2480  -15.4280  -39.9590 C.ar   28  TRP28       0.0946
      8  CD2        7.8150  -14.2620  -38.0960 C.ar   28  TRP28       0.0152
      9  NE1        7.2660  -14.5110  -40.2540 N.ar   28  TRP28      -0.2442
     10  CE2        6.9840  -13.7820  -39.1280 C.ar   28  TRP28       0.0810
     11  CE3        7.7200  -13.6790  -36.8280 C.ar   28  TRP28       0.0012
     12  CZ2        6.0710  -12.7450  -38.9310 C.ar   28  TRP28       0.0191
     13  CZ3        6.8140  -12.6500  -36.6340 C.ar   28  TRP28       0.0001
     14  CH2        6.0010  -12.1940  -37.6790 C.ar   28  TRP28       0.0015
     15  N         12.9900  -12.1750  -34.7770 N.3    31  VAL31      -0.1231
     16  CA        12.0000  -11.4770  -33.9590 C.3    31  VAL31       0.1678
     17  C         11.9940  -11.9390  -32.4900 C.2    31  VAL31       0.2434
     18  O         12.0520  -11.1000  -31.5890 O.2    31  VAL31      -0.2733
     19  CB        10.5760  -11.6250  -34.5560 C.3    31  VAL31       0.0265
     20  CG1        9.5190  -11.2130  -33.5430 C.3    31  VAL31       0.0020
     21  CG2       10.4490  -10.8110  -35.8330 C.3    31  VAL31       0.0020
     22  N         11.9310  -13.2630  -32.2330 N.am   32  PRO32      -0.2729
     23  CA        11.9560  -13.6300  -30.8120 C.3    32  PRO32       0.1401
     24  C         13.3170  -13.3900  -30.1630 C.2    32  PRO32       0.2269
     25  O         13.3860  -13.1690  -28.9550 O.2    32  PRO32      -0.2865
     26  CB        11.6170  -15.1230  -30.8300 C.3    32  PRO32       0.0296
     27  CG        12.0560  -15.5890  -32.1670 C.3    32  PRO32       0.0237
     28  CD        11.7700  -14.4490  -33.0960 C.3    32  PRO32       0.0939
     29  N         13.2510   -9.6670  -29.2940 N.3    35  LEU35      -0.1245
     30  CA        12.3040   -9.4210  -28.2120 C.3    35  LEU35       0.1561
     31  C         12.9350   -9.7640  -26.8640 C.2    35  LEU35       0.2260
     32  O         12.7220   -9.0650  -25.8720 O.2    35  LEU35      -0.2867
     33  CB        11.0190  -10.2280  -28.4330 C.3    35  LEU35       0.0270
     34  CG         9.7930   -9.9510  -27.5560 C.3    35  LEU35       0.0019
     35  CD1        8.5110  -10.2130  -28.3330 C.3    35  LEU35       0.0001
     36  CD2        9.8150  -10.7940  -26.2870 C.3    35  LEU35       0.0001
     37  N         10.2790   -2.8500  -40.2060 N.3   157  GLY157     -0.1210
     38  CA         9.4690   -2.3290  -39.1200 C.3   157  GLY157      0.1956
     39  C          8.8400   -3.4220  -38.2790 C.2   157  GLY157      0.2611
     40  O          8.6380   -3.2540  -37.0760 O.2   157  GLY157     -0.2717
     41  N          8.5300   -4.5480  -38.9140 N.am  158  LEU158     -0.1979
     42  CA         7.9420   -5.6870  -38.2170 C.3   158  LEU158      0.1596
     43  C          8.9380   -6.2970  -37.2350 C.2   158  LEU158      0.2287
     44  O          8.5770   -6.6730  -36.1190 O.2   158  LEU158     -0.2864
     45  CB         7.4740   -6.7420  -39.2220 C.3   158  LEU158      0.0297
     46  CG         6.7630   -7.9750  -38.6620 C.3   158  LEU158      0.0022
     47  CD1        5.5050   -7.5680  -37.9140 C.3   158  LEU158      0.0001
     48  CD2        6.4330   -8.9540  -39.7800 C.3   158  LEU158      0.0001
     49  N          9.4300   -3.5010  -34.5510 N.3   161  GLY161     -0.1210
     50  CA         8.1970   -3.2740  -33.8190 C.3   161  GLY161      0.1956
     51  C          7.9100   -4.3710  -32.8120 C.2   161  GLY161      0.2611
     52  O          7.5760   -4.0960  -31.6590 O.2   161  GLY161     -0.2717
     53  N          8.0410   -5.6200  -33.2470 N.am  162  LEU162     -0.1979
     54  CA         7.8430   -6.7620  -32.3610 C.3   162  LEU162      0.1596
     55  C          8.9980   -6.8760  -31.3710 C.2   162  LEU162      0.2287
     56  O          8.8570   -7.4660  -30.2980 O.2   162  LEU162     -0.2864
     57  CB         7.7000   -8.0540  -33.1670 C.3   162  LEU162      0.0297
     58  CG         6.4330   -8.1890  -34.0130 C.3   162  LEU162      0.0022
     59  CD1        6.4730   -9.4630  -34.8430 C.3   162  LEU162      0.0001
     60  CD2        5.1980   -8.1630  -33.1260 C.3   162  LEU162      0.0001
     61  N          8.3930   -4.8680  -28.2290 N.3   165  MET165     -0.1245
     62  CA         7.4110   -5.5120  -27.3640 C.3   165  MET165      0.1570
     63  C          8.0710   -6.1740  -26.1590 C.2   165  MET165      0.2261
     64  O          7.4200   -6.4130  -25.1440 O.2   165  MET165     -0.2867
     65  CB         6.6030   -6.5470  -28.1480 C.3   165  MET165      0.0387
     66  CG         5.5750   -5.9470  -29.0910 C.3   165  MET165      0.0595
     67  SD         4.2360   -5.1340  -28.2000 S.3   165  MET165     -0.1393
     68  CE         3.6780   -6.4740  -27.1510 C.3   165  MET165      0.0692
     69  N         16.4980  -19.9770  -27.9610 N.3   215  PHE215     -0.1241
     70  CA        16.5380  -19.1900  -29.1870 C.3   215  PHE215      0.1605
     71  C         17.9610  -18.8770  -29.6350 C.2   215  PHE215      0.2264
     72  O         18.1730  -18.4050  -30.7510 O.2   215  PHE215     -0.2867
     73  CB        15.7340  -17.9020  -29.0150 C.3   215  PHE215      0.0534
     74  CG        14.2510  -18.1200  -29.0390 C.ar  215  PHE215     -0.0203
     75  CD1       13.5930  -18.3490  -30.2370 C.ar  215  PHE215     -0.0042
     76  CD2       13.5170  -18.1160  -27.8670 C.ar  215  PHE215     -0.0042
     77  CE1       12.2300  -18.5620  -30.2650 C.ar  215  PHE215     -0.0003
     78  CE2       12.1520  -18.3270  -27.8880 C.ar  215  PHE215     -0.0003
     79  CZ        11.5080  -18.5500  -29.0890 C.ar  215  PHE215     -0.0000
     80  N          4.5160    0.4980  -28.0140 N.3   277  ALA277     -0.1231
     81  CA         5.0100   -0.4120  -29.0370 C.3   277  ALA277      0.1694
     82  C          3.9490   -0.6300  -30.1100 C.2   277  ALA277      0.2591
     83  O          4.2680   -0.7870  -31.2870 O.2   277  ALA277     -0.2718
     84  CB         5.4280   -1.7360  -28.4180 C.3   277  ALA277      0.0304
     85  N          2.6850   -0.6390  -29.6960 N.am  278  LEU278     -0.1980
     86  CA         1.5790   -0.7920  -30.6350 C.3   278  LEU278      0.1596
     87  C          1.3720    0.4840  -31.4450 C.2   278  LEU278      0.2287
     88  O          1.0330    0.4310  -32.6270 O.2   278  LEU278     -0.2864
     89  CB         0.2910   -1.1650  -29.8980 C.3   278  LEU278      0.0297
     90  CG         0.2060   -2.5730  -29.3030 C.3   278  LEU278      0.0022
     91  CD1       -1.1210   -2.7720  -28.5870 C.3   278  LEU278      0.0001
     92  CD2        0.3930   -3.6250  -30.3830 C.3   278  LEU278      0.0001
     93  N          3.6480    0.8400  -34.4660 N.3   281  SER281     -0.1217
     94  CA         3.1690    0.2060  -35.6860 C.3   281  SER281      0.1889
     95  C          2.3070    1.1690  -36.4930 C.2   281  SER281      0.2288
     96  O          2.4240    1.2500  -37.7150 O.2   281  SER281     -0.2866
     97  CB         2.3780   -1.0600  -35.3540 C.3   281  SER281      0.2089
     98  OG         3.1270   -1.9180  -34.5120 O.3   281  SER281     -0.2183
@<TRIPOS>BOND
     1     9     7   ar
     2     9    10   ar
     3    37    38    1
     4     7     6   ar
     5    48    46    1
     6    45    46    1
     7    45    42    1
     8    10    12   ar
     9    10     8   ar
    10    38    39    1
    11    12    14   ar
    12    41    39   am
    13    41    42    1
    14    46    47    1
    15     6     8   ar
    16     6     5    1
    17     1     2    1
    18    39    40    2
    19    42    43    1
    20     8    11   ar
    21     5     2    1
    22    96    95    2
    23    14    13   ar
    24     2     3    1
    25    43    44    2
    26    11    13   ar
    27    95    94    1
    28     3     4    2
    29    21    19    1
    30    94    97    1
    31    94    93    1
    32    97    98    1
    33    59    58    1
    34    15    16    1
    35    19    16    1
    36    19    20    1
    37    49    50    1
    38    58    57    1
    39    58    60    1
    40    16    17    1
    41    50    51    1
    42    53    51   am
    43    53    54    1
    44    57    54    1
    45    28    22    1
    46    28    27    1
    47    51    52    2
    48    88    87    2
    49    17    22   am
    50    17    18    2
    51    54    55    1
    52    22    23    1
    53    27    26    1
    54    87    86    1
    55    55    56    2
    56    83    82    2
    57    26    23    1
    58    23    24    1
    59    72    71    2
    60    86    89    1
    61    86    85    1
    62    92    90    1
    63    77    75   ar
    64    77    79   ar
    65    75    74   ar
    66    24    25    2
    67    82    85   am
    68    82    81    1
    69    89    90    1
    70    71    70    1
    71    90    91    1
    72    29    30    1
    73    70    73    1
    74    70    69    1
    75    66    67    1
    76    66    65    1
    77    79    78   ar
    78    74    73    1
    79    74    76   ar
    80    81    84    1
    81    81    80    1
    82    33    30    1
    83    33    34    1
    84    35    34    1
    85    61    62    1
    86    30    31    1
    87    67    68    1
    88    65    62    1
    89    78    76   ar
    90    34    36    1
    91    62    63    1
    92    31    32    2
    93    63    64    2
