@<TRIPOS>MOLECULE
tmp/4u4wB06.pdb
 82 82 0 0 0
SMALL
GASTEIGER

@<TRIPOS>ATOM
      1  N          7.9180  -19.4800   -5.9420 N.3   181  SER181     -0.1202
      2  CA         9.1550  -20.1730   -5.6130 C.3   181  SER181      0.2020
      3  C          9.6250  -21.0320   -6.7790 C.2   181  SER181      0.2619
      4  O          9.2410  -22.1950   -6.9060 O.2   181  SER181     -0.2717
      5  CB         8.9780  -21.0390   -4.3670 C.3   181  SER181      0.2103
      6  OG        10.1780  -21.7310   -4.0710 O.3   181  SER181     -0.2182
      7  N         10.4500  -20.4460   -7.6360 N.am  182  ILE182     -0.1965
      8  CA        11.0650  -21.1790   -8.7310 C.3   182  ILE182      0.1727
      9  C         12.5780  -21.1220   -8.5500 C.2   182  ILE182      0.2616
     10  O         13.0860  -20.2100   -7.8940 O.2   182  ILE182     -0.2715
     11  CB        10.6670  -20.5980  -10.1020 C.3   182  ILE182      0.0290
     12  CG1        9.1910  -20.1970  -10.1040 C.3   182  ILE182      0.0022
     13  CG2       10.9590  -21.5920  -11.2160 C.3   182  ILE182      0.0023
     14  CD1        8.7200  -19.6220  -11.4160 C.3   182  ILE182      0.0001
     15  N         13.2830  -22.1020   -9.1130 N.am  183  PHE183     -0.1960
     16  CA        14.7410  -22.1850   -9.0400 C.3   183  PHE183      0.1771
     17  C         15.2350  -22.3270   -7.6030 C.2   183  PHE183      0.2619
     18  O         16.2760  -21.7790   -7.2410 O.2   183  PHE183     -0.2715
     19  CB        15.3930  -20.9610   -9.6940 C.3   183  PHE183      0.0574
     20  CG        14.8880  -20.6670  -11.0780 C.ar  183  PHE183     -0.0200
     21  CD1       15.2720  -21.4510  -12.1540 C.ar  183  PHE183     -0.0042
     22  CD2       14.0400  -19.5940  -11.3060 C.ar  183  PHE183     -0.0042
     23  CE1       14.8120  -21.1760  -13.4280 C.ar  183  PHE183     -0.0003
     24  CE2       13.5770  -19.3140  -12.5810 C.ar  183  PHE183     -0.0003
     25  CZ        13.9650  -20.1080  -13.6420 C.ar  183  PHE183     -0.0000
     26  N         14.4850  -23.0610   -6.7850 N.am  184  ALA184     -0.1963
     27  CA        14.9150  -23.3470   -5.4220 C.3   184  ALA184      0.1728
     28  C         16.1120  -24.2910   -5.4520 C.2   184  ALA184      0.2616
     29  O         16.9390  -24.2910   -4.5410 O.2   184  ALA184     -0.2715
     30  CB        13.7760  -23.9420   -4.6070 C.3   184  ALA184      0.0334
     31  N         16.1910  -25.0920   -6.5120 N.am  185  VAL185     -0.1963
     32  CA        17.3270  -25.9780   -6.7420 C.3   185  VAL185      0.1727
     33  C         18.6160  -25.1740   -6.8810 C.2   185  VAL185      0.2616
     34  O         19.6690  -25.5710   -6.3770 O.2   185  VAL185     -0.2715
     35  CB        17.1170  -26.8410   -8.0070 C.3   185  VAL185      0.0290
     36  CG1       18.4180  -27.5100   -8.4360 C.3   185  VAL185      0.0023
     37  CG2       16.0250  -27.8770   -7.7730 C.3   185  VAL185      0.0023
     38  N         18.5230  -24.0300   -7.5530 N.am  186  PHE186     -0.1974
     39  CA        19.6930  -23.1950   -7.8010 C.3   186  PHE186      0.1639
     40  C         19.9680  -22.2530   -6.6290 C.2   186  PHE186      0.2290
     41  O         20.8500  -21.3980   -6.7000 O.2   186  PHE186     -0.2864
     42  CB        19.5170  -22.4030   -9.1010 C.3   186  PHE186      0.0560
     43  CG        19.2820  -23.2690  -10.3130 C.ar  186  PHE186     -0.0200
     44  CD1       20.3440  -23.8780  -10.9630 C.ar  186  PHE186     -0.0042
     45  CD2       18.0010  -23.4730  -10.8000 C.ar  186  PHE186     -0.0042
     46  CE1       20.1310  -24.6760  -12.0760 C.ar  186  PHE186     -0.0003
     47  CE2       17.7820  -24.2700  -11.9110 C.ar  186  PHE186     -0.0003
     48  CZ        18.8490  -24.8710  -12.5500 C.ar  186  PHE186     -0.0000
     49  N         14.4650  -16.0830  -15.2520 N.3   207  ILE207     -0.1245
     50  CA        13.3640  -16.6260  -16.0380 C.3   207  ILE207      0.1561
     51  C         13.6520  -16.5290  -17.5350 C.2   207  ILE207      0.2260
     52  O         13.0650  -17.2560  -18.3340 O.2   207  ILE207     -0.2867
     53  CB        12.0340  -15.9030  -15.7150 C.3   207  ILE207      0.0252
     54  CG1       10.8320  -16.7210  -16.1960 C.3   207  ILE207      0.0019
     55  CG2       12.0230  -14.5000  -16.3010 C.3   207  ILE207      0.0019
     56  CD1       10.6990  -18.0580  -15.5130 C.3   207  ILE207      0.0001
     57  N         16.3730  -19.6950  -19.7040 N.3   210  PRO210     -0.2102
     58  CA        16.0340  -20.8240  -20.5800 C.3   210  PRO210      0.1504
     59  C         15.5660  -20.3810  -21.9670 C.2   210  PRO210      0.2575
     60  O         15.8500  -21.0590  -22.9530 O.2   210  PRO210     -0.2718
     61  CB        14.9060  -21.5310  -19.8210 C.3   210  PRO210      0.0282
     62  CG        14.3100  -20.4790  -18.9590 C.3   210  PRO210      0.0208
     63  CD        15.4600  -19.6110  -18.5470 C.3   210  PRO210      0.0893
     64  N         14.8650  -19.2550  -22.0380 N.am  211  PHE211     -0.1977
     65  CA        14.4000  -18.7310  -23.3160 C.3   211  PHE211      0.1639
     66  C         15.5610  -18.2540  -24.1800 C.2   211  PHE211      0.2290
     67  O         15.5670  -18.4620  -25.3940 O.2   211  PHE211     -0.2864
     68  CB        13.4100  -17.5900  -23.0960 C.3   211  PHE211      0.0560
     69  CG        12.0960  -18.0330  -22.5280 C.ar  211  PHE211     -0.0200
     70  CD1       11.1080  -18.5360  -23.3560 C.ar  211  PHE211     -0.0042
     71  CD2       11.8470  -17.9450  -21.1690 C.ar  211  PHE211     -0.0042
     72  CE1        9.8940  -18.9440  -22.8420 C.ar  211  PHE211     -0.0003
     73  CE2       10.6320  -18.3520  -20.6460 C.ar  211  PHE211     -0.0003
     74  CZ         9.6550  -18.8530  -21.4850 C.ar  211  PHE211     -0.0000
     75  N         17.3010  -21.3890  -25.6030 N.3   214  ILE214     -0.1245
     76  CA        16.5090  -22.0230  -26.6510 C.3   214  ILE214      0.1561
     77  C         16.6460  -21.2970  -27.9890 C.2   214  ILE214      0.2260
     78  O         16.8930  -21.9190  -29.0230 O.2   214  ILE214     -0.2867
     79  CB        15.0170  -22.0860  -26.2610 C.3   214  ILE214      0.0252
     80  CG1       14.7990  -23.0990  -25.1360 C.3   214  ILE214      0.0019
     81  CG2       14.1580  -22.4460  -27.4640 C.3   214  ILE214      0.0019
     82  CD1       13.3630  -23.2000  -24.6840 C.3   214  ILE214      0.0001
@<TRIPOS>BOND
     1    78    77    2
     2    77    76    1
     3    81    79    1
     4    76    79    1
     5    76    75    1
     6    79    80    1
     7    67    66    2
     8    80    82    1
     9    66    65    1
    10    70    72   ar
    11    70    69   ar
    12    65    68    1
    13    65    64    1
    14    68    69    1
    15    60    59    2
    16    72    74   ar
    17    69    71   ar
    18    64    59   am
    19    59    58    1
    20    74    73   ar
    21    71    73   ar
    22    58    61    1
    23    58    57    1
    24    61    62    1
    25    57    63    1
    26    62    63    1
    27    52    51    2
    28    51    50    1
    29    55    53    1
    30    54    53    1
    31    54    56    1
    32    50    53    1
    33    50    49    1
    34    25    23   ar
    35    25    24   ar
    36    23    21   ar
    37    24    22   ar
    38    48    46   ar
    39    48    47   ar
    40    21    20   ar
    41    46    44   ar
    42    47    45   ar
    43    14    12    1
    44    22    20   ar
    45    13    11    1
    46    20    19    1
    47    44    43   ar
    48    45    43   ar
    49    43    42    1
    50    12    11    1
    51    11     8    1
    52    19    16    1
    53    15    16    1
    54    15     9   am
    55    42    39    1
    56    16    17    1
    57     8     9    1
    58     8     7    1
    59     9    10    2
    60    36    35    1
    61    35    37    1
    62    35    32    1
    63    39    38    1
    64    39    40    1
    65     7     3   am
    66    17    18    2
    67    17    26   am
    68    38    33   am
    69     4     3    2
    70    33    32    1
    71    33    34    2
    72    26    27    1
    73     3     2    1
    74    32    31    1
    75    41    40    2
    76    31    28   am
    77     1     2    1
    78     2     5    1
    79    28    27    1
    80    28    29    2
    81    27    30    1
    82     5     6    1
