@<TRIPOS>MOLECULE
tmp/4u4wA06.pdb
 95 93 0 0 0
SMALL
GASTEIGER

@<TRIPOS>ATOM
      1  N         13.3010  -28.8630  -39.4600 N.3    93  ARG93      -0.1245
      2  CA        13.6990  -27.8640  -38.4720 C.3    93  ARG93       0.1563
      3  C         12.6620  -27.7250  -37.3670 C.2    93  ARG93       0.2260
      4  O         13.0060  -27.6180  -36.1900 O.2    93  ARG93      -0.2867
      5  CB        13.9270  -26.5040  -39.1350 C.3    93  ARG93       0.0307
      6  CG        15.0850  -26.4630  -40.1150 C.3    93  ARG93       0.0489
      7  CD        15.3840  -25.0320  -40.5340 C.3    93  ARG93       0.2205
      8  NE        16.3610  -24.9570  -41.6160 N.pl3  93  ARG93      -0.0865
      9  CZ        16.0430  -24.9160  -42.9060 C.cat  93  ARG93       0.5346
     10  NH1       14.7700  -24.9480  -43.2780 N.pl3  93  ARG93       0.1354
     11  NH2       16.9960  -24.8450  -43.8250 N.pl3  93  ARG93       0.1354
     12  N         12.4140  -30.9190  -35.0600 N.3    96  ALA96      -0.1231
     13  CA        13.5230  -30.9030  -34.1140 C.3    96  ALA96       0.1694
     14  C         13.2680  -29.8960  -32.9970 C.2    96  ALA96       0.2592
     15  O         13.5710  -30.1590  -31.8330 O.2    96  ALA96      -0.2718
     16  CB        14.8240  -30.5850  -34.8280 C.3    96  ALA96       0.0304
     17  N         12.7030  -28.7480  -33.3560 N.am   97  PHE97      -0.1976
     18  CA        12.4340  -27.6940  -32.3830 C.3    97  PHE97       0.1639
     19  C         11.2620  -28.0500  -31.4690 C.2    97  PHE97       0.2290
     20  O         11.3680  -27.9520  -30.2460 O.2    97  PHE97      -0.2864
     21  CB        12.1600  -26.3650  -33.0940 C.3    97  PHE97       0.0560
     22  CG        11.8660  -25.2240  -32.1590 C.ar   97  PHE97      -0.0200
     23  CD1       12.8960  -24.5330  -31.5410 C.ar   97  PHE97      -0.0042
     24  CD2       10.5590  -24.8400  -31.9020 C.ar   97  PHE97      -0.0042
     25  CE1       12.6270  -23.4850  -30.6800 C.ar   97  PHE97      -0.0003
     26  CE2       10.2860  -23.7920  -31.0420 C.ar   97  PHE97      -0.0003
     27  CZ        11.3220  -23.1140  -30.4320 C.ar   97  PHE97      -0.0000
     28  N         12.3470  -30.8330  -29.1920 N.3   100  GLY100     -0.1210
     29  CA        13.4430  -30.4760  -28.3110 C.3   100  GLY100      0.1956
     30  C         13.0230  -29.6570  -27.1060 C.2   100  GLY100      0.2611
     31  O         13.5350  -29.8590  -26.0060 O.2   100  GLY100     -0.2717
     32  N         12.0900  -28.7320  -27.3090 N.am  101  ILE101     -0.1979
     33  CA        11.6420  -27.8550  -26.2310 C.3   101  ILE101      0.1595
     34  C         10.8440  -28.6080  -25.1700 C.2   101  ILE101      0.2287
     35  O         10.6580  -28.1120  -24.0600 O.2   101  ILE101     -0.2864
     36  CB        10.7770  -26.6950  -26.7630 C.3   101  ILE101      0.0276
     37  CG1        9.5120  -27.2320  -27.4340 C.3   101  ILE101      0.0022
     38  CG2       11.5790  -25.8260  -27.7210 C.3   101  ILE101      0.0022
     39  CD1        8.5800  -26.1470  -27.9320 C.3   101  ILE101      0.0001
     40  N         11.7520  -31.0320  -23.5800 N.3   103  ILE103     -0.1231
     41  CA        12.6760  -31.4800  -22.5490 C.3   103  ILE103      0.1692
     42  C         12.5520  -30.5920  -21.3110 C.2   103  ILE103      0.2591
     43  O         12.6660  -31.0660  -20.1800 O.2   103  ILE103     -0.2718
     44  CB        14.1320  -31.4800  -23.0690 C.3   103  ILE103      0.0266
     45  CG1       14.2690  -32.4610  -24.2350 C.3   103  ILE103      0.0019
     46  CG2       15.1080  -31.8420  -21.9610 C.3   103  ILE103      0.0020
     47  CD1       15.6660  -32.5710  -24.7790 C.3   103  ILE103      0.0001
     48  N         12.2840  -29.3080  -21.5360 N.am  104  ILE104     -0.1980
     49  CA        12.1870  -28.3340  -20.4510 C.3   104  ILE104      0.1595
     50  C         11.0580  -28.6430  -19.4500 C.2   104  ILE104      0.2287
     51  O         11.2970  -28.6240  -18.2410 O.2   104  ILE104     -0.2864
     52  CB        12.0060  -26.8990  -21.0050 C.3   104  ILE104      0.0276
     53  CG1       13.1130  -26.5680  -22.0070 C.3   104  ILE104      0.0022
     54  CG2       11.9820  -25.8870  -19.8720 C.3   104  ILE104      0.0022
     55  CD1       14.5010  -26.5900  -21.4130 C.3   104  ILE104      0.0001
     56  N         15.3200  -35.8760  -31.3690 N.3   217  THR217     -0.1203
     57  CA        15.5580  -34.5020  -31.7980 C.3   217  THR217      0.1994
     58  C         16.7850  -34.4950  -32.7030 C.2   217  THR217      0.2617
     59  O         16.8160  -33.8130  -33.7290 O.2   217  THR217     -0.2717
     60  CB        15.7700  -33.5470  -30.6060 C.3   217  THR217      0.1784
     61  OG1       14.5540  -33.4400  -29.8540 O.3   217  THR217     -0.2211
     62  CG2       16.1790  -32.1630  -31.0900 C.3   217  THR217      0.0376
     63  N         17.7920  -35.2720  -32.3140 N.am  218  ILE218     -0.1979
     64  CA        18.9870  -35.4610  -33.1260 C.3   218  ILE218      0.1595
     65  C         18.6410  -36.2500  -34.3830 C.2   218  ILE218      0.2287
     66  O         19.1370  -35.9580  -35.4700 O.2   218  ILE218     -0.2864
     67  CB        20.0940  -36.1990  -32.3450 C.3   218  ILE218      0.0276
     68  CG1       20.3910  -35.4800  -31.0290 C.3   218  ILE218      0.0022
     69  CG2       21.3560  -36.3170  -33.1850 C.3   218  ILE218      0.0022
     70  CD1       20.8480  -34.0550  -31.2050 C.3   218  ILE218      0.0001
     71  N         16.8700  -34.1190  -36.8390 N.3   221  TRP221     -0.1227
     72  CA        17.7760  -33.1270  -37.4040 C.3   221  TRP221      0.1737
     73  C         18.6360  -33.6970  -38.5290 C.2   221  TRP221      0.2595
     74  O         18.8430  -33.0430  -39.5500 O.2   221  TRP221     -0.2718
     75  CB        18.6760  -32.5460  -36.3140 C.3   221  TRP221      0.0564
     76  CG        19.5500  -31.4300  -36.7960 C.ar  221  TRP221      0.0003
     77  CD1       20.9000  -31.4690  -36.9960 C.ar  221  TRP221      0.0946
     78  CD2       19.1310  -30.1050  -37.1460 C.ar  221  TRP221      0.0152
     79  NE1       21.3470  -30.2490  -37.4440 N.ar  221  TRP221     -0.2442
     80  CE2       20.2810  -29.3950  -37.5450 C.ar  221  TRP221      0.0810
     81  CE3       17.8950  -29.4500  -37.1590 C.ar  221  TRP221      0.0012
     82  CZ2       20.2310  -28.0610  -37.9520 C.ar  221  TRP221      0.0191
     83  CZ3       17.8470  -28.1270  -37.5650 C.ar  221  TRP221      0.0001
     84  CH2       19.0080  -27.4480  -37.9560 C.ar  221  TRP221      0.0015
     85  N         19.1390  -34.9130  -38.3340 N.am  222  PHE222     -0.1976
     86  CA        20.0320  -35.5420  -39.3040 C.3   222  PHE222      0.1639
     87  C         19.2860  -36.4420  -40.2850 C.2   222  PHE222      0.2290
     88  O         19.8220  -36.8070  -41.3310 O.2   222  PHE222     -0.2864
     89  CB        21.1130  -36.3620  -38.5890 C.3   222  PHE222      0.0560
     90  CG        22.1410  -35.5310  -37.8740 C.ar  222  PHE222     -0.0200
     91  CD1       23.2470  -35.0390  -38.5480 C.ar  222  PHE222     -0.0042
     92  CD2       22.0110  -35.2540  -36.5230 C.ar  222  PHE222     -0.0042
     93  CE1       24.1970  -34.2780  -37.8920 C.ar  222  PHE222     -0.0003
     94  CE2       22.9580  -34.4930  -35.8610 C.ar  222  PHE222     -0.0003
     95  CZ        24.0520  -34.0070  -36.5460 C.ar  222  PHE222     -0.0000
@<TRIPOS>BOND
     1    11     9    1
     2    10     9    1
     3     9     8    2
     4     8     7    1
     5    88    87    2
     6     7     6    1
     7    87    86    1
     8     6     5    1
     9    74    73    2
    10     1     2    1
    11    86    89    1
    12    86    85    1
    13     5     2    1
    14    89    90    1
    15    91    93   ar
    16    91    90   ar
    17    73    85   am
    18    73    72    1
    19     2     3    1
    20    84    82   ar
    21    84    83   ar
    22    82    80   ar
    23    93    95   ar
    24    90    92   ar
    25    83    81   ar
    26    80    79   ar
    27    80    78   ar
    28    79    77   ar
    29    72    71    1
    30    72    75    1
    31     3     4    2
    32    81    78   ar
    33    78    76   ar
    34    77    76   ar
    35    76    75    1
    36    95    94   ar
    37    92    94   ar
    38    66    65    2
    39    12    13    1
    40    16    13    1
    41    65    64    1
    42    13    14    1
    43    59    58    2
    44    17    14   am
    45    17    18    1
    46    69    67    1
    47    64    67    1
    48    64    63    1
    49    21    18    1
    50    21    22    1
    51    14    15    2
    52    58    63   am
    53    58    57    1
    54    18    19    1
    55    67    68    1
    56    22    24   ar
    57    22    23   ar
    58    24    26   ar
    59    57    56    1
    60    57    60    1
    61    23    25   ar
    62    19    20    2
    63    70    68    1
    64    62    60    1
    65    26    27   ar
    66    25    27   ar
    67    60    61    1
    68    28    29    1
    69    29    30    1
    70    39    37    1
    71    38    36    1
    72    37    36    1
    73    32    30   am
    74    32    33    1
    75    30    31    2
    76    36    33    1
    77    33    34    1
    78    34    35    2
    79    47    45    1
    80    45    44    1
    81    40    41    1
    82    44    41    1
    83    44    46    1
    84    41    42    1
    85    53    55    1
    86    53    52    1
    87    48    42   am
    88    48    49    1
    89    42    43    2
    90    52    49    1
    91    52    54    1
    92    49    50    1
    93    50    51    2
