@<TRIPOS>MOLECULE
tmp/4u4wA03.pdb
 90 86 0 0 0
SMALL
GASTEIGER

@<TRIPOS>ATOM
      1  N         -3.8010  -25.2630  -23.5510 N.3    74  SER74      -0.1217
      2  CA        -2.6840  -24.6910  -24.2930 C.3    74  SER74       0.1889
      3  C         -2.4210  -25.4850  -25.5680 C.2    74  SER74       0.2288
      4  O         -1.8740  -24.9570  -26.5360 O.2    74  SER74      -0.2866
      5  CB        -1.4260  -24.6450  -23.4240 C.3    74  SER74       0.2089
      6  OG        -1.1020  -25.9310  -22.9290 O.3    74  SER74      -0.2183
      7  N         -5.0330  -24.1980  -28.1170 N.3    77  LEU77      -0.1231
      8  CA        -4.7170  -22.8340  -28.5240 C.3    77  LEU77       0.1693
      9  C         -3.5380  -22.7750  -29.4920 C.2    77  LEU77       0.2591
     10  O         -3.4090  -21.8260  -30.2660 O.2    77  LEU77      -0.2718
     11  CB        -4.4190  -21.9690  -27.2970 C.3    77  LEU77       0.0284
     12  CG        -5.5990  -21.5930  -26.4010 C.3    77  LEU77       0.0019
     13  CD1       -5.1140  -20.8790  -25.1490 C.3    77  LEU77       0.0001
     14  CD2       -6.5710  -20.7210  -27.1700 C.3    77  LEU77       0.0001
     15  N         -2.6820  -23.7910  -29.4500 N.am   78  LEU78      -0.1980
     16  CA        -1.4400  -23.7670  -30.2140 C.3    78  LEU78       0.1596
     17  C         -1.4790  -24.6210  -31.4780 C.2    78  LEU78       0.2287
     18  O         -0.5490  -24.5780  -32.2800 O.2    78  LEU78      -0.2864
     19  CB        -0.2740  -24.2160  -29.3310 C.3    78  LEU78       0.0297
     20  CG         0.2710  -23.1970  -28.3320 C.3    78  LEU78       0.0022
     21  CD1        1.2510  -23.8620  -27.3840 C.3    78  LEU78       0.0001
     22  CD2        0.9370  -22.0550  -29.0740 C.3    78  LEU78       0.0001
     23  N         -1.8160  -22.3270  -34.6830 N.3    81  PRO81      -0.2116
     24  CA        -0.5040  -21.7520  -35.0130 C.3    81  PRO81       0.1372
     25  C          0.5370  -22.7800  -35.4610 C.2    81  PRO81       0.2244
     26  O          1.3270  -22.4880  -36.3580 O.2    81  PRO81      -0.2868
     27  CB        -0.0680  -21.1030  -33.6970 C.3    81  PRO81       0.0268
     28  CG        -1.3280  -20.7860  -33.0070 C.3    81  PRO81       0.0207
     29  CD        -2.2540  -21.9130  -33.3360 C.3    81  PRO81       0.0892
     30  N          1.1860  -24.7960   -6.1530 N.3   120  TYR120     -0.1227
     31  CA         0.2560  -25.3890   -7.1050 C.3   120  TYR120      0.1736
     32  C          0.2980  -24.6490   -8.4420 C.2   120  TYR120      0.2596
     33  O          0.1130  -25.2450   -9.5040 O.2   120  TYR120     -0.2718
     34  CB        -1.1620  -25.3860   -6.5300 C.3   120  TYR120      0.0548
     35  CG        -2.2220  -25.8310   -7.5070 C.ar  120  TYR120     -0.0200
     36  CD1       -2.2610  -27.1390   -7.9700 C.ar  120  TYR120     -0.0009
     37  CD2       -3.1880  -24.9440   -7.9610 C.ar  120  TYR120     -0.0009
     38  CE1       -3.2270  -27.5490   -8.8630 C.ar  120  TYR120      0.0417
     39  CE2       -4.1600  -25.3450   -8.8510 C.ar  120  TYR120      0.0417
     40  CZ        -4.1740  -26.6490   -9.2990 C.ar  120  TYR120      0.1957
     41  OH        -5.1380  -27.0580  -10.1890 O.3   120  TYR120     -0.2866
     42  N          0.5630  -23.3490   -8.3810 N.am  121  SER121     -0.1952
     43  CA         0.6260  -22.5280   -9.5820 C.3   121  SER121      0.1924
     44  C          1.8420  -22.8700  -10.4400 C.2   121  SER121      0.2314
     45  O          1.8350  -22.6440  -11.6490 O.2   121  SER121     -0.2863
     46  CB         0.6460  -21.0490   -9.2090 C.3   121  SER121      0.2116
     47  OG         1.6940  -20.7890   -8.2980 O.3   121  SER121     -0.2180
     48  N          0.7210  -25.5750  -12.3880 N.3   124  ILE124     -0.1231
     49  CA        -0.1520  -25.0160  -13.4160 C.3   124  ILE124      0.1692
     50  C          0.6540  -24.6480  -14.6560 C.2   124  ILE124      0.2591
     51  O          0.2730  -24.9770  -15.7800 O.2   124  ILE124     -0.2718
     52  CB        -0.9010  -23.7670  -12.9120 C.3   124  ILE124      0.0266
     53  CG1       -1.8380  -24.1340  -11.7630 C.3   124  ILE124      0.0019
     54  CG2       -1.6840  -23.1200  -14.0410 C.3   124  ILE124      0.0020
     55  CD1       -2.8790  -25.1550  -12.1340 C.3   124  ILE124      0.0001
     56  N          1.7750  -23.9660  -14.4380 N.am  125  ILE125     -0.1980
     57  CA         2.6680  -23.5760  -15.5220 C.3   125  ILE125      0.1595
     58  C          3.2080  -24.7990  -16.2570 C.2   125  ILE125      0.2287
     59  O          3.1580  -24.8640  -17.4860 O.2   125  ILE125     -0.2864
     60  CB         3.8460  -22.7330  -15.0010 C.3   125  ILE125      0.0276
     61  CG1        3.3310  -21.4450  -14.3540 C.3   125  ILE125      0.0022
     62  CG2        4.8130  -22.4190  -16.1290 C.3   125  ILE125      0.0022
     63  CD1        4.4200  -20.5840  -13.7600 C.3   125  ILE125      0.0001
     64  N          0.6180  -26.3730  -18.3490 N.3   128  LEU128     -0.1231
     65  CA         0.3750  -25.6160  -19.5690 C.3   128  LEU128      0.1693
     66  C          1.5040  -25.8100  -20.5760 C.2   128  LEU128      0.2591
     67  O          1.2830  -25.7510  -21.7860 O.2   128  LEU128     -0.2718
     68  CB         0.1990  -24.1300  -19.2490 C.3   128  LEU128      0.0284
     69  CG        -1.1260  -23.7520  -18.5870 C.3   128  LEU128      0.0019
     70  CD1       -1.0780  -22.3320  -18.0470 C.3   128  LEU128      0.0001
     71  CD2       -2.2720  -23.9110  -19.5740 C.3   128  LEU128      0.0001
     72  N          2.7130  -26.0460  -20.0730 N.am  129  LEU129     -0.1980
     73  CA         3.8660  -26.2740  -20.9370 C.3   129  LEU129      0.1596
     74  C          3.8070  -27.6540  -21.5830 C.2   129  LEU129      0.2287
     75  O          4.2850  -27.8440  -22.7020 O.2   129  LEU129     -0.2864
     76  CB         5.1700  -26.1140  -20.1520 C.3   129  LEU129      0.0297
     77  CG         5.5160  -24.6940  -19.7000 C.3   129  LEU129      0.0022
     78  CD1        6.8400  -24.6730  -18.9510 C.3   129  LEU129      0.0001
     79  CD2        5.5530  -23.7490  -20.8900 C.3   129  LEU129      0.0001
     80  N          2.1630  -27.8620  -25.0300 N.3   132  PHE132     -0.1241
     81  CA         2.9240  -27.5920  -26.2470 C.3   132  PHE132      0.1605
     82  C          3.1460  -28.8780  -27.0280 C.2   132  PHE132      0.2264
     83  O          3.2080  -28.8740  -28.2570 O.2   132  PHE132     -0.2867
     84  CB         4.2670  -26.9420  -25.9130 C.3   132  PHE132      0.0534
     85  CG         4.1790  -25.4680  -25.6500 C.ar  132  PHE132     -0.0203
     86  CD1        3.6290  -24.9920  -24.4710 C.ar  132  PHE132     -0.0042
     87  CD2        4.6570  -24.5580  -26.5770 C.ar  132  PHE132     -0.0042
     88  CE1        3.5500  -23.6360  -24.2260 C.ar  132  PHE132     -0.0003
     89  CE2        4.5820  -23.1990  -26.3370 C.ar  132  PHE132     -0.0003
     90  CZ         4.0270  -22.7380  -25.1600 C.ar  132  PHE132     -0.0000
@<TRIPOS>BOND
     1    26    25    2
     2    25    24    1
     3    24    23    1
     4    24    27    1
     5    23    29    1
     6    27    28    1
     7    29    28    1
     8    18    17    2
     9    17    16    1
    10    10     9    2
    11    16    15    1
    12    16    19    1
    13     9    15   am
    14     9     8    1
    15    19    20    1
    16    22    20    1
    17     8     7    1
    18     8    11    1
    19    20    21    1
    20    83    82    2
    21    11    12    1
    22    14    12    1
    23    82    81    1
    24    87    89   ar
    25    87    85   ar
    26     4     3    2
    27    12    13    1
    28    89    90   ar
    29    81    84    1
    30    81    80    1
    31    84    85    1
    32    85    86   ar
    33     3     2    1
    34    90    88   ar
    35    86    88   ar
    36     2     1    1
    37     2     5    1
    38     5     6    1
    39    75    74    2
    40    67    66    2
    41    74    73    1
    42    73    76    1
    43    73    72    1
    44    79    77    1
    45    66    72   am
    46    66    65    1
    47    76    77    1
    48    77    78    1
    49    71    69    1
    50    65    68    1
    51    65    64    1
    52    68    69    1
    53    69    70    1
    54    59    58    2
    55    58    57    1
    56    62    60    1
    57    51    50    2
    58    57    60    1
    59    57    56    1
    60    60    61    1
    61    50    56   am
    62    50    49    1
    63    61    63    1
    64    54    52    1
    65    49    52    1
    66    49    48    1
    67    52    53    1
    68    55    53    1
    69    45    44    2
    70    44    43    1
    71    41    40    1
    72    43    46    1
    73    43    42    1
    74    33    32    2
    75    40    38   ar
    76    40    39   ar
    77    46    47    1
    78    38    36   ar
    79    39    37   ar
    80    32    42   am
    81    32    31    1
    82    36    35   ar
    83    37    35   ar
    84    35    34    1
    85    31    34    1
    86    31    30    1
