@<TRIPOS>MOLECULE
tmp/4u4wA08.pdb
 139 135 0 0 0
SMALL
GASTEIGER

@<TRIPOS>ATOM
      1  N         12.0900  -28.7320  -27.3090 N.3   101  ILE101     -0.1231
      2  CA        11.6420  -27.8550  -26.2310 C.3   101  ILE101      0.1692
      3  C         10.8440  -28.6080  -25.1700 C.2   101  ILE101      0.2591
      4  O         10.6580  -28.1120  -24.0600 O.2   101  ILE101     -0.2718
      5  CB        10.7770  -26.6950  -26.7630 C.3   101  ILE101      0.0266
      6  CG1        9.5120  -27.2320  -27.4340 C.3   101  ILE101      0.0019
      7  CG2       11.5790  -25.8260  -27.7210 C.3   101  ILE101      0.0020
      8  CD1        8.5800  -26.1470  -27.9320 C.3   101  ILE101      0.0001
      9  N         10.3800  -29.8060  -25.5120 N.am  102  LEU102     -0.1980
     10  CA         9.5870  -30.6130  -24.5910 C.3   102  LEU102      0.1596
     11  C         10.4370  -31.1760  -23.4550 C.2   102  LEU102      0.2287
     12  O          9.9110  -31.7300  -22.4890 O.2   102  LEU102     -0.2864
     13  CB         8.8970  -31.7530  -25.3400 C.3   102  LEU102      0.0297
     14  CG         7.8930  -31.3230  -26.4080 C.3   102  LEU102      0.0022
     15  CD1        7.2030  -32.5340  -27.0100 C.3   102  LEU102      0.0001
     16  CD2        6.8780  -30.3610  -25.8170 C.3   102  LEU102      0.0001
     17  N         12.2840  -29.3080  -21.5360 N.3   104  ILE104     -0.1231
     18  CA        12.1870  -28.3340  -20.4510 C.3   104  ILE104      0.1678
     19  C         11.0580  -28.6430  -19.4500 C.2   104  ILE104      0.2434
     20  O         11.2970  -28.6240  -18.2410 O.2   104  ILE104     -0.2733
     21  CB        12.0060  -26.8990  -21.0050 C.3   104  ILE104      0.0265
     22  CG1       13.1130  -26.5680  -22.0070 C.3   104  ILE104      0.0019
     23  CG2       11.9820  -25.8870  -19.8720 C.3   104  ILE104      0.0020
     24  CD1       14.5010  -26.5900  -21.4130 C.3   104  ILE104      0.0001
     25  N          9.8290  -28.9290  -19.9310 N.am  105  PRO105     -0.2729
     26  CA         8.8150  -29.2730  -18.9260 C.3   105  PRO105      0.1401
     27  C          9.0930  -30.6070  -18.2320 C.2   105  PRO105      0.2269
     28  O          8.7400  -30.7750  -17.0640 O.2   105  PRO105     -0.2865
     29  CB         7.5180  -29.3510  -19.7430 C.3   105  PRO105      0.0296
     30  CG         7.7900  -28.5880  -20.9800 C.3   105  PRO105      0.0237
     31  CD         9.2330  -28.8230  -21.2750 C.3   105  PRO105      0.0939
     32  N         12.0910  -31.9580  -17.4750 N.3   107  VAL107     -0.1231
     33  CA        13.1090  -31.7580  -16.4500 C.3   107  VAL107      0.1692
     34  C         12.5150  -31.0180  -15.2550 C.2   107  VAL107      0.2592
     35  O         12.7690  -31.3690  -14.1020 O.2   107  VAL107     -0.2718
     36  CB        14.3200  -30.9790  -17.0000 C.3   107  VAL107      0.0266
     37  CG1       15.2770  -30.6070  -15.8780 C.3   107  VAL107      0.0020
     38  CG2       15.0330  -31.8000  -18.0620 C.3   107  VAL107      0.0020
     39  N         11.7040  -30.0060  -15.5430 N.am  108  TRP108     -0.1976
     40  CA        11.0890  -29.1810  -14.5100 C.3   108  TRP108      0.1640
     41  C         10.1460  -29.9880  -13.6190 C.2   108  TRP108      0.2290
     42  O         10.2020  -29.8810  -12.3930 O.2   108  TRP108     -0.2864
     43  CB        10.3360  -28.0120  -15.1510 C.3   108  TRP108      0.0576
     44  CG         9.9370  -26.9300  -14.1910 C.ar  108  TRP108      0.0006
     45  CD1       10.1600  -26.8980  -12.8440 C.ar  108  TRP108      0.0946
     46  CD2        9.2470  -25.7160  -14.5120 C.ar  108  TRP108      0.0152
     47  NE1        9.6490  -25.7420  -12.3070 N.ar  108  TRP108     -0.2442
     48  CE2        9.0840  -24.9990  -13.3090 C.ar  108  TRP108      0.0810
     49  CE3        8.7510  -25.1670  -15.6980 C.ar  108  TRP108      0.0012
     50  CZ2        8.4460  -23.7620  -13.2600 C.ar  108  TRP108      0.0191
     51  CZ3        8.1180  -23.9370  -15.6460 C.ar  108  TRP108      0.0001
     52  CH2        7.9710  -23.2490  -14.4360 C.ar  108  TRP108      0.0015
     53  N         11.8020  -32.1020  -10.9250 N.3   111  PHE111     -0.1227
     54  CA        12.2700  -31.3810   -9.7440 C.3   111  PHE111      0.1736
     55  C         11.1010  -30.8720   -8.9080 C.2   111  PHE111      0.2595
     56  O         11.2150  -30.7310   -7.6920 O.2   111  PHE111     -0.2718
     57  CB        13.1750  -30.2090  -10.1370 C.3   111  PHE111      0.0547
     58  CG        14.5260  -30.6270  -10.6470 C.ar  111  PHE111     -0.0202
     59  CD1       15.4250  -31.2740   -9.8150 C.ar  111  PHE111     -0.0042
     60  CD2       14.9020  -30.3620  -11.9540 C.ar  111  PHE111     -0.0042
     61  CE1       16.6690  -31.6590  -10.2800 C.ar  111  PHE111     -0.0003
     62  CE2       16.1450  -30.7430  -12.4230 C.ar  111  PHE111     -0.0003
     63  CZ        17.0290  -31.3920  -11.5860 C.ar  111  PHE111     -0.0000
     64  N          9.9790  -30.5980   -9.5640 N.am  112  ALA112     -0.1980
     65  CA         8.8070  -30.0610   -8.8800 C.3   112  ALA112      0.1597
     66  C          8.1790  -31.0820   -7.9360 C.2   112  ALA112      0.2287
     67  O          7.7630  -30.7420   -6.8280 O.2   112  ALA112     -0.2864
     68  CB         7.7800  -29.5820   -9.8930 C.3   112  ALA112      0.0319
     69  N          9.5960  -33.4510   -6.4040 N.3   114  GLN114     -0.1231
     70  CA        10.5000  -33.8300   -5.3220 C.3   114  GLN114      0.1698
     71  C         10.5470  -32.7810   -4.2150 C.2   114  GLN114      0.2592
     72  O         11.2350  -32.9560   -3.2110 O.2   114  GLN114     -0.2718
     73  CB        11.9080  -34.0750   -5.8640 C.3   114  GLN114      0.0381
     74  CG        11.9990  -35.2580   -6.8080 C.3   114  GLN114      0.0905
     75  CD        13.4290  -35.6260   -7.1370 C.2   114  GLN114      0.2608
     76  OE1       14.3580  -34.8700   -6.8580 O.2   114  GLN114     -0.2717
     77  NE2       13.6140  -36.7980   -7.7290 N.am  114  GLN114     -0.0878
     78  N          9.8150  -31.6900   -4.4070 N.am  115  ASP115     -0.1974
     79  CA         9.7270  -30.6440   -3.3980 C.3   115  ASP115      0.1709
     80  C          8.2670  -30.4230   -3.0200 C.2   115  ASP115      0.2293
     81  O          7.4850  -29.9080   -3.8160 O.2   115  ASP115     -0.2864
     82  CB        10.3560  -29.3460   -3.9110 C.3   115  ASP115      0.1436
     83  CG        10.6500  -28.3550   -2.7990 C.2   115  ASP115      0.3671
     84  OD1        9.9270  -28.3560   -1.7800 O.co2 115  ASP115     -0.2456
     85  OD2       11.6090  -27.5690   -2.9480 O.co2 115  ASP115     -0.2456
     86  N          7.0720  -28.3470   -1.1290 N.3   117  SER117     -0.1202
     87  CA         6.7830  -26.9300   -0.9490 C.3   117  SER117      0.2020
     88  C          6.4960  -26.2580   -2.2870 C.2   117  SER117      0.2619
     89  O          6.2180  -25.0610   -2.3400 O.2   117  SER117     -0.2717
     90  CB         7.9430  -26.2230   -0.2480 C.3   117  SER117      0.2103
     91  OG         9.1040  -26.2120   -1.0610 O.3   117  SER117     -0.2182
     92  N          6.5680  -27.0350   -3.3660 N.am  118  THR118     -0.1939
     93  CA         6.3040  -26.5140   -4.7040 C.3   118  THR118      0.2013
     94  C          4.8620  -26.0290   -4.8270 C.2   118  THR118      0.2484
     95  O          3.9260  -26.8070   -4.6440 O.2   118  THR118     -0.2729
     96  CB         6.5700  -27.5740   -5.7970 C.3   118  THR118      0.1807
     97  OG1        7.9360  -28.0040   -5.7380 O.3   118  THR118     -0.2208
     98  CG2        6.2830  -26.9980   -7.1740 C.3   118  THR118      0.0379
     99  N          4.6830  -24.7360   -5.1410 N.am  119  PRO119     -0.2726
    100  CA         3.3570  -24.1220   -5.2870 C.3   119  PRO119      0.1402
    101  C          2.5000  -24.8080   -6.3530 C.2   119  PRO119      0.2269
    102  O          3.0290  -25.3370   -7.3320 O.2   119  PRO119     -0.2865
    103  CB         3.6800  -22.6780   -5.7000 C.3   119  PRO119      0.0296
    104  CG         5.0870  -22.4500   -5.2440 C.3   119  PRO119      0.0237
    105  CD         5.7680  -23.7720   -5.3980 C.3   119  PRO119      0.0939
    106  N          2.8860  -23.4040   -9.8130 N.3   122  VAL122     -0.1245
    107  CA         4.0450  -23.8850  -10.5550 C.3   122  VAL122      0.1561
    108  C          3.6420  -25.1090  -11.3680 C.2   122  VAL122      0.2260
    109  O          4.0170  -25.2480  -12.5340 O.2   122  VAL122     -0.2867
    110  CB         5.2200  -24.2260   -9.6210 C.3   122  VAL122      0.0252
    111  CG1        6.2820  -25.0330  -10.3560 C.3   122  VAL122      0.0019
    112  CG2        5.8150  -22.9530   -9.0450 C.3   122  VAL122      0.0019
    113  N          1.7750  -23.9660  -14.4380 N.3   125  ILE125     -0.1245
    114  CA         2.6680  -23.5760  -15.5220 C.3   125  ILE125      0.1561
    115  C          3.2080  -24.7990  -16.2570 C.2   125  ILE125      0.2260
    116  O          3.1580  -24.8640  -17.4860 O.2   125  ILE125     -0.2867
    117  CB         3.8460  -22.7330  -15.0010 C.3   125  ILE125      0.0252
    118  CG1        3.3310  -21.4450  -14.3540 C.3   125  ILE125      0.0019
    119  CG2        4.8130  -22.4190  -16.1290 C.3   125  ILE125      0.0019
    120  CD1        4.4200  -20.5840  -13.7600 C.3   125  ILE125      0.0001
    121  N          2.7130  -26.0460  -20.0730 N.3   129  LEU129     -0.1245
    122  CA         3.8660  -26.2740  -20.9370 C.3   129  LEU129      0.1561
    123  C          3.8070  -27.6540  -21.5830 C.2   129  LEU129      0.2260
    124  O          4.2850  -27.8440  -22.7020 O.2   129  LEU129     -0.2867
    125  CB         5.1700  -26.1140  -20.1520 C.3   129  LEU129      0.0270
    126  CG         5.5160  -24.6940  -19.7000 C.3   129  LEU129      0.0019
    127  CD1        6.8400  -24.6730  -18.9510 C.3   129  LEU129      0.0001
    128  CD2        5.5530  -23.7490  -20.8900 C.3   129  LEU129      0.0001
    129  N          2.1630  -27.8620  -25.0300 N.3   132  PHE132     -0.1241
    130  CA         2.9240  -27.5920  -26.2470 C.3   132  PHE132      0.1605
    131  C          3.1460  -28.8780  -27.0280 C.2   132  PHE132      0.2264
    132  O          3.2080  -28.8740  -28.2570 O.2   132  PHE132     -0.2867
    133  CB         4.2670  -26.9420  -25.9130 C.3   132  PHE132      0.0534
    134  CG         4.1790  -25.4680  -25.6500 C.ar  132  PHE132     -0.0203
    135  CD1        3.6290  -24.9920  -24.4710 C.ar  132  PHE132     -0.0042
    136  CD2        4.6570  -24.5580  -26.5770 C.ar  132  PHE132     -0.0042
    137  CE1        3.5500  -23.6360  -24.2260 C.ar  132  PHE132     -0.0003
    138  CE2        4.5820  -23.1990  -26.3370 C.ar  132  PHE132     -0.0003
    139  CZ         4.0270  -22.7380  -25.1600 C.ar  132  PHE132     -0.0000
@<TRIPOS>BOND
     1   132   131    2
     2     8     6    1
     3     7     5    1
     4     6     5    1
     5     1     2    1
     6   131   130    1
     7    15    14    1
     8     5     2    1
     9   136   138   ar
    10   136   134   ar
    11    14    16    1
    12    14    13    1
    13   138   139   ar
    14   130   133    1
    15   130   129    1
    16     2     3    1
    17   133   134    1
    18   134   135   ar
    19     9     3   am
    20     9    10    1
    21    13    10    1
    22     3     4    2
    23   139   137   ar
    24    10    11    1
    25   135   137   ar
    26    11    12    2
    27   124   123    2
    28    22    24    1
    29    22    21    1
    30   123   122    1
    31    17    18    1
    32    31    30    1
    33    31    25    1
    34    21    18    1
    35    21    23    1
    36    30    29    1
    37   122   125    1
    38   122   121    1
    39   128   126    1
    40    18    19    1
    41   125   126    1
    42    25    19   am
    43    25    26    1
    44    29    26    1
    45   126   127    1
    46    19    20    2
    47    26    27    1
    48    27    28    2
    49    38    36    1
    50   116   115    2
    51    32    33    1
    52    36    33    1
    53    36    37    1
    54    33    34    1
    55   115   114    1
    56   119   117    1
    57    49    51   ar
    58    49    46   ar
    59    51    52   ar
    60    39    34   am
    61    39    40    1
    62   114   117    1
    63   114   113    1
    64    34    35    2
    65    43    40    1
    66    43    44    1
    67   117   118    1
    68    46    44   ar
    69    46    48   ar
    70    40    41    1
    71    52    50   ar
    72   118   120    1
    73    44    45   ar
    74    41    42    2
    75    48    50   ar
    76    48    47   ar
    77    45    47   ar
    78   109   108    2
    79    62    60   ar
    80    62    63   ar
    81    60    58   ar
    82    63    61   ar
    83   108   107    1
    84    53    54    1
    85    58    57    1
    86    58    59   ar
    87   107   106    1
    88   107   110    1
    89   111   110    1
    90    61    59   ar
    91    57    54    1
    92    68    65    1
    93    54    55    1
    94   110   112    1
    95    64    55   am
    96    64    65    1
    97    55    56    2
    98    65    66    1
    99    66    67    2
   100    77    75   am
   101   102   101    2
   102    98    96    1
   103    75    76    2
   104    75    74    1
   105    74    73    1
   106    69    70    1
   107   101   100    1
   108    73    70    1
   109    96    97    1
   110    96    93    1
   111   103   100    1
   112   103   104    1
   113   105   104    1
   114   105    99    1
   115    70    71    1
   116   100    99    1
   117    99    94   am
   118    94    93    1
   119    94    95    2
   120    93    92    1
   121    78    71   am
   122    78    79    1
   123    71    72    2
   124    82    79    1
   125    82    83    1
   126    81    80    2
   127    79    80    1
   128    92    88   am
   129    85    83   ar
   130    83    84   ar
   131    89    88    2
   132    88    87    1
   133    86    87    1
   134    91    90    1
   135    87    90    1
