@<TRIPOS>MOLECULE
tmp/4u5cB01.pdb
 131 125 0 0 0
SMALL
GASTEIGER

@<TRIPOS>ATOM
      1  N        -11.5060  -28.4470   21.7550 N.3   392  GLU392     -0.1245
      2  CA       -11.9270  -29.6790   22.3980 C.3   392  GLU392      0.1567
      3  C        -13.2740  -30.0890   21.8180 C.2   392  GLU392      0.2260
      4  O        -14.1550  -29.2520   21.6690 O.2   392  GLU392     -0.2867
      5  CB       -12.0050  -29.5030   23.9170 C.3   392  GLU392      0.0388
      6  CG       -12.2710  -30.7910   24.6770 C.3   392  GLU392      0.1160
      7  CD       -11.0040  -31.5880   24.9190 C.2   392  GLU392      0.3649
      8  OE1      -11.1050  -32.7610   25.3390 O.co2 392  GLU392     -0.2457
      9  OE2       -9.9050  -31.0430   24.6860 O.co2 392  GLU392     -0.2457
     10  N         -5.7270  -24.7770   29.2660 N.3   440  TYR440     -0.1241
     11  CA        -6.8320  -24.1160   29.9520 C.3   440  TYR440      0.1605
     12  C         -6.3420  -23.0140   30.8810 C.2   440  TYR440      0.2264
     13  O         -6.4850  -21.8280   30.5780 O.2   440  TYR440     -0.2867
     14  CB        -7.6400  -25.1380   30.7510 C.3   440  TYR440      0.0534
     15  CG        -8.3510  -26.1680   29.9030 C.ar  440  TYR440     -0.0201
     16  CD1       -7.6780  -27.2860   29.4250 C.ar  440  TYR440     -0.0009
     17  CD2       -9.6960  -26.0290   29.5870 C.ar  440  TYR440     -0.0009
     18  CE1       -8.3230  -28.2330   28.6530 C.ar  440  TYR440      0.0417
     19  CE2      -10.3500  -26.9720   28.8150 C.ar  440  TYR440      0.0417
     20  CZ        -9.6600  -28.0720   28.3500 C.ar  440  TYR440      0.1957
     21  OH       -10.3090  -29.0120   27.5800 O.3   440  TYR440     -0.2866
     22  N        -14.8970  -25.0740   27.8420 N.3   468  PRO468     -0.2102
     23  CA       -15.0700  -25.9470   29.0060 C.3   468  PRO468      0.1504
     24  C        -14.0660  -25.6400   30.1070 C.2   468  PRO468      0.2576
     25  O        -13.2230  -26.4800   30.4230 O.2   468  PRO468     -0.2718
     26  CB       -14.8310  -27.3460   28.4300 C.3   468  PRO468      0.0282
     27  CG       -13.9100  -27.1110   27.2900 C.3   468  PRO468      0.0208
     28  CD       -14.4120  -25.8330   26.6740 C.3   468  PRO468      0.0893
     29  N        -14.1600  -24.4460   30.6820 N.am  469  LEU469     -0.1966
     30  CA       -13.2440  -24.0300   31.7350 C.3   469  LEU469      0.1728
     31  C        -13.8200  -24.3910   33.0900 C.2   469  LEU469      0.2616
     32  O        -14.8090  -23.8070   33.5270 O.2   469  LEU469     -0.2715
     33  CB       -12.9750  -22.5260   31.6650 C.3   469  LEU469      0.0311
     34  CG       -11.7600  -22.0240   32.4430 C.3   469  LEU469      0.0022
     35  CD1      -10.5000  -22.6640   31.9090 C.3   469  LEU469      0.0001
     36  CD2      -11.6600  -20.5120   32.3670 C.3   469  LEU469      0.0001
     37  N        -13.1940  -25.3540   33.7530 N.am  470  THR470     -0.1951
     38  CA       -13.6830  -25.8100   35.0420 C.3   470  THR470      0.1897
     39  C        -13.5540  -24.6810   36.0500 C.2   470  THR470      0.2313
     40  O        -12.5200  -24.0190   36.1220 O.2   470  THR470     -0.2863
     41  CB       -12.9170  -27.0500   35.5390 C.3   470  THR470      0.1794
     42  OG1      -13.0000  -28.0900   34.5560 O.3   470  THR470     -0.2208
     43  CG2      -13.5040  -27.5520   36.8450 C.3   470  THR470      0.0378
     44  N         -8.7050  -20.0600   40.3500 N.3   475  ARG475     -0.1245
     45  CA        -9.0030  -19.1270   39.2690 C.3   475  ARG475      0.1563
     46  C         -9.9480  -18.0000   39.6860 C.2   475  ARG475      0.2260
     47  O         -9.7500  -16.8530   39.2940 O.2   475  ARG475     -0.2867
     48  CB        -9.5730  -19.8930   38.0730 C.3   475  ARG475      0.0307
     49  CG        -8.5460  -20.7940   37.4060 C.3   475  ARG475      0.0489
     50  CD        -9.1720  -21.7480   36.4080 C.3   475  ARG475      0.2205
     51  NE        -8.2140  -22.7630   35.9780 N.pl3 475  ARG475     -0.0865
     52  CZ        -8.5080  -23.7840   35.1810 C.cat 475  ARG475      0.5346
     53  NH1       -9.7470  -23.9510   34.7440 N.pl3 475  ARG475      0.1354
     54  NH2       -7.5670  -24.6540   34.8410 N.pl3 475  ARG475      0.1354
     55  N         -4.8730  -36.3190   32.4490 N.3   591  LEU591     -0.1245
     56  CA        -4.2850  -35.3750   31.5090 C.3   591  LEU591      0.1561
     57  C         -2.9440  -34.8860   32.0480 C.2   591  LEU591      0.2260
     58  O         -2.7180  -34.9100   33.2560 O.2   591  LEU591     -0.2867
     59  CB        -5.2370  -34.2020   31.2730 C.3   591  LEU591      0.0270
     60  CG        -5.1030  -33.4490   29.9540 C.3   591  LEU591      0.0019
     61  CD1       -5.6830  -34.2840   28.8320 C.3   591  LEU591      0.0001
     62  CD2       -5.8110  -32.1130   30.0430 C.3   591  LEU591      0.0001
     63  N         -4.1120  -30.3070   33.8960 N.3   594  GLY594     -0.1210
     64  CA        -5.5410  -30.0460   33.9510 C.3   594  GLY594      0.1956
     65  C         -6.1160  -29.9760   35.3540 C.2   594  GLY594      0.2613
     66  O         -5.4260  -30.2610   36.3320 O.2   594  GLY594     -0.2717
     67  N         -7.3820  -29.5750   35.4480 N.am  595  SER595     -0.1938
     68  CA        -8.0790  -29.4730   36.7290 C.3   595  SER595      0.2055
     69  C         -8.2480  -30.8260   37.4130 C.2   595  SER595      0.2643
     70  O         -8.3190  -30.9030   38.6390 O.2   595  SER595     -0.2714
     71  CB        -9.4520  -28.8300   36.5410 C.3   595  SER595      0.2130
     72  OG       -10.3100  -29.6830   35.8040 O.3   595  SER595     -0.2179
     73  N         -8.3310  -31.8850   36.6140 N.am  596  THR596     -0.1950
     74  CA        -8.4620  -33.2430   37.1360 C.3   596  THR596      0.1897
     75  C         -7.1760  -33.6550   37.8520 C.2   596  THR596      0.2313
     76  O         -7.2000  -34.1430   38.9920 O.2   596  THR596     -0.2863
     77  CB        -8.7910  -34.2500   36.0180 C.3   596  THR596      0.1794
     78  OG1       -7.7940  -34.1740   34.9920 O.3   596  THR596     -0.2208
     79  CG2      -10.1470  -33.9340   35.4130 C.3   596  THR596      0.0378
     80  N         -6.7610  -35.1890   25.5140 N.3   627  THR627     -0.1218
     81  CA        -7.7880  -36.1880   25.7860 C.3   627  THR627      0.1862
     82  C         -7.7110  -37.3070   24.7530 C.2   627  THR627      0.2287
     83  O         -7.7550  -38.4900   25.0990 O.2   627  THR627     -0.2866
     84  CB        -9.1990  -35.5670   25.7810 C.3   627  THR627      0.1770
     85  OG1       -9.2620  -34.5120   26.7480 O.3   627  THR627     -0.2211
     86  CG2      -10.2440  -36.6140   26.1210 C.3   627  THR627      0.0375
     87  N         -8.5790  -44.5050   31.9820 N.3   643  TYR643     -0.1227
     88  CA        -8.3010  -43.0680   31.8900 C.3   643  TYR643      0.1736
     89  C         -9.2680  -42.2310   32.7120 C.2   643  TYR643      0.2595
     90  O        -10.4690  -42.2740   32.4900 O.2   643  TYR643     -0.2718
     91  CB        -8.3290  -42.5910   30.4340 C.3   643  TYR643      0.0548
     92  CG        -8.0310  -41.1120   30.2600 C.ar  643  TYR643     -0.0200
     93  CD1       -6.9900  -40.5070   30.9520 C.ar  643  TYR643     -0.0009
     94  CD2       -8.7790  -40.3260   29.3900 C.ar  643  TYR643     -0.0009
     95  CE1       -6.7120  -39.1630   30.7960 C.ar  643  TYR643      0.0417
     96  CE2       -8.5020  -38.9750   29.2250 C.ar  643  TYR643      0.0417
     97  CZ        -7.4680  -38.4010   29.9350 C.ar  643  TYR643      0.1957
     98  OH        -7.1770  -37.0630   29.7880 O.3   643  TYR643     -0.2866
     99  N         -8.7400  -41.4460   33.6420 N.am  644  LEU644     -0.1966
    100  CA        -9.5870  -40.5630   34.4290 C.3   644  LEU644      0.1728
    101  C         -9.7350  -39.2220   33.7210 C.2   644  LEU644      0.2616
    102  O         -8.7790  -38.4570   33.6040 O.2   644  LEU644     -0.2715
    103  CB        -9.0010  -40.3680   35.8260 C.3   644  LEU644      0.0311
    104  CG        -8.9960  -41.6030   36.7270 C.3   644  LEU644      0.0022
    105  CD1       -7.6700  -41.7200   37.4510 C.3   644  LEU644      0.0001
    106  CD2      -10.1400  -41.5370   37.7280 C.3   644  LEU644      0.0001
    107  N        -10.9470  -38.9470   33.2510 N.am  645  LEU645     -0.1963
    108  CA       -11.2250  -37.7070   32.5320 C.3   645  LEU645      0.1728
    109  C        -12.5450  -37.1090   32.9860 C.2   645  LEU645      0.2616
    110  O        -13.3410  -37.7750   33.6390 O.2   645  LEU645     -0.2715
    111  CB       -11.2460  -37.9360   31.0170 C.3   645  LEU645      0.0311
    112  CG       -12.4490  -38.6230   30.3630 C.3   645  LEU645      0.0022
    113  CD1      -12.3260  -38.5570   28.8490 C.3   645  LEU645      0.0001
    114  CD2      -12.5960  -40.0650   30.8140 C.3   645  LEU645      0.0001
    115  N        -12.7800  -35.8560   32.6170 N.am  646  GLU646     -0.1977
    116  CA       -14.0050  -35.1650   32.9940 C.3   646  GLU646      0.1602
    117  C        -15.2490  -35.8570   32.4400 C.2   646  GLU646      0.2287
    118  O        -15.2170  -36.4310   31.3520 O.2   646  GLU646     -0.2864
    119  CB       -13.9430  -33.7150   32.5190 C.3   646  GLU646      0.0415
    120  CG       -12.9580  -32.8790   33.3180 C.3   646  GLU646      0.1163
    121  CD       -12.8330  -31.4650   32.8010 C.2   646  GLU646      0.3649
    122  OE1      -13.1890  -31.2250   31.6280 O.co2 646  GLU646     -0.2457
    123  OE2      -12.3790  -30.5940   33.5700 O.co2 646  GLU646     -0.2457
    124  N        -16.7430  -35.0360   28.5550 N.3   649  MET649     -0.1245
    125  CA       -15.8980  -35.6240   27.5150 C.3   649  MET649      0.1570
    126  C        -15.9900  -37.1440   27.4780 C.2   649  MET649      0.2261
    127  O        -15.9710  -37.7490   26.4070 O.2   649  MET649     -0.2867
    128  CB       -14.4420  -35.1930   27.7030 C.3   649  MET649      0.0387
    129  CG       -14.1720  -33.7580   27.2870 C.3   649  MET649      0.0595
    130  SD       -14.7790  -32.5480   28.4760 S.3   649  MET649     -0.1393
    131  CE       -13.7230  -31.1490   28.1070 C.3   649  MET649      0.0692
@<TRIPOS>BOND
     1     4     3    2
     2     1     2    1
     3     3     2    1
     4     2     5    1
     5     5     6    1
     6     6     7    1
     7     9     7   ar
     8    82    83    2
     9    82    81    1
    10     7     8   ar
    11    80    81    1
    12    84    81    1
    13    84    86    1
    14    84    85    1
    15   127   126    2
    16    28    27    1
    17    28    22    1
    18   129   128    1
    19   129   130    1
    20    27    26    1
    21   126   125    1
    22   125   128    1
    23   125   124    1
    24    21    20    1
    25    22    23    1
    26   131   130    1
    27    20    18   ar
    28    20    19   ar
    29    26    23    1
    30    18    16   ar
    31    19    17   ar
    32    61    60    1
    33   113   112    1
    34    23    24    1
    35    96    94   ar
    36    96    97   ar
    37    10    11    1
    38    94    92   ar
    39    16    15   ar
    40    17    15   ar
    41    98    97    1
    42    15    14    1
    43    97    95   ar
    44    11    14    1
    45    11    12    1
    46    60    62    1
    47    60    59    1
    48    24    25    2
    49    24    29   am
    50    92    91    1
    51    92    93   ar
    52   112   114    1
    53   112   111    1
    54    91    88    1
    55    13    12    2
    56    29    30    1
    57    95    93   ar
    58   111   108    1
    59    59    56    1
    60   118   117    2
    61    56    57    1
    62    56    55    1
    63   122   121   ar
    64    33    30    1
    65    33    34    1
    66    30    31    1
    67    88    87    1
    68    88    89    1
    69    35    34    1
    70    57    58    2
    71    36    34    1
    72   117   116    1
    73    90    89    2
    74   119   116    1
    75   119   120    1
    76   108   109    1
    77   108   107    1
    78   115   109   am
    79   115   116    1
    80    89    99   am
    81   121   120    1
    82   121   123   ar
    83   109   110    2
    84    31    32    2
    85    31    37   am
    86   107   101   am
    87   102   101    2
    88    99   100    1
    89   101   100    1
    90    37    38    1
    91    63    64    1
    92    64    65    1
    93   100   103    1
    94    42    41    1
    95    53    52    1
    96    54    52    1
    97    78    77    1
    98    38    41    1
    99    38    39    1
   100    52    51    2
   101    65    67   am
   102    65    66    2
   103    79    77    1
   104    67    68    1
   105    41    43    1
   106    72    71    1
   107   103   104    1
   108    51    50    1
   109    77    74    1
   110    39    40    2
   111    50    49    1
   112    71    68    1
   113    73    74    1
   114    73    69   am
   115   104   105    1
   116   104   106    1
   117    68    69    1
   118    74    75    1
   119    49    48    1
   120    69    70    2
   121    75    76    2
   122    48    45    1
   123    45    46    1
   124    45    44    1
   125    47    46    2
