@<TRIPOS>MOLECULE
tmp/4u5cB02.pdb
 112 108 0 0 0
SMALL
GASTEIGER

@<TRIPOS>ATOM
      1  N        -14.6140  -24.4510   36.8160 N.3   471  ILE471     -0.1231
      2  CA       -14.5780  -23.4250   37.8420 C.3   471  ILE471      0.1692
      3  C        -13.7420  -23.9260   39.0120 C.2   471  ILE471      0.2592
      4  O        -14.0540  -24.9540   39.6140 O.2   471  ILE471     -0.2718
      5  CB       -15.9870  -23.0600   38.3350 C.3   471  ILE471      0.0266
      6  CG1      -16.7610  -22.3210   37.2470 C.3   471  ILE471      0.0019
      7  CG2      -15.9110  -22.2180   39.5930 C.3   471  ILE471      0.0020
      8  CD1      -18.1510  -21.9050   37.6770 C.3   471  ILE471      0.0001
      9  N        -12.6790  -23.1950   39.3310 N.am  472  THR472     -0.1953
     10  CA       -11.8270  -23.5440   40.4580 C.3   472  THR472      0.1897
     11  C        -11.5440  -22.3170   41.3100 C.2   472  THR472      0.2313
     12  O        -11.4390  -21.2040   40.7930 O.2   472  THR472     -0.2863
     13  CB       -10.4920  -24.1670   40.0000 C.3   472  THR472      0.1794
     14  OG1       -9.8880  -23.3360   39.0030 O.3   472  THR472     -0.2208
     15  CG2      -10.7160  -25.5620   39.4310 C.3   472  THR472      0.0378
     16  N        -22.2510  -17.9950   36.4900 N.3   483  LYS483     -0.1231
     17  CA       -22.8990  -19.1980   36.9990 C.3   483  LYS483      0.1678
     18  C        -22.6120  -20.3440   36.0360 C.2   483  LYS483      0.2434
     19  O        -22.5630  -20.1390   34.8240 O.2   483  LYS483     -0.2733
     20  CB       -24.4090  -18.9990   37.1470 C.3   483  LYS483      0.0284
     21  CG       -24.8330  -18.0090   38.2180 C.3   483  LYS483      0.0035
     22  CD       -24.6720  -18.5880   39.6120 C.3   483  LYS483      0.0206
     23  CE       -24.9740  -17.5460   40.6720 C.3   483  LYS483      0.1093
     24  NZ       -24.1690  -16.3110   40.4810 N.3   483  LYS483     -0.1314
     25  N        -22.4070  -21.5510   36.5740 N.am  484  PRO484     -0.2718
     26  CA       -21.9840  -22.6700   35.7280 C.3   484  PRO484      0.1535
     27  C        -23.0110  -23.0010   34.6480 C.2   484  PRO484      0.2599
     28  O        -24.2040  -23.0710   34.9390 O.2   484  PRO484     -0.2715
     29  CB       -21.8260  -23.8200   36.7280 C.3   484  PRO484      0.0310
     30  CG       -22.6810  -23.4350   37.8910 C.3   484  PRO484      0.0237
     31  CD       -22.5600  -21.9490   37.9820 C.3   484  PRO484      0.0939
     32  N        -22.5480  -23.1740   33.4120 N.am  485  PHE485     -0.1960
     33  CA       -23.4470  -23.4940   32.3090 C.3   485  PHE485      0.1771
     34  C        -23.5140  -24.9930   32.0220 C.2   485  PHE485      0.2619
     35  O        -24.3000  -25.4320   31.1810 O.2   485  PHE485     -0.2715
     36  CB       -23.0260  -22.7370   31.0410 C.3   485  PHE485      0.0574
     37  CG       -21.7180  -23.2000   30.4460 C.ar  485  PHE485     -0.0200
     38  CD1      -21.6910  -24.2040   29.4900 C.ar  485  PHE485     -0.0042
     39  CD2      -20.5200  -22.6280   30.8370 C.ar  485  PHE485     -0.0042
     40  CE1      -20.4980  -24.6250   28.9370 C.ar  485  PHE485     -0.0003
     41  CE2      -19.3240  -23.0500   30.2870 C.ar  485  PHE485     -0.0003
     42  CZ       -19.3160  -24.0480   29.3360 C.ar  485  PHE485     -0.0000
     43  N        -22.6880  -25.7740   32.7090 N.am  486  MET486     -0.1963
     44  CA       -22.7160  -27.2230   32.5410 C.3   486  MET486      0.1736
     45  C        -22.1960  -27.9580   33.7730 C.2   486  MET486      0.2617
     46  O        -21.3460  -27.4440   34.4960 O.2   486  MET486     -0.2715
     47  CB       -21.9150  -27.6300   31.3020 C.3   486  MET486      0.0427
     48  CG       -22.2190  -29.0350   30.8170 C.3   486  MET486      0.0599
     49  SD       -21.1550  -29.5680   29.4700 S.3   486  MET486     -0.1393
     50  CE       -22.0400  -28.9020   28.0680 C.3   486  MET486      0.0692
     51  N        -22.7250  -29.1560   34.0130 N.am  487  SER487     -0.1950
     52  CA       -22.3080  -29.9770   35.1450 C.3   487  SER487      0.1924
     53  C        -21.4280  -31.1270   34.6820 C.2   487  SER487      0.2314
     54  O        -21.6370  -31.6820   33.6030 O.2   487  SER487     -0.2863
     55  CB       -23.5180  -30.5360   35.8930 C.3   487  SER487      0.2116
     56  OG       -24.2270  -29.5130   36.5590 O.3   487  SER487     -0.2180
     57  N        -18.0430  -33.3750   42.1640 N.3   670  SER670     -0.1202
     58  CA       -19.1430  -32.6680   41.5180 C.3   670  SER670      0.2020
     59  C        -18.7990  -31.1880   41.3340 C.2   670  SER670      0.2619
     60  O        -18.6390  -30.4550   42.3100 O.2   670  SER670     -0.2717
     61  CB       -20.4270  -32.8250   42.3320 C.3   670  SER670      0.2103
     62  OG       -20.6430  -34.1810   42.6840 O.3   670  SER670     -0.2182
     63  N        -18.6800  -30.7570   40.0820 N.am  671  LYS671     -0.1965
     64  CA       -18.2870  -29.3830   39.7660 C.3   671  LYS671      0.1728
     65  C        -18.9260  -28.9190   38.4530 C.2   671  LYS671      0.2616
     66  O        -19.7760  -29.6150   37.9040 O.2   671  LYS671     -0.2715
     67  CB       -16.7600  -29.2850   39.6970 C.3   671  LYS671      0.0311
     68  CG       -16.1160  -30.3430   38.8110 C.3   671  LYS671      0.0038
     69  CD       -14.5970  -30.2920   38.8740 C.3   671  LYS671      0.0206
     70  CE       -13.9790  -31.3210   37.9390 C.3   671  LYS671      0.1093
     71  NZ       -12.4970  -31.3760   38.0510 N.3   671  LYS671     -0.1314
     72  N        -18.5340  -27.7480   37.9550 N.am  672  GLY672     -0.1955
     73  CA       -19.0930  -27.2400   36.7140 C.3   672  GLY672      0.1869
     74  C        -18.1530  -26.3640   35.9120 C.2   672  GLY672      0.2309
     75  O        -17.1720  -25.8560   36.4420 O.2   672  GLY672     -0.2863
     76  N        -26.5490  -16.6080   30.7700 N.3   691  VAL691     -0.1231
     77  CA       -26.3900  -18.0280   31.0580 C.3   691  VAL691      0.1692
     78  C        -27.5690  -18.5430   31.8720 C.2   691  VAL691      0.2591
     79  O        -28.0630  -19.6450   31.6310 O.2   691  VAL691     -0.2718
     80  CB       -25.0780  -18.3130   31.8180 C.3   691  VAL691      0.0266
     81  CG1      -24.9990  -19.7780   32.2260 C.3   691  VAL691      0.0020
     82  CG2      -23.8740  -17.9180   30.9740 C.3   691  VAL691      0.0020
     83  N        -28.0330  -17.7410   32.8240 N.am  692  LEU692     -0.1980
     84  CA       -29.2070  -18.1230   33.6060 C.3   692  LEU692      0.1596
     85  C        -30.4390  -18.3010   32.7150 C.2   692  LEU692      0.2287
     86  O        -31.2170  -19.2480   32.8870 O.2   692  LEU692     -0.2864
     87  CB       -29.4820  -17.0890   34.6920 C.3   692  LEU692      0.0297
     88  CG       -28.7540  -17.3920   36.0010 C.3   692  LEU692      0.0022
     89  CD1      -27.8490  -16.2350   36.3820 C.3   692  LEU692      0.0001
     90  CD2      -29.7370  -17.7080   37.1140 C.3   692  LEU692      0.0001
     91  N        -30.2410  -21.2500   30.6020 N.3   695  SER695     -0.1217
     92  CA       -30.4790  -22.3820   31.4860 C.3   695  SER695      0.1889
     93  C        -31.9680  -22.6580   31.6580 C.2   695  SER695      0.2288
     94  O        -32.4270  -23.7720   31.4050 O.2   695  SER695     -0.2866
     95  CB       -29.8330  -22.1420   32.8520 C.3   695  SER695      0.2089
     96  OG       -30.2010  -23.1510   33.7780 O.3   695  SER695     -0.2183
     97  N        -29.4440  -24.5330   27.1450 N.3   700  LEU700     -0.1231
     98  CA       -28.2200  -25.2290   27.5180 C.3   700  LEU700      0.1693
     99  C        -28.4000  -26.7350   27.3590 C.2   700  LEU700      0.2592
    100  O        -27.5830  -27.4120   26.7270 O.2   700  LEU700     -0.2718
    101  CB       -27.8300  -24.8990   28.9600 C.3   700  LEU700      0.0284
    102  CG       -27.4760  -23.4490   29.2920 C.3   700  LEU700      0.0019
    103  CD1      -27.0300  -23.3380   30.7410 C.3   700  LEU700      0.0001
    104  CD2      -26.4020  -22.9170   28.3530 C.3   700  LEU700      0.0001
    105  N        -29.4950  -27.2390   27.9220 N.am  701  ASP701     -0.1974
    106  CA       -29.8270  -28.6570   27.8620 C.3   701  ASP701      0.1709
    107  C        -29.9850  -29.1060   26.4170 C.2   701  ASP701      0.2293
    108  O        -29.4060  -30.1110   25.9950 O.2   701  ASP701     -0.2864
    109  CB       -31.1110  -28.9460   28.6500 C.3   701  ASP701      0.1436
    110  CG       -30.9530  -28.7080   30.1450 C.2   701  ASP701      0.3671
    111  OD1      -29.8230  -28.8540   30.6580 O.co2 701  ASP701     -0.2456
    112  OD2      -31.9600  -28.3800   30.8100 O.co2 701  ASP701     -0.2456
@<TRIPOS>BOND
     1   108   107    2
     2   107   106    1
     3   100    99    2
     4    97    98    1
     5    99    98    1
     6    99   105   am
     7    98   101    1
     8   106   105    1
     9   106   109    1
    10    50    49    1
    11   104   102    1
    12   109   110    1
    13    40    42   ar
    14    40    38   ar
    15   101   102    1
    16   102   103    1
    17    42    41   ar
    18    49    48    1
    19    38    37   ar
    20   110   111   ar
    21   110   112   ar
    22    41    39   ar
    23    37    39   ar
    24    37    36    1
    25    91    92    1
    26    76    77    1
    27    48    47    1
    28    82    80    1
    29    36    33    1
    30    77    80    1
    31    77    78    1
    32    35    34    2
    33    47    44    1
    34    94    93    2
    35    92    93    1
    36    92    95    1
    37    79    78    2
    38    80    81    1
    39    78    83   am
    40    34    33    1
    41    34    43   am
    42    33    32    1
    43    44    43    1
    44    44    45    1
    45    85    86    2
    46    85    84    1
    47    83    84    1
    48    95    96    1
    49    32    27   am
    50    54    53    2
    51    84    87    1
    52    45    51   am
    53    45    46    2
    54    51    52    1
    55    27    28    2
    56    27    26    1
    57    53    52    1
    58    87    88    1
    59    19    18    2
    60    52    55    1
    61    26    25    1
    62    26    29    1
    63    55    56    1
    64    74    75    2
    65    74    73    1
    66    88    89    1
    67    88    90    1
    68    18    25   am
    69    18    17    1
    70    16    17    1
    71    25    31    1
    72    73    72    1
    73    29    30    1
    74     1     2    1
    75    17    20    1
    76    20    21    1
    77     6     8    1
    78     6     5    1
    79     2     5    1
    80     2     3    1
    81    30    31    1
    82    66    65    2
    83    70    71    1
    84    70    69    1
    85    72    65   am
    86    21    22    1
    87     5     7    1
    88    65    64    1
    89    68    69    1
    90    68    67    1
    91    14    13    1
    92     3     9   am
    93     3     4    2
    94     9    10    1
    95    15    13    1
    96    22    23    1
    97    67    64    1
    98    64    63    1
    99    13    10    1
   100    63    59   am
   101    10    11    1
   102    24    23    1
   103    12    11    2
   104    59    58    1
   105    59    60    2
   106    58    57    1
   107    58    61    1
   108    61    62    1
