@<TRIPOS>MOLECULE
tmp/4u5iB00.pdb
 130 127 0 0 0
SMALL
GASTEIGER

@<TRIPOS>ATOM
      1  N        -15.7010  -19.0800   80.3050 N.3    20  ASN20      -0.1240
      2  CA       -14.5940  -19.3720   81.2090 C.3    20  ASN20       0.1653
      3  C        -15.0250  -20.2320   82.3850 C.2    20  ASN20       0.2266
      4  O        -14.6200  -19.9940   83.5290 O.2    20  ASN20      -0.2867
      5  CB       -13.9730  -18.0710   81.7260 C.3    20  ASN20       0.1155
      6  CG       -13.3570  -17.2320   80.6190 C.2    20  ASN20       0.2627
      7  OD1      -13.2600  -17.6620   79.4670 O.2    20  ASN20      -0.2716
      8  ND2      -12.9270  -16.0250   80.9700 N.am   20  ASN20      -0.0877
      9  N        -10.8830  -20.6790   86.1860 N.3    30  TRP30      -0.1241
     10  CA       -11.0570  -19.3480   85.6440 C.3    30  TRP30       0.1605
     11  C        -12.1990  -18.6400   86.3700 C.2    30  TRP30       0.2264
     12  O        -12.0060  -18.1090   87.4620 O.2    30  TRP30      -0.2867
     13  CB       -11.3190  -19.4410   84.1400 C.3    30  TRP30       0.0550
     14  CG       -10.1180  -19.9200   83.3500 C.ar   30  TRP30       0.0003
     15  CD1       -8.8790  -20.2350   83.8430 C.ar   30  TRP30       0.0946
     16  CD2      -10.0380  -20.1040   81.9270 C.ar   30  TRP30       0.0152
     17  NE1       -8.0370  -20.5980   82.8170 N.ar   30  TRP30      -0.2442
     18  CE2       -8.7200  -20.5270   81.6320 C.ar   30  TRP30       0.0810
     19  CE3      -10.9500  -19.9500   80.8740 C.ar   30  TRP30       0.0012
     20  CZ2       -8.2920  -20.8000   80.3280 C.ar   30  TRP30       0.0191
     21  CZ3      -10.5220  -20.2220   79.5710 C.ar   30  TRP30       0.0001
     22  CH2       -9.2040  -20.6430   79.3110 C.ar   30  TRP30       0.0015
     23  N        -14.2350  -26.8250   73.3750 N.3    95  HIS95      -0.1226
     24  CA       -13.7210  -25.4610   73.4020 C.3    95  HIS95       0.1752
     25  C        -12.3270  -25.4850   74.0120 C.2    95  HIS95       0.2596
     26  O        -12.1000  -26.1510   75.0120 O.2    95  HIS95      -0.2718
     27  CB       -14.6690  -24.6060   74.2470 C.3    95  HIS95       0.0759
     28  CG       -14.7320  -23.1660   73.8470 C.ar   95  HIS95       0.0818
     29  ND1      -13.7070  -22.2760   74.0900 N.ar   95  HIS95      -0.2268
     30  CD2      -15.7410  -22.4400   73.3120 C.ar   95  HIS95       0.1154
     31  CE1      -14.0860  -21.0630   73.7320 C.ar   95  HIS95       0.1986
     32  NE2      -15.3160  -21.1360   73.2580 N.ar   95  HIS95      -0.2212
     33  N        -11.3970  -24.7650   73.3960 N.am   96  HIS96      -0.1975
     34  CA       -10.0140  -24.6950   73.8570 C.3    96  HIS96       0.1656
     35  C         -9.2530  -26.0170   73.8350 C.2    96  HIS96       0.2291
     36  O         -8.1970  -26.1140   74.4490 O.2    96  HIS96      -0.2864
     37  CB        -9.9250  -24.1000   75.2700 C.3    96  HIS96       0.0771
     38  CG       -10.1630  -22.6230   75.3270 C.ar   96  HIS96       0.0820
     39  ND1       -9.6700  -21.7510   74.3780 N.ar   96  HIS96      -0.2267
     40  CD2      -10.8030  -21.8570   76.2450 C.ar   96  HIS96       0.1154
     41  CE1       -9.9960  -20.5130   74.7100 C.ar   96  HIS96       0.1986
     42  NE2      -10.6820  -20.5490   75.8390 N.ar   96  HIS96      -0.2212
     43  N        -15.2820  -25.2320   68.7780 N.3   135  ASN135     -0.1225
     44  CA       -15.3590  -23.7910   68.9930 C.3   135  ASN135      0.1785
     45  C        -14.9080  -22.9080   67.8340 C.2   135  ASN135      0.2597
     46  O        -15.7390  -22.2970   67.1690 O.2   135  ASN135     -0.2718
     47  CB       -14.5920  -23.4190   70.2590 C.3   135  ASN135      0.1169
     48  CG       -14.3660  -21.9230   70.3900 C.2   135  ASN135      0.2627
     49  OD1      -15.2850  -21.1200   70.2300 O.2   135  ASN135     -0.2716
     50  ND2      -13.1320  -21.5440   70.6910 N.am  135  ASN135     -0.0877
     51  N        -13.6120  -22.8220   67.5810 N.am  136  GLU136     -0.1979
     52  CA       -13.1380  -21.9710   66.4940 C.3   136  GLU136      0.1602
     53  C        -12.1670  -22.7420   65.6160 C.2   136  GLU136      0.2287
     54  O        -10.9500  -22.6170   65.7440 O.2   136  GLU136     -0.2864
     55  CB       -12.4710  -20.7150   67.0620 C.3   136  GLU136      0.0415
     56  CG       -13.4360  -19.7380   67.7510 C.3   136  GLU136      0.1163
     57  CD       -12.7420  -18.4650   68.2390 C.2   136  GLU136      0.3649
     58  OE1      -11.9120  -18.5520   69.1700 O.co2 136  GLU136     -0.2457
     59  OE2      -13.0220  -17.3790   67.6830 O.co2 136  GLU136     -0.2457
     60  N        -17.5900  -16.3530   63.7430 N.3   195  HIS195     -0.1226
     61  CA       -16.9430  -15.6170   64.8220 C.3   195  HIS195      0.1752
     62  C        -15.9790  -14.6010   64.2210 C.2   195  HIS195      0.2596
     63  O        -15.5390  -14.7540   63.0810 O.2   195  HIS195     -0.2718
     64  CB       -16.1530  -16.5700   65.7260 C.3   195  HIS195      0.0759
     65  CG       -16.9850  -17.6450   66.3610 C.ar  195  HIS195      0.0818
     66  ND1      -17.0780  -17.8050   67.7280 N.ar  195  HIS195     -0.2268
     67  CD2      -17.7540  -18.6190   65.8170 C.ar  195  HIS195      0.1154
     68  CE1      -17.8690  -18.8290   67.9970 C.ar  195  HIS195      0.1986
     69  NE2      -18.2930  -19.3400   66.8550 N.ar  195  HIS195     -0.2212
     70  N        -15.6670  -13.5560   64.9790 N.am  196  TYR196     -0.1976
     71  CA       -14.7160  -12.5450   64.5260 C.3   196  TYR196      0.1639
     72  C        -13.3380  -13.1980   64.5800 C.2   196  TYR196      0.2290
     73  O        -12.9690  -13.7820   65.5950 O.2   196  TYR196     -0.2864
     74  CB       -14.7200  -11.3340   65.4570 C.3   196  TYR196      0.0560
     75  CG       -13.5680  -10.3940   65.1970 C.ar  196  TYR196     -0.0198
     76  CD1      -13.6410   -9.4310   64.1930 C.ar  196  TYR196     -0.0009
     77  CD2      -12.3780  -10.5070   65.9190 C.ar  196  TYR196     -0.0009
     78  CE1      -12.5610   -8.6050   63.9110 C.ar  196  TYR196      0.0417
     79  CE2      -11.2880   -9.6880   65.6430 C.ar  196  TYR196      0.0417
     80  CZ       -11.3880   -8.7380   64.6350 C.ar  196  TYR196      0.1957
     81  OH       -10.3110   -7.9320   64.3430 O.3   196  TYR196     -0.2866
     82  N        -20.6370  -16.3970   69.7000 N.3   237  ALA237     -0.1245
     83  CA       -19.8720  -15.5900   70.6390 C.3   237  ALA237      0.1562
     84  C        -19.5900  -14.2060   70.0850 C.2   237  ALA237      0.2260
     85  O        -18.4510  -13.8940   69.7610 O.2   237  ALA237     -0.2867
     86  CB       -18.5670  -16.2880   70.9720 C.3   237  ALA237      0.0290
     87  N        -17.6670   -9.6660   71.3040 N.3   240  VAL240     -0.1245
     88  CA       -16.4600  -10.1600   71.9450 C.3   240  VAL240      0.1561
     89  C        -15.2600   -9.2160   71.8550 C.2   240  VAL240      0.2260
     90  O        -14.1800   -9.5360   72.3420 O.2   240  VAL240     -0.2867
     91  CB       -16.0870  -11.5440   71.3470 C.3   240  VAL240      0.0252
     92  CG1      -15.9790  -11.4390   69.8280 C.3   240  VAL240      0.0019
     93  CG2      -14.7900  -12.0560   71.9490 C.3   240  VAL240      0.0019
     94  N        -21.1770  -13.1530   74.3030 N.3   270  TRP270     -0.1241
     95  CA       -20.0570  -13.6960   75.0420 C.3   270  TRP270      0.1605
     96  C        -19.9720  -13.0790   76.4220 C.2   270  TRP270      0.2264
     97  O        -19.8020  -11.8720   76.5580 O.2   270  TRP270     -0.2867
     98  CB       -18.7440  -13.4610   74.3060 C.3   270  TRP270      0.0550
     99  CG       -17.5840  -13.9630   75.0990 C.ar  270  TRP270      0.0003
    100  CD1      -16.6760  -13.2140   75.7900 C.ar  270  TRP270      0.0946
    101  CD2      -17.2580  -15.3340   75.3610 C.ar  270  TRP270      0.0152
    102  NE1      -15.8050  -14.0330   76.4710 N.ar  270  TRP270     -0.2442
    103  CE2      -16.1360  -15.3390   76.2250 C.ar  270  TRP270      0.0810
    104  CE3      -17.8010  -16.5570   74.9480 C.ar  270  TRP270      0.0012
    105  CZ2      -15.5490  -16.5210   76.6880 C.ar  270  TRP270      0.0191
    106  CZ3      -17.2150  -17.7390   75.4060 C.ar  270  TRP270      0.0001
    107  CH2      -16.1000  -17.7090   76.2660 C.ar  270  TRP270      0.0015
    108  N        -17.8360  -13.8600   79.8240 N.3   272  ASN272     -0.1240
    109  CA       -16.7950  -14.6580   80.4580 C.3   272  ASN272      0.1653
    110  C        -16.8820  -14.7580   81.9750 C.2   272  ASN272      0.2266
    111  O        -15.9520  -15.2470   82.6150 O.2   272  ASN272     -0.2867
    112  CB       -15.4000  -14.1620   80.0480 C.3   272  ASN272      0.1155
    113  CG       -15.0780  -12.7840   80.5810 C.2   272  ASN272      0.2627
    114  OD1      -15.7330  -12.2840   81.4970 O.2   272  ASN272     -0.2716
    115  ND2      -14.0450  -12.1640   80.0180 N.am  272  ASN272     -0.0877
    116  N        -16.5860  -12.5670   84.2010 N.3   274  VAL274     -0.1245
    117  CA       -15.7940  -11.5760   84.9240 C.3   274  VAL274      0.1561
    118  C        -16.5000  -10.2300   84.7900 C.2   274  VAL274      0.2260
    119  O        -16.4100   -9.5650   83.7560 O.2   274  VAL274     -0.2867
    120  CB       -14.3680  -11.4650   84.3490 C.3   274  VAL274      0.0252
    121  CG1      -13.5720  -10.4400   85.1370 C.3   274  VAL274      0.0019
    122  CG2      -13.6860  -12.8180   84.3940 C.3   274  VAL274      0.0019
    123  N        -15.6140   -7.9760   80.4150 N.3   277  MET277     -0.1245
    124  CA       -16.7360   -8.1590   79.5070 C.3   277  MET277      0.1570
    125  C        -17.7140   -9.2270   80.0070 C.2   277  MET277      0.2261
    126  O        -17.6700  -10.3820   79.5630 O.2   277  MET277     -0.2867
    127  CB       -16.2080   -8.5300   78.1170 C.3   277  MET277      0.0387
    128  CG       -15.2880   -9.7470   78.1100 C.3   277  MET277      0.0595
    129  SD       -14.5810  -10.1350   76.4880 S.3   277  MET277     -0.1393
    130  CE       -12.8060  -10.0930   76.8620 C.3   277  MET277      0.0692
@<TRIPOS>BOND
     1    63    62    2
     2    60    61    1
     3    78    76   ar
     4    78    80   ar
     5    76    75   ar
     6    62    61    1
     7    62    70   am
     8    81    80    1
     9    71    72    1
    10    71    70    1
    11    71    74    1
    12    72    73    2
    13    80    79   ar
    14    61    64    1
    15    75    74    1
    16    75    77   ar
    17    53    54    2
    18    53    52    1
    19    79    77   ar
    20    64    65    1
    21    67    65   ar
    22    67    69   ar
    23    65    66   ar
    24    52    55    1
    25    52    51    1
    26    69    68   ar
    27    55    56    1
    28    46    45    2
    29    51    45   am
    30    59    57   ar
    31    66    68   ar
    32    56    57    1
    33    45    44    1
    34    57    58   ar
    35    43    44    1
    36    44    47    1
    37    82    83    1
    38    85    84    2
    39    92    91    1
    40    84    83    1
    41    49    48    2
    42    47    48    1
    43    48    50   am
    44    83    86    1
    45    87    88    1
    46    91    88    1
    47    91    93    1
    48    89    88    1
    49    89    90    2
    50    32    30   ar
    51    32    31   ar
    52    30    28   ar
    53    23    24    1
    54    33    34    1
    55    33    25   am
    56    24    25    1
    57    24    27    1
    58    31    29   ar
    59    35    34    1
    60    35    36    2
    61    28    29   ar
    62    28    27    1
    63    34    37    1
    64    25    26    2
    65    94    95    1
    66    98    95    1
    67    98    99    1
    68    39    41   ar
    69    39    38   ar
    70    41    42   ar
    71   104   101   ar
    72   104   106   ar
    73    95    96    1
    74    99   101   ar
    75    99   100   ar
    76    37    38    1
    77    38    40   ar
    78   101   103   ar
    79   106   107   ar
    80   100   102   ar
    81    42    40   ar
    82   103   102   ar
    83   103   105   ar
    84   107   105   ar
    85    96    97    2
    86   129   130    1
    87   129   128    1
    88   128   127    1
    89   127   124    1
    90    22    21   ar
    91    22    20   ar
    92     7     6    2
    93   124   125    1
    94   124   123    1
    95   126   125    2
    96    21    19   ar
    97   108   109    1
    98   115   113   am
    99   112   109    1
   100   112   113    1
   101     1     2    1
   102    20    18   ar
   103   109   110    1
   104   113   114    2
   105     6     8   am
   106     6     5    1
   107    19    16   ar
   108     2     5    1
   109     2     3    1
   110    18    16   ar
   111    18    17   ar
   112    16    14   ar
   113   110   111    2
   114     3     4    2
   115    17    15   ar
   116    14    15   ar
   117    14    13    1
   118   119   118    2
   119    13    10    1
   120   116   117    1
   121   120   122    1
   122   120   117    1
   123   120   121    1
   124   118   117    1
   125    10     9    1
   126    10    11    1
   127    11    12    2
