@<TRIPOS>MOLECULE
tmp/4u5jA00.pdb
 133 124 0 0 0
SMALL
GASTEIGER

@<TRIPOS>ATOM
      1  N         -4.2540   20.4100    2.4360 N.3    15  LEU15      -0.1231
      2  CA        -4.1060   21.1120    3.7040 C.3    15  LEU15       0.1693
      3  C         -5.2380   20.7440    4.6580 C.2    15  LEU15       0.2593
      4  O         -5.0470   20.6590    5.8730 O.2    15  LEU15      -0.2718
      5  CB        -4.0620   22.6260    3.4770 C.3    15  LEU15       0.0284
      6  CG        -3.0210   23.1080    2.4590 C.3    15  LEU15       0.0019
      7  CD1       -3.3520   24.4940    1.9270 C.3    15  LEU15       0.0001
      8  CD2       -1.6320   23.0970    3.0640 C.3    15  LEU15       0.0001
      9  N         -6.4170   20.5180    4.0970 N.am   16  GLY16      -0.1942
     10  CA        -7.5600   20.1210    4.8900 C.3    16  GLY16       0.2014
     11  C         -8.6780   19.6840    3.9830 C.2    16  GLY16       0.2639
     12  O         -8.5610   19.7790    2.7590 O.2    16  GLY16      -0.2714
     13  N         -9.7620   19.1950    4.5720 N.am   17  GLN17      -0.1963
     14  CA       -10.9400   18.8650    3.7900 C.3    17  GLN17       0.1733
     15  C        -12.2110   18.9740    4.6340 C.2    17  GLN17       0.2616
     16  O        -12.3640   18.2990    5.6470 O.2    17  GLN17      -0.2715
     17  CB       -10.7960   17.4670    3.1730 C.3    17  GLN17       0.0408
     18  CG       -10.7740   16.3090    4.1420 C.3    17  GLN17       0.0908
     19  CD       -11.5390   15.1240    3.6030 C.2    17  GLN17       0.2608
     20  OE1      -11.5050   14.8470    2.4030 O.2    17  GLN17      -0.2717
     21  NE2      -12.2570   14.4290    4.4810 N.am   17  GLN17      -0.0878
     22  N        -13.1090   19.8650    4.2290 N.am   18  GLY18      -0.1955
     23  CA       -14.4080   19.9830    4.8690 C.3    18  GLY18       0.1869
     24  C        -15.3550   18.9580    4.2790 C.2    18  GLY18       0.2309
     25  O        -14.9940   18.2400    3.3480 O.2    18  GLY18      -0.2863
     26  N         -9.4490   21.5360    0.3840 N.3    23  VAL23      -0.1245
     27  CA        -8.5620   22.6870    0.2170 C.3    23  VAL23       0.1561
     28  C         -7.1090   22.2750    0.0360 C.2    23  VAL23       0.2260
     29  O         -6.5200   21.6050    0.8830 O.2    23  VAL23      -0.2867
     30  CB        -8.6390   23.6750    1.4000 C.3    23  VAL23       0.0252
     31  CG1       -7.5730   24.7420    1.2490 C.3    23  VAL23       0.0019
     32  CG2      -10.0160   24.3380    1.4690 C.3    23  VAL23       0.0019
     33  N         -3.7220   28.9740   -2.5600 N.3    35  ALA35      -0.1245
     34  CA        -4.5530   27.9750   -1.9360 C.3    35  ALA35       0.1562
     35  C         -5.8000   27.8090   -2.7880 C.2    35  ALA35       0.2260
     36  O         -6.3650   28.7910   -3.2680 O.2    35  ALA35      -0.2867
     37  CB        -4.9070   28.3800   -0.5340 C.3    35  ALA35       0.0290
     38  N         -9.5190   26.1340   -2.9220 N.3    37  LYS37      -0.1245
     39  CA       -10.6930   25.4590   -2.4010 C.3    37  LYS37       0.1561
     40  C        -11.3890   24.7290   -3.5330 C.2    37  LYS37       0.2260
     41  O        -11.7650   25.3380   -4.5380 O.2    37  LYS37      -0.2867
     42  CB       -11.6500   26.4480   -1.7300 C.3    37  LYS37       0.0271
     43  CG       -11.0060   27.3270   -0.6610 C.3    37  LYS37       0.0035
     44  CD       -12.0290   28.2030    0.0590 C.3    37  LYS37       0.0206
     45  CE       -13.4130   27.5440    0.1040 C.3    37  LYS37       0.1093
     46  NZ       -13.5560   26.4890    1.1580 N.3    37  LYS37      -0.1314
     47  N         -8.7440   37.0280    4.1300 N.3    65  VAL65      -0.1245
     48  CA        -8.0470   36.2400    3.1310 C.3    65  VAL65       0.1561
     49  C         -8.5020   36.7040    1.7450 C.2    65  VAL65       0.2260
     50  O         -9.7050   36.8880    1.5020 O.2    65  VAL65      -0.2867
     51  CB        -8.2890   34.7360    3.3410 C.3    65  VAL65       0.0252
     52  CG1       -7.7240   33.9310    2.1860 C.3    65  VAL65       0.0019
     53  CG2       -7.6270   34.3120    4.6360 C.3    65  VAL65       0.0019
     54  N         -7.2720   31.4780   -3.6070 N.3    80  THR80      -0.1203
     55  CA        -7.0460   32.5540   -2.6440 C.3    80  THR80       0.1994
     56  C         -5.5780   32.6390   -2.2830 C.2    80  THR80       0.2618
     57  O         -4.7980   31.7620   -2.6590 O.2    80  THR80      -0.2717
     58  CB        -7.8400   32.3400   -1.3470 C.3    80  THR80       0.1784
     59  OG1       -7.2360   31.2790   -0.6030 O.3    80  THR80      -0.2211
     60  CG2       -9.2890   31.9750   -1.6440 C.3    80  THR80       0.0376
     61  N         -5.1970   33.6790   -1.5440 N.am   81  GLU81      -0.1965
     62  CA        -3.8320   33.7590   -1.0340 C.3    81  GLU81       0.1733
     63  C         -3.6010   32.6090   -0.0890 C.2    81  GLU81       0.2616
     64  O         -4.5480   32.0750    0.5000 O.2    81  GLU81      -0.2715
     65  CB        -3.5480   35.0880   -0.3180 C.3    81  GLU81       0.0429
     66  CG        -4.1100   35.2150    1.0790 C.3    81  GLU81       0.1163
     67  CD        -3.8780   36.6000    1.6930 C.2    81  GLU81       0.3649
     68  OE1       -4.8310   37.4170    1.6960 O.co2  81  GLU81      -0.2457
     69  OE2       -2.7540   36.8690    2.1900 O.co2  81  GLU81      -0.2457
     70  N         -2.3350   32.2240    0.0410 N.am   82  TYR82      -0.1960
     71  CA        -1.9480   31.0920    0.8690 C.3    82  TYR82       0.1771
     72  C         -1.4680   31.5400    2.2440 C.2    82  TYR82       0.2619
     73  O         -0.6290   32.4390    2.3560 O.2    82  TYR82      -0.2715
     74  CB        -0.8590   30.2760    0.1680 C.3    82  TYR82       0.0574
     75  CG        -0.2780   29.1920    1.0290 C.ar   82  TYR82      -0.0198
     76  CD1       -1.0070   28.0440    1.3090 C.ar   82  TYR82      -0.0009
     77  CD2        1.0010   29.3120    1.5630 C.ar   82  TYR82      -0.0009
     78  CE1       -0.4810   27.0410    2.1060 C.ar   82  TYR82       0.0417
     79  CE2        1.5410   28.3120    2.3640 C.ar   82  TYR82       0.0417
     80  CZ         0.7940   27.1810    2.6270 C.ar   82  TYR82       0.1957
     81  OH         1.3140   26.1830    3.4150 O.3    82  TYR82      -0.2866
     82  N         -1.9990   30.9110    3.2890 N.am   83  MET83      -0.1977
     83  CA        -1.6060   31.2470    4.6530 C.3    83  MET83       0.1605
     84  C         -0.7740   30.1210    5.2580 C.2    83  MET83       0.2287
     85  O         -1.2590   29.0150    5.4790 O.2    83  MET83      -0.2864
     86  CB        -2.8380   31.5370    5.5090 C.3    83  MET83       0.0413
     87  CG        -3.7650   32.6150    4.9180 C.3    83  MET83       0.0598
     88  SD        -2.9900   34.2460    4.8600 S.3    83  MET83      -0.1393
     89  CE        -2.8080   34.6210    6.6050 C.3    83  MET83       0.0692
     90  N         -1.5440   27.9230    8.7900 N.3    86  GLY86      -0.1210
     91  CA        -2.8140   27.2260    8.9950 C.3    86  GLY86       0.1956
     92  C         -3.8160   27.8970    9.9430 C.2    86  GLY86       0.2612
     93  O         -3.6620   29.0740   10.2720 O.2    86  GLY86      -0.2717
     94  N         -4.8380   27.1610   10.3940 N.am   87  SER87      -0.1952
     95  CA        -5.9130   27.7690   11.1820 C.3    87  SER87       0.1924
     96  C         -5.4010   28.2210   12.5380 C.2    87  SER87       0.2314
     97  O         -4.4940   27.6150   13.0930 O.2    87  SER87      -0.2863
     98  CB        -7.0990   26.8080   11.3500 C.3    87  SER87       0.2116
     99  OG        -6.8770   25.8110   12.3370 O.3    87  SER87      -0.2180
    100  N        -11.3630   28.4730   14.2150 N.3   132  ALA132     -0.1231
    101  CA       -11.1410   27.5130   13.1360 C.3   132  ALA132      0.1694
    102  C        -11.3550   28.1720   11.7650 C.2   132  ALA132      0.2592
    103  O        -10.9790   27.6120   10.7300 O.2   132  ALA132     -0.2718
    104  CB       -12.0720   26.2770   13.2970 C.3   132  ALA132      0.0304
    105  N        -11.9560   29.3570   11.7560 N.am  133  ASN133     -0.1974
    106  CA       -12.1350   30.1090   10.5080 C.3   133  ASN133      0.1688
    107  C        -11.1850   31.3070   10.3510 C.2   133  ASN133      0.2292
    108  O        -11.3590   32.1040    9.4550 O.2   133  ASN133     -0.2864
    109  CB       -13.5840   30.5820   10.3780 C.3   133  ASN133      0.1181
    110  CG       -14.5350   29.4380   10.0610 C.2   133  ASN133      0.2629
    111  OD1      -14.1420   28.4580    9.4400 O.2   133  ASN133     -0.2716
    112  ND2      -15.7710   29.5440   10.5090 N.am  133  ASN133     -0.0877
    113  N         -7.1130   32.3840    9.7600 N.3   135  LEU135     -0.1245
    114  CA        -5.8910   31.7810    9.2520 C.3   135  LEU135      0.1561
    115  C         -4.7020   32.6080    9.6910 C.2   135  LEU135      0.2260
    116  O         -4.7840   33.8280    9.8050 O.2   135  LEU135     -0.2867
    117  CB        -5.9350   31.6410    7.7300 C.3   135  LEU135      0.0270
    118  CG        -6.9680   30.6500    7.1840 C.3   135  LEU135      0.0019
    119  CD1       -7.0280   30.7460    5.6700 C.3   135  LEU135      0.0001
    120  CD2       -6.6610   29.2110    7.6280 C.3   135  LEU135      0.0001
    121  N        -11.2190   34.0890    7.3670 N.3   145  ALA145     -0.1231
    122  CA       -11.3990   33.2730    6.1780 C.3   145  ALA145      0.1694
    123  C        -12.7870   32.6420    6.1760 C.2   145  ALA145      0.2592
    124  O        -13.6210   32.9600    7.0310 O.2   145  ALA145     -0.2718
    125  CB       -10.3220   32.2000    6.1070 C.3   145  ALA145      0.0304
    126  N        -13.0110   31.7470    5.2160 N.am  146  ASP146     -0.1974
    127  CA       -14.2580   30.9940    5.0760 C.3   146  ASP146      0.1709
    128  C        -15.4940   31.8780    5.1290 C.2   146  ASP146      0.2293
    129  O        -16.1890   31.9400    6.1440 O.2   146  ASP146     -0.2864
    130  CB       -14.3540   29.9110    6.1520 C.3   146  ASP146      0.1436
    131  CG       -15.5540   28.9890    5.9540 C.2   146  ASP146      0.3671
    132  OD1      -16.2940   29.1370    4.9450 O.co2 146  ASP146     -0.2456
    133  OD2      -15.7520   28.0930    6.8060 O.co2 146  ASP146     -0.2456
@<TRIPOS>BOND
     1    41    40    2
     2    54    55    1
     3    40    39    1
     4    36    35    2
     5    38    39    1
     6    35    34    1
     7    57    56    2
     8    55    56    1
     9    55    58    1
    10    33    34    1
    11    39    42    1
    12    56    61   am
    13    34    37    1
    14    42    43    1
    15    60    58    1
    16    61    62    1
    17    58    59    1
    18    62    65    1
    19    62    63    1
    20    43    44    1
    21    65    66    1
    22    63    70   am
    23    63    64    2
    24    28    27    1
    25    28    29    2
    26    70    71    1
    27    44    45    1
    28    45    46    1
    29    74    71    1
    30    74    75    1
    31    27    26    1
    32    27    30    1
    33    71    72    1
    34    75    76   ar
    35    75    77   ar
    36    66    67    1
    37    31    30    1
    38    76    78   ar
    39    30    32    1
    40    50    49    2
    41    77    79   ar
    42    67    68   ar
    43    67    69   ar
    44    49    48    1
    45     7     6    1
    46    78    80   ar
    47    52    51    1
    48    72    73    2
    49    72    82   am
    50    79    80   ar
    51    20    19    2
    52     1     2    1
    53     6     8    1
    54     6     5    1
    55    80    81    1
    56    12    11    2
    57    48    51    1
    58    48    47    1
    59    17    14    1
    60    17    18    1
    61    82    83    1
    62    51    53    1
    63    25    24    2
    64     5     2    1
    65    19    18    1
    66    19    21   am
    67     2     3    1
    68    14    13    1
    69    14    15    1
    70    11    13   am
    71    11    10    1
    72     9     3   am
    73     9    10    1
    74    22    15   am
    75    22    23    1
    76    24    23    1
    77    15    16    2
    78    83    84    1
    79    83    86    1
    80     3     4    2
    81    88    87    1
    82    88    89    1
    83    87    86    1
    84   132   131   ar
    85   127   128    1
    86   127   126    1
    87   127   130    1
    88   128   129    2
    89   126   123   am
    90    84    85    2
    91   119   118    1
    92   131   130    1
    93   131   133   ar
    94   125   122    1
    95   123   122    1
    96   123   124    2
    97   122   121    1
    98   118   120    1
    99   118   117    1
   100   117   114    1
   101    90    91    1
   102    91    92    1
   103   114   115    1
   104   114   113    1
   105   111   110    2
   106   108   107    2
   107   115   116    2
   108    92    93    2
   109    92    94   am
   110   110   109    1
   111   110   112   am
   112   107   106    1
   113   109   106    1
   114    94    95    1
   115   106   105    1
   116   103   102    2
   117    95    98    1
   118    95    96    1
   119    98    99    1
   120   105   102   am
   121   102   101    1
   122    96    97    2
   123   101   104    1
   124   101   100    1
