@<TRIPOS>MOLECULE
tmp/4u5kA00.pdb
 142 139 0 0 0
SMALL
GASTEIGER

@<TRIPOS>ATOM
      1  N         15.4830    3.3780  -33.4920 N.3    21  ASN21      -0.1240
      2  CA        15.7400    4.8150  -33.5090 C.3    21  ASN21       0.1653
      3  C         14.9240    5.6130  -34.5120 C.2    21  ASN21       0.2266
      4  O         15.4340    6.5110  -35.1880 O.2    21  ASN21      -0.2867
      5  CB        17.2280    5.0700  -33.7260 C.3    21  ASN21       0.1155
      6  CG        18.0650    4.6520  -32.5310 C.2    21  ASN21       0.2627
      7  OD1       19.2650    4.8390  -32.5200 O.2    21  ASN21      -0.2716
      8  ND2       17.4250    4.0930  -31.5170 N.am   21  ASN21      -0.0877
      9  N         16.7630   11.1160  -35.3540 N.3    31  TRP31      -0.1241
     10  CA        17.8320   10.1350  -35.1820 C.3    31  TRP31       0.1605
     11  C         18.0860    9.4390  -36.5100 C.2    31  TRP31       0.2264
     12  O         18.7450    9.9920  -37.3800 O.2    31  TRP31      -0.2867
     13  CB        17.4700    9.1130  -34.0970 C.3    31  TRP31       0.0550
     14  CG        17.5880    9.6500  -32.6860 C.ar   31  TRP31       0.0003
     15  CD1       17.9560   10.9120  -32.3120 C.ar   31  TRP31       0.0946
     16  CD2       17.3100    8.9410  -31.4680 C.ar   31  TRP31       0.0152
     17  NE1       17.9230   11.0340  -30.9410 N.ar   31  TRP31      -0.2442
     18  CE2       17.5300    9.8400  -30.3990 C.ar   31  TRP31       0.0810
     19  CE3       16.8930    7.6340  -31.1770 C.ar   31  TRP31       0.0012
     20  CZ2       17.3470    9.4740  -29.0620 C.ar   31  TRP31       0.0191
     21  CZ3       16.7130    7.2710  -29.8420 C.ar   31  TRP31       0.0001
     22  CH2       16.9390    8.1910  -28.8030 C.ar   31  TRP31       0.0015
     23  N          8.8760   -4.8920  -35.0020 N.3    52  ARG52      -0.1245
     24  CA         8.5770   -4.1860  -33.7700 C.3    52  ARG52       0.1563
     25  C          8.7940   -2.7120  -34.0600 C.2    52  ARG52       0.2260
     26  O          9.8230   -2.3320  -34.6120 O.2    52  ARG52      -0.2867
     27  CB         9.5290   -4.6680  -32.6790 C.3    52  ARG52       0.0307
     28  CG         9.3580   -4.0310  -31.3240 C.3    52  ARG52       0.0489
     29  CD        10.0220   -4.9030  -30.2880 C.3    52  ARG52       0.2205
     30  NE         9.8390   -4.4270  -28.9220 N.pl3  52  ARG52      -0.0865
     31  CZ        10.6970   -3.6410  -28.2820 C.cat  52  ARG52       0.5346
     32  NH1       11.8050   -3.2330  -28.8890 N.pl3  52  ARG52       0.1354
     33  NH2       10.4580   -3.2850  -27.0260 N.pl3  52  ARG52       0.1354
     34  N          8.1420    3.4270  -25.8090 N.3    96  HIS96      -0.1226
     35  CA         9.5880    3.3100  -25.7350 C.3    96  HIS96       0.1752
     36  C         10.1770    4.6600  -25.3220 C.2    96  HIS96       0.2596
     37  O          9.7720    5.7000  -25.8460 O.2    96  HIS96      -0.2718
     38  CB        10.1140    2.9080  -27.1210 C.3    96  HIS96       0.0759
     39  CG        11.3800    2.1140  -27.0930 C.ar   96  HIS96       0.0818
     40  ND1       11.4190    0.7700  -27.3980 N.ar   96  HIS96      -0.2268
     41  CD2       12.6580    2.4840  -26.8540 C.ar   96  HIS96       0.1154
     42  CE1       12.6690    0.3490  -27.3560 C.ar   96  HIS96       0.1986
     43  NE2       13.4410    1.3700  -27.0290 N.ar   96  HIS96      -0.2212
     44  N         11.1240    4.6450  -24.3870 N.am   97  HIS97      -0.1975
     45  CA        11.7660    5.8760  -23.9320 C.3    97  HIS97       0.1656
     46  C         10.8580    6.9170  -23.2800 C.2    97  HIS97       0.2291
     47  O         11.2490    8.0730  -23.1020 O.2    97  HIS97      -0.2864
     48  CB        12.5350    6.5100  -25.0870 C.3    97  HIS97       0.0771
     49  CG        13.7140    5.7020  -25.5210 C.ar   97  HIS97       0.0820
     50  ND1       13.9880    5.4220  -26.8440 N.ar   97  HIS97      -0.2267
     51  CD2       14.6970    5.1130  -24.8020 C.ar   97  HIS97       0.1154
     52  CE1       15.0900    4.6980  -26.9190 C.ar   97  HIS97       0.1986
     53  NE2       15.5400    4.4970  -25.6940 N.ar   97  HIS97      -0.2212
     54  N          8.5120   -0.6970  -23.1130 N.3   136  ASN136     -0.1225
     55  CA         9.7760   -1.2830  -23.5340 C.3   136  ASN136      0.1785
     56  C         10.6090   -1.9830  -22.4600 C.2   136  ASN136      0.2597
     57  O         10.8150   -3.2010  -22.5080 O.2   136  ASN136     -0.2718
     58  CB        10.6330   -0.2220  -24.2180 C.3   136  ASN136      0.1169
     59  CG        12.0220   -0.7290  -24.5640 C.2   136  ASN136      0.2627
     60  OD1       12.1870   -1.8230  -25.1040 O.2   136  ASN136     -0.2716
     61  ND2       13.0280    0.0730  -24.2570 N.am  136  ASN136     -0.0877
     62  N         11.1090   -1.2150  -21.5050 N.am  137  GLU137     -0.1979
     63  CA        11.9260   -1.7930  -20.4580 C.3   137  GLU137      0.1602
     64  C         11.4640   -1.3100  -19.1000 C.2   137  GLU137      0.2287
     65  O         12.0000   -0.3510  -18.5480 O.2   137  GLU137     -0.2864
     66  CB        13.3880   -1.4470  -20.7220 C.3   137  GLU137      0.0415
     67  CG        13.7920   -1.8920  -22.1260 C.3   137  GLU137      0.1163
     68  CD        15.2570   -1.6960  -22.4520 C.2   137  GLU137      0.3649
     69  OE1       15.7560   -0.5500  -22.4080 O.co2 137  GLU137     -0.2457
     70  OE2       15.9120   -2.7060  -22.7770 O.co2 137  GLU137     -0.2457
     71  N         14.5980   -8.7550  -21.9640 N.3   196  HIS196     -0.1226
     72  CA        15.6400   -7.9420  -22.5820 C.3   196  HIS196      0.1752
     73  C         16.8360   -8.0300  -21.6530 C.2   196  HIS196      0.2596
     74  O         16.7070   -8.4400  -20.4990 O.2   196  HIS196     -0.2718
     75  CB        15.1950   -6.4770  -22.6760 C.3   196  HIS196      0.0759
     76  CG        14.1240   -6.2250  -23.6930 C.ar  196  HIS196      0.0818
     77  ND1       14.4030   -5.9170  -25.0090 N.ar  196  HIS196     -0.2268
     78  CD2       12.7730   -6.2400  -23.5910 C.ar  196  HIS196      0.1154
     79  CE1       13.2710   -5.7530  -25.6720 C.ar  196  HIS196      0.1986
     80  NE2       12.2680   -5.9440  -24.8340 N.ar  196  HIS196     -0.2212
     81  N         18.0050   -7.6520  -22.1430 N.am  197  TYR197     -0.1976
     82  CA        19.1800   -7.6780  -21.2900 C.3   197  TYR197      0.1639
     83  C         19.1050   -6.4910  -20.3430 C.2   197  TYR197      0.2290
     84  O         18.9090   -5.3580  -20.7780 O.2   197  TYR197     -0.2864
     85  CB        20.4640   -7.5960  -22.1210 C.3   197  TYR197      0.0560
     86  CG        21.6970   -7.3300  -21.2880 C.ar  197  TYR197     -0.0198
     87  CD1       22.0080   -6.0390  -20.8610 C.ar  197  TYR197     -0.0009
     88  CD2       22.5310   -8.3740  -20.8870 C.ar  197  TYR197     -0.0009
     89  CE1       23.1150   -5.7920  -20.0540 C.ar  197  TYR197      0.0417
     90  CE2       23.6420   -8.1410  -20.0790 C.ar  197  TYR197      0.0417
     91  CZ        23.9300   -6.8460  -19.6620 C.ar  197  TYR197      0.1957
     92  OH        25.0180   -6.6040  -18.8450 O.3   197  TYR197     -0.2866
     93  N         14.3130   -7.2480  -28.5970 N.3   242  ALA242     -0.1245
     94  CA        15.4890   -6.6720  -29.2420 C.3   242  ALA242      0.1562
     95  C         16.7570   -7.3020  -28.6910 C.2   242  ALA242      0.2260
     96  O         17.1690   -7.0020  -27.5710 O.2   242  ALA242     -0.2867
     97  CB        15.5160   -5.1670  -29.0260 C.3   242  ALA242      0.0290
     98  N         21.9740   -6.6270  -28.8460 N.3   245  VAL245     -0.1245
     99  CA        22.0470   -5.2210  -28.5250 C.3   245  VAL245      0.1561
    100  C         23.3980   -4.8020  -27.9400 C.2   245  VAL245      0.2260
    101  O         23.5170   -3.7390  -27.3320 O.2   245  VAL245     -0.2867
    102  CB        20.9170   -4.8770  -27.5350 C.3   245  VAL245      0.0252
    103  CG1       21.3770   -5.0870  -26.0850 C.3   245  VAL245      0.0019
    104  CG2       20.4450   -3.4920  -27.7820 C.3   245  VAL245      0.0019
    105  N         17.5820   -6.1840  -32.9600 N.3   275  TRP275     -0.1241
    106  CA        17.6440   -4.7400  -32.8120 C.3   275  TRP275      0.1605
    107  C         18.3900   -4.1500  -33.9930 C.2   275  TRP275      0.2264
    108  O         19.5350   -4.5210  -34.2500 O.2   275  TRP275     -0.2867
    109  CB        18.3610   -4.3510  -31.5190 C.3   275  TRP275      0.0550
    110  CG        18.4840   -2.8660  -31.3890 C.ar  275  TRP275      0.0003
    111  CD1       19.6230   -2.1260  -31.4870 C.ar  275  TRP275      0.0946
    112  CD2       17.4070   -1.9310  -31.2350 C.ar  275  TRP275      0.0152
    113  NE1       19.3240   -0.7860  -31.4110 N.ar  275  TRP275     -0.2442
    114  CE2       17.9720   -0.6370  -31.2570 C.ar  275  TRP275      0.0810
    115  CE3       16.0200   -2.0620  -31.0830 C.ar  275  TRP275      0.0012
    116  CZ2       17.2020    0.5200  -31.1330 C.ar  275  TRP275      0.0191
    117  CZ3       15.2550   -0.9140  -30.9580 C.ar  275  TRP275      0.0001
    118  CH2       15.8500    0.3640  -30.9840 C.ar  275  TRP275      0.0015
    119  N         19.5470   -0.6280  -35.3250 N.3   277  ASN277     -0.1240
    120  CA        19.8420    0.7710  -35.0750 C.3   277  ASN277      0.1653
    121  C         19.4150    1.6450  -36.2500 C.2   277  ASN277      0.2266
    122  O         18.8810    2.7380  -36.0670 O.2   277  ASN277     -0.2867
    123  CB        21.3490    0.8790  -34.8690 C.3   277  ASN277      0.1155
    124  CG        21.7460    2.1040  -34.1300 C.2   277  ASN277      0.2627
    125  OD1       21.1190    2.4690  -33.1420 O.2   277  ASN277     -0.2716
    126  ND2       22.8110    2.7440  -34.5800 N.am  277  ASN277     -0.0877
    127  N         27.3040    1.1570  -35.7540 N.3   284  ASP284     -0.1225
    128  CA        26.7440    0.4380  -34.6220 C.3   284  ASP284      0.1805
    129  C         26.1030   -0.9060  -34.8870 C.2   284  ASP284      0.2597
    130  O         26.7710   -1.8540  -35.3060 O.2   284  ASP284     -0.2718
    131  CB        25.7550    1.3540  -33.9080 C.3   284  ASP284      0.1424
    132  CG        26.4350    2.5640  -33.3230 C.2   284  ASP284      0.3668
    133  OD1       25.7470    3.4910  -32.8470 O.co2 284  ASP284     -0.2456
    134  OD2       27.6830    2.5780  -33.3440 O.co2 284  ASP284     -0.2456
    135  N         24.8040   -0.9750  -34.6210 N.am  285  MET285     -0.1979
    136  CA        24.0420   -2.1990  -34.7940 C.3   285  MET285      0.1605
    137  C         22.9260   -2.1050  -35.8430 C.2   285  MET285      0.2287
    138  O         21.7440   -2.2820  -35.5300 O.2   285  MET285     -0.2864
    139  CB        23.4780   -2.6290  -33.4310 C.3   285  MET285      0.0413
    140  CG        23.0670   -1.4690  -32.5110 C.3   285  MET285      0.0598
    141  SD        23.8640   -1.5010  -30.8630 S.3   285  MET285     -0.1393
    142  CE        23.2420   -0.0270  -30.1520 C.3   285  MET285      0.0692
@<TRIPOS>BOND
     1    12    11    2
     2    11    10    1
     3   121   122    2
     4   121   120    1
     5   137   138    2
     6   137   136    1
     7   127   128    1
     8     9    10    1
     9   119   120    1
    10   130   129    2
    11     4     3    2
    12    10    13    1
    13   120   123    1
    14    23    24    1
    15   129   128    1
    16   129   135   am
    17   123   124    1
    18   136   135    1
    19   136   139    1
    20   128   131    1
    21    26    25    2
    22   126   124   am
    23     3     2    1
    24   108   107    2
    25   124   125    2
    26    13    14    1
    27    25    24    1
    28   107   106    1
    29   131   132    1
    30    24    27    1
    31     5     2    1
    32     5     6    1
    33     2     1    1
    34   139   140    1
    35   134   132   ar
    36   132   133   ar
    37   105   106    1
    38   106   109    1
    39    14    15   ar
    40    14    16   ar
    41    27    28    1
    42     6     7    2
    43     6     8   am
    44   140   141    1
    45    15    17   ar
    46   109   110    1
    47   111   113   ar
    48   111   110   ar
    49    16    19   ar
    50    16    18   ar
    51   113   114   ar
    52   110   112   ar
    53    28    29    1
    54   114   112   ar
    55   114   116   ar
    56   112   115   ar
    57    19    21   ar
    58   116   118   ar
    59   115   117   ar
    60   118   117   ar
    61    17    18   ar
    62   141   142    1
    63    18    20   ar
    64    29    30    1
    65    21    22   ar
    66    94    97    1
    67    94    95    1
    68    94    93    1
    69    20    22   ar
    70    30    31    2
    71    32    31    1
    72    98    99    1
    73    95    96    2
    74    99   100    1
    75    99   102    1
    76    31    33    1
    77   100   101    2
    78   104   102    1
    79   102   103    1
    80    40    42   ar
    81    40    39   ar
    82    42    43   ar
    83    38    39    1
    84    38    35    1
    85    39    41   ar
    86    43    41   ar
    87    52    50   ar
    88    52    53   ar
    89    50    49   ar
    90    37    36    2
    91    34    35    1
    92    35    36    1
    93    53    51   ar
    94    79    77   ar
    95    79    80   ar
    96    49    48    1
    97    49    51   ar
    98    36    44   am
    99    60    59    2
   100    48    45    1
   101    77    76   ar
   102    80    78   ar
   103    59    61   am
   104    59    58    1
   105    44    45    1
   106    58    55    1
   107    45    46    1
   108    76    78   ar
   109    76    75    1
   110    55    54    1
   111    55    56    1
   112    46    47    2
   113    70    68   ar
   114    75    72    1
   115    72    71    1
   116    72    73    1
   117    57    56    2
   118    56    62   am
   119    68    69   ar
   120    68    67    1
   121    81    73   am
   122    81    82    1
   123    67    66    1
   124    85    82    1
   125    85    86    1
   126    73    74    2
   127    62    63    1
   128    82    83    1
   129    86    88   ar
   130    86    87   ar
   131    88    90   ar
   132    87    89   ar
   133    84    83    2
   134    66    63    1
   135    63    64    1
   136    90    91   ar
   137    89    91   ar
   138    91    92    1
   139    64    65    2
