@<TRIPOS>MOLECULE
tmp/4u5nA00.pdb
 164 153 0 0 0
SMALL
GASTEIGER

@<TRIPOS>ATOM
      1  N          8.8940   19.5680   -1.3590 N.3   169  LYS169     -0.1245
      2  CA         9.7790   20.6510   -0.9820 C.3   169  LYS169      0.1561
      3  C         11.0980   20.0610   -0.5030 C.2   169  LYS169      0.2260
      4  O         11.2870   18.8460   -0.5290 O.2   169  LYS169     -0.2867
      5  CB         9.1440   21.5210    0.1130 C.3   169  LYS169      0.0271
      6  CG         7.7840   22.0990   -0.2440 C.3   169  LYS169      0.0035
      7  CD         7.5930   23.4890    0.3770 C.3   169  LYS169      0.0206
      8  CE         6.8780   23.4360    1.7220 C.3   169  LYS169      0.1093
      9  NZ         6.7430   24.8150    2.2820 N.3   169  LYS169     -0.1314
     10  N          3.4680   27.2920   -2.4500 N.3   209  ASP209     -0.1239
     11  CA         3.8660   26.9430   -1.0990 C.3   209  ASP209      0.1674
     12  C          5.3730   27.1700   -0.9120 C.2   209  ASP209      0.2266
     13  O          6.1630   26.2310   -0.8550 O.2   209  ASP209     -0.2867
     14  CB         3.4910   25.4960   -0.7770 C.3   209  ASP209      0.1410
     15  CG         3.7290   25.1420    0.6940 C.2   209  ASP209      0.3668
     16  OD1        4.0220   26.0640    1.4950 O.co2 209  ASP209     -0.2456
     17  OD2        3.6110   23.9490    1.0530 O.co2 209  ASP209     -0.2456
     18  N         -6.3250   26.3600   -0.8290 N.3   244  ARG244     -0.1245
     19  CA        -4.9460   26.1710   -0.4010 C.3   244  ARG244      0.1563
     20  C         -4.0330   27.1340   -1.1810 C.2   244  ARG244      0.2260
     21  O         -3.1930   27.8180   -0.5960 O.2   244  ARG244     -0.2867
     22  CB        -4.4930   24.7190   -0.5940 C.3   244  ARG244      0.0307
     23  CG        -3.0370   24.4910   -0.2240 C.3   244  ARG244      0.0489
     24  CD        -2.8470   24.2540    1.2630 C.3   244  ARG244      0.2205
     25  NE        -3.8500   23.3260    1.7840 N.pl3 244  ARG244     -0.0865
     26  CZ        -3.8070   21.9950    1.6710 C.cat 244  ARG244      0.5346
     27  NH1       -2.7980   21.3950    1.0400 N.pl3 244  ARG244      0.1354
     28  NH2       -4.7900   21.2550    2.1830 N.pl3 244  ARG244      0.1354
     29  N         -1.9140   30.2680    0.1900 N.3   248  ASN248     -0.1240
     30  CA        -0.4650   30.4220    0.0850 C.3   248  ASN248      0.1653
     31  C         -0.0750   31.8050   -0.4390 C.2   248  ASN248      0.2266
     32  O          0.8860   32.4100    0.0290 O.2   248  ASN248     -0.2867
     33  CB         0.1260   29.3460   -0.8070 C.3   248  ASN248      0.1155
     34  CG         0.1030   27.9810   -0.1550 C.2   248  ASN248      0.2627
     35  OD1        0.0550   27.8680    1.0670 O.2   248  ASN248     -0.2716
     36  ND2        0.1170   26.9330   -0.9730 N.am  248  ASN248     -0.0877
     37  N         -1.6390   34.6670   -0.0940 N.3   250  VAL250     -0.1231
     38  CA        -1.7590   35.7580    0.8670 C.3   250  VAL250      0.1692
     39  C         -0.7200   35.6700    1.9950 C.2   250  VAL250      0.2593
     40  O         -0.6320   36.5780    2.8130 O.2   250  VAL250     -0.2718
     41  CB        -3.1700   35.8340    1.4770 C.3   250  VAL250      0.0266
     42  CG1       -4.1950   36.0750    0.3910 C.3   250  VAL250      0.0020
     43  CG2       -3.4920   34.5720    2.2780 C.3   250  VAL250      0.0020
     44  N          0.0830   34.6070    2.0450 N.am  251  THR251     -0.1939
     45  CA         1.2470   34.6280    2.9460 C.3   251  THR251      0.2028
     46  C          2.3870   35.4670    2.3470 C.2   251  THR251      0.2642
     47  O          3.4620   35.5840    2.9340 O.2   251  THR251     -0.2714
     48  CB         1.8100   33.2240    3.2420 C.3   251  THR251      0.1808
     49  OG1        2.3800   32.6790    2.0400 O.3   251  THR251     -0.2208
     50  CG2        0.7260   32.2880    3.8130 C.3   251  THR251      0.0379
     51  N          2.1530   36.0350    1.1730 N.am  252  GLY252     -0.1954
     52  CA         3.1800   36.7950    0.4800 C.3   252  GLY252      0.1869
     53  C          3.2160   38.2720    0.8450 C.2   252  GLY252      0.2309
     54  O          2.8720   38.6670    1.9610 O.2   252  GLY252     -0.2863
     55  N          2.2720   42.3740    0.5860 N.3   254  ASP254     -0.1239
     56  CA         1.0200   43.1010    0.5760 C.3   254  ASP254      0.1674
     57  C          0.5260   43.2740   -0.8590 C.2   254  ASP254      0.2266
     58  O         -0.6780   43.2480   -1.1140 O.2   254  ASP254     -0.2867
     59  CB         1.1810   44.4560    1.2810 C.3   254  ASP254      0.1410
     60  CG         1.5600   44.3140    2.7670 C.2   254  ASP254      0.3668
     61  OD1        1.0910   43.3660    3.4400 O.co2 254  ASP254     -0.2456
     62  OD2        2.3330   45.1630    3.2690 O.co2 254  ASP254     -0.2456
     63  N         -0.9070   39.8770   -1.8930 N.3   257  THR257     -0.1218
     64  CA        -2.1940   39.7740   -1.1980 C.3   257  THR257      0.1862
     65  C         -3.2630   40.6460   -1.8760 C.2   257  THR257      0.2287
     66  O         -4.4250   40.2270   -2.0420 O.2   257  THR257     -0.2866
     67  CB        -2.0730   40.1840    0.2880 C.3   257  THR257      0.1770
     68  OG1       -1.1440   39.3210    0.9530 O.3   257  THR257     -0.2211
     69  CG2       -3.4110   40.0770    0.9780 C.3   257  THR257      0.0375
     70  N        -11.3610   25.8300    8.2530 N.3   282  LYS282     -0.1231
     71  CA       -10.0610   26.0260    8.8830 C.3   282  LYS282      0.1693
     72  C         -9.1130   26.7860    7.9460 C.2   282  LYS282      0.2591
     73  O         -8.4970   27.7750    8.3410 O.2   282  LYS282     -0.2718
     74  CB        -9.4700   24.6680    9.2860 C.3   282  LYS282      0.0285
     75  CG        -8.1990   24.7190   10.1270 C.3   282  LYS282      0.0035
     76  CD        -7.0850   23.8770    9.5170 C.3   282  LYS282      0.0206
     77  CE        -7.4040   22.3870    9.5360 C.3   282  LYS282      0.1093
     78  NZ        -6.4980   21.5940    8.6270 N.3   282  LYS282     -0.1314
     79  N         -9.0240   26.3590    6.6910 N.am  283  GLU283     -0.1979
     80  CA        -8.1070   27.0200    5.7590 C.3   283  GLU283      0.1602
     81  C         -8.6240   28.3860    5.3170 C.2   283  GLU283      0.2287
     82  O         -7.8400   29.2510    4.9370 O.2   283  GLU283     -0.2864
     83  CB        -7.8380   26.1180    4.5540 C.3   283  GLU283      0.0415
     84  CG        -7.1610   24.7950    5.0070 C.3   283  GLU283      0.1163
     85  CD        -6.2240   24.1600    3.9710 C.2   283  GLU283      0.3649
     86  OE1       -6.0040   24.7410    2.8800 O.co2 283  GLU283     -0.2457
     87  OE2       -5.7260   23.0430    4.2540 O.co2 283  GLU283     -0.2457
     88  N         -7.4700   30.5790    8.2950 N.3   286  TRP286     -0.1241
     89  CA        -6.0360   30.7690    8.0920 C.3   286  TRP286      0.1605
     90  C         -5.7970   31.8640    7.0720 C.2   286  TRP286      0.2264
     91  O         -5.0150   32.7840    7.3020 O.2   286  TRP286     -0.2867
     92  CB        -5.3830   29.4600    7.6330 C.3   286  TRP286      0.0550
     93  CG        -3.9840   29.6100    7.1510 C.ar  286  TRP286      0.0003
     94  CD1       -2.9330   30.1430    7.8360 C.ar  286  TRP286      0.0946
     95  CD2       -3.4700   29.2090    5.8740 C.ar  286  TRP286      0.0152
     96  NE1       -1.7980   30.1040    7.0640 N.ar  286  TRP286     -0.2442
     97  CE2       -2.1010   29.5320    5.8560 C.ar  286  TRP286      0.0810
     98  CE3       -4.0390   28.6060    4.7440 C.ar  286  TRP286      0.0012
     99  CZ2       -1.2870   29.2750    4.7520 C.ar  286  TRP286      0.0191
    100  CZ3       -3.2230   28.3430    3.6430 C.ar  286  TRP286      0.0001
    101  CH2       -1.8670   28.6840    3.6570 C.ar  286  TRP286      0.0015
    102  N         -6.4800   35.1730    8.5200 N.3   289  SER289     -0.1202
    103  CA        -5.4360   35.5470    9.4580 C.3   289  SER289      0.2020
    104  C         -4.2610   36.1610    8.7220 C.2   289  SER289      0.2618
    105  O         -3.5640   37.0060    9.2760 O.2   289  SER289     -0.2717
    106  CB        -4.9670   34.3530   10.2810 C.3   289  SER289      0.2103
    107  OG        -4.0110   33.5890    9.5680 O.3   289  SER289     -0.2182
    108  N         -4.0550   35.7650    7.4670 N.am  290  ASN290     -0.1974
    109  CA        -2.9840   36.3690    6.6850 C.3   290  ASN290      0.1688
    110  C         -3.4110   37.6740    6.0290 C.2   290  ASN290      0.2292
    111  O         -2.6130   38.5990    5.8670 O.2   290  ASN290     -0.2864
    112  CB        -2.4700   35.3740    5.6430 C.3   290  ASN290      0.1181
    113  CG        -1.4420   34.4320    6.2280 C.2   290  ASN290      0.2629
    114  OD1       -0.4270   34.8680    6.7570 O.2   290  ASN290     -0.2716
    115  ND2       -1.7400   33.1450    6.2160 N.am  290  ASN290     -0.0877
    116  N         -3.3120   40.4570    8.5980 N.3   293  ALA293     -0.1231
    117  CA        -1.9270   40.8560    8.8500 C.3   293  ALA293      0.1694
    118  C         -1.4180   41.8150    7.7810 C.2   293  ALA293      0.2592
    119  O         -0.2380   42.1420    7.7580 O.2   293  ALA293     -0.2718
    120  CB        -1.0260   39.6430    8.9150 C.3   293  ALA293      0.0304
    121  N         -2.3030   42.2510    6.8900 N.am  294  GLY294     -0.1957
    122  CA        -1.9090   43.1550    5.8290 C.3   294  GLY294      0.1869
    123  C         -1.9600   44.6150    6.2480 C.2   294  GLY294      0.2309
    124  O         -1.9620   44.9350    7.4380 O.2   294  GLY294     -0.2863
    125  N         -9.0660   23.7390   16.0560 N.3   321  LYS321     -0.1245
    126  CA        -7.9810   24.1850   15.1870 C.3   321  LYS321      0.1561
    127  C         -8.3850   25.4290   14.3980 C.2   321  LYS321      0.2260
    128  O         -7.5790   26.3350   14.2140 O.2   321  LYS321     -0.2867
    129  CB        -7.5410   23.0650   14.2390 C.3   321  LYS321      0.0271
    130  CG        -6.6920   21.9980   14.9280 C.3   321  LYS321      0.0035
    131  CD        -6.6070   20.6980   14.1210 C.3   321  LYS321      0.0206
    132  CE        -5.7610   20.8610   12.8560 C.3   321  LYS321      0.1093
    133  NZ        -5.1670   19.5590   12.4000 N.3   321  LYS321     -0.1314
    134  N         -6.9220   29.4020   14.4570 N.3   325  GLU325     -0.1245
    135  CA        -6.7410   30.2670   13.2790 C.3   325  GLU325      0.1567
    136  C         -7.4520   31.6170   13.4440 C.2   325  GLU325      0.2260
    137  O         -6.9180   32.6680   13.0770 O.2   325  GLU325     -0.2867
    138  CB        -7.2590   29.5720   12.0110 C.3   325  GLU325      0.0388
    139  CG        -6.4440   28.3710   11.5720 C.3   325  GLU325      0.1160
    140  CD        -4.9530   28.6920   11.4490 C.2   325  GLU325      0.3649
    141  OE1       -4.6130   29.7690   10.9230 O.co2 325  GLU325     -0.2457
    142  OE2       -4.1200   27.8800   11.9060 O.co2 325  GLU325     -0.2457
    143  N         -5.5430   33.9240   15.7710 N.3   328  TRP328     -0.1241
    144  CA        -4.5030   34.5780   14.9830 C.3   328  TRP328      0.1605
    145  C         -5.0360   35.7330   14.1550 C.2   328  TRP328      0.2264
    146  O         -4.4860   36.8200   14.2050 O.2   328  TRP328     -0.2867
    147  CB        -3.8010   33.5830   14.0670 C.3   328  TRP328      0.0550
    148  CG        -2.6800   32.8650   14.7480 C.ar  328  TRP328      0.0003
    149  CD1       -2.6510   31.5490   15.1260 C.ar  328  TRP328      0.0946
    150  CD2       -1.4240   33.4260   15.1490 C.ar  328  TRP328      0.0152
    151  NE1       -1.4480   31.2570   15.7300 N.ar  328  TRP328     -0.2442
    152  CE2       -0.6780   32.3900   15.7560 C.ar  328  TRP328      0.0810
    153  CE3       -0.8540   34.6970   15.0470 C.ar  328  TRP328      0.0012
    154  CZ2        0.6040   32.5910   16.2610 C.ar  328  TRP328      0.0191
    155  CZ3        0.4220   34.8960   15.5500 C.ar  328  TRP328      0.0001
    156  CH2        1.1360   33.8470   16.1490 C.ar  328  TRP328      0.0015
    157  N         -3.7440   39.5210   14.6560 N.3   332  ASN332     -0.1240
    158  CA        -3.1490   40.2380   13.5290 C.3   332  ASN332      0.1653
    159  C         -3.9500   41.4850   13.1720 C.2   332  ASN332      0.2266
    160  O         -3.4030   42.5150   12.7700 O.2   332  ASN332     -0.2867
    161  CB        -3.0300   39.3230   12.3110 C.3   332  ASN332      0.1155
    162  CG        -2.0470   38.2030   12.5310 C.2   332  ASN332      0.2627
    163  OD1       -1.2430   38.2500   13.4550 O.2   332  ASN332     -0.2716
    164  ND2       -2.1050   37.1820   11.6820 N.am  332  ASN332     -0.0877
@<TRIPOS>BOND
     1    10    11    1
     2    66    65    2
     3    63    64    1
     4    65    64    1
     5     1     2    1
     6    64    67    1
     7    20    21    2
     8    20    19    1
     9    58    57    2
    10    11    12    1
    11    11    14    1
    12     2     3    1
    13     2     5    1
    14    36    34   am
    15    12    13    2
    16    57    56    1
    17    18    19    1
    18    33    34    1
    19    33    30    1
    20    14    15    1
    21    22    19    1
    22    22    23    1
    23     4     3    2
    24    31    32    2
    25    31    30    1
    26     6     5    1
    27     6     7    1
    28    23    24    1
    29    34    35    2
    30    37    38    1
    31    30    29    1
    32    67    68    1
    33    67    69    1
    34     7     8    1
    35    42    41    1
    36    52    53    1
    37    52    51    1
    38    56    55    1
    39    56    59    1
    40    15    17   ar
    41    15    16   ar
    42    53    54    2
    43    38    41    1
    44    38    39    1
    45    27    26    1
    46    51    46   am
    47    24    25    1
    48    59    60    1
    49    41    43    1
    50    26    25    2
    51    26    28    1
    52     8     9    1
    53    39    44   am
    54    39    40    2
    55    49    48    1
    56    44    45    1
    57    46    47    2
    58    46    45    1
    59    60    62   ar
    60    60    61   ar
    61    86    85   ar
    62    45    48    1
    63    48    50    1
    64   100   101   ar
    65   100    98   ar
    66   101    99   ar
    67    85    87   ar
    68    85    84    1
    69    83    84    1
    70    83    80    1
    71    98    95   ar
    72    99    97   ar
    73    82    81    2
    74    81    80    1
    75   112   113    1
    76   112   109    1
    77    80    79    1
    78   122   123    1
    79   122   121    1
    80    97    95   ar
    81    97    96   ar
    82   111   110    2
    83    95    93   ar
    84   110   109    1
    85   115   113   am
    86   113   114    2
    87   123   124    2
    88   109   108    1
    89    79    72   am
    90   121   118   am
    91    96    94   ar
    92    90    91    2
    93    90    89    1
    94    93    92    1
    95    93    94   ar
    96   108   104   am
    97    92    89    1
    98   119   118    2
    99   118   117    1
   100    72    73    2
   101    72    71    1
   102    89    88    1
   103    70    71    1
   104   102   103    1
   105   116   117    1
   106    78    77    1
   107   104   105    2
   108   104   103    1
   109   117   120    1
   110    71    74    1
   111    74    75    1
   112   103   106    1
   113    76    77    1
   114    76    75    1
   115   107   106    1
   116   141   140   ar
   117   140   139    1
   118   140   142   ar
   119   139   138    1
   120   164   162   am
   121   138   135    1
   122   161   162    1
   123   161   158    1
   124   133   132    1
   125   162   163    2
   126   160   159    2
   127   132   131    1
   128   137   136    2
   129   159   158    1
   130   135   136    1
   131   135   134    1
   132   158   157    1
   133   147   148    1
   134   147   144    1
   135   131   130    1
   136   145   146    2
   137   145   144    1
   138   128   127    2
   139   129   130    1
   140   129   126    1
   141   127   126    1
   142   148   149   ar
   143   148   150   ar
   144   144   143    1
   145   153   150   ar
   146   153   155   ar
   147   149   151   ar
   148   150   152   ar
   149   126   125    1
   150   155   156   ar
   151   151   152   ar
   152   152   154   ar
   153   156   154   ar
