@<TRIPOS>MOLECULE
tmp/4u5oA00.pdb
 110 105 0 0 0
SMALL
GASTEIGER

@<TRIPOS>ATOM
      1  N         -1.1560   34.6400    0.3670 N.3   250  VAL250     -0.1231
      2  CA        -1.2750   35.7350    1.3290 C.3   250  VAL250      0.1692
      3  C         -0.2880   35.6100    2.4950 C.2   250  VAL250      0.2593
      4  O         -0.2850   36.4530    3.3950 O.2   250  VAL250     -0.2718
      5  CB        -2.6990   35.8400    1.8930 C.3   250  VAL250      0.0266
      6  CG1       -3.6700   36.1380    0.7720 C.3   250  VAL250      0.0020
      7  CG2       -3.0570   34.5630    2.6250 C.3   250  VAL250      0.0020
      8  N          0.5480   34.5740    2.4900 N.am  251  THR251     -0.1939
      9  CA         1.7130   34.5600    3.3880 C.3   251  THR251      0.2028
     10  C          2.8360   35.4180    2.8100 C.2   251  THR251      0.2642
     11  O          3.8620   35.6220    3.4590 O.2   251  THR251     -0.2714
     12  CB         2.2800   33.1550    3.6230 C.3   251  THR251      0.1808
     13  OG1        2.9060   32.6860    2.4150 O.3   251  THR251     -0.2208
     14  CG2        1.1890   32.1910    4.0760 C.3   251  THR251      0.0379
     15  N          2.6400   35.8960    1.5830 N.am  252  GLY252     -0.1954
     16  CA         3.6400   36.7020    0.8970 C.3   252  GLY252      0.1869
     17  C          3.6310   38.1880    1.2420 C.2   252  GLY252      0.2309
     18  O          3.2600   38.5780    2.3560 O.2   252  GLY252     -0.2863
     19  N          2.7840   42.3770    1.1070 N.3   254  ASP254     -0.1239
     20  CA         1.5520   43.1630    1.1510 C.3   254  ASP254      0.1674
     21  C          0.9670   43.3230   -0.2410 C.2   254  ASP254      0.2266
     22  O         -0.2560   43.3170   -0.4190 O.2   254  ASP254     -0.2867
     23  CB         1.8040   44.5400    1.7720 C.3   254  ASP254      0.1410
     24  CG         2.1300   44.4650    3.2520 C.2   254  ASP254      0.3668
     25  OD1        1.8520   43.4200    3.8820 O.co2 254  ASP254     -0.2456
     26  OD2        2.6630   45.4620    3.7910 O.co2 254  ASP254     -0.2456
     27  N         -0.5600   39.8990   -1.3210 N.3   257  THR257     -0.1218
     28  CA        -1.8590   39.8050   -0.6410 C.3   257  THR257      0.1862
     29  C         -2.9230   40.6900   -1.2930 C.2   257  THR257      0.2287
     30  O         -4.0760   40.2590   -1.4940 O.2   257  THR257     -0.2866
     31  CB        -1.7650   40.1900    0.8430 C.3   257  THR257      0.1770
     32  OG1       -0.7350   39.4340    1.4730 O.3   257  THR257     -0.2211
     33  CG2       -3.0700   39.8810    1.5610 C.3   257  THR257      0.0375
     34  N         -7.0790   30.3570    8.6020 N.3   286  TRP286     -0.1241
     35  CA        -5.6270   30.5550    8.5340 C.3   286  TRP286      0.1605
     36  C         -5.3400   31.6360    7.5140 C.2   286  TRP286      0.2264
     37  O         -4.4810   32.4950    7.7250 O.2   286  TRP286     -0.2867
     38  CB        -4.9120   29.2450    8.1610 C.3   286  TRP286      0.0550
     39  CG        -3.4650   29.4100    7.6780 C.ar  286  TRP286      0.0003
     40  CD1       -2.3930   29.8500    8.4120 C.ar  286  TRP286      0.0946
     41  CD2       -2.9560   29.1170    6.3700 C.ar  286  TRP286      0.0152
     42  NE1       -1.2560   29.8570    7.6360 N.ar  286  TRP286     -0.2442
     43  CE2       -1.5730   29.4110    6.3800 C.ar  286  TRP286      0.0810
     44  CE3       -3.5340   28.6440    5.1890 C.ar  286  TRP286      0.0012
     45  CZ2       -0.7640   29.2480    5.2530 C.ar  286  TRP286      0.0191
     46  CZ3       -2.7280   28.4770    4.0700 C.ar  286  TRP286      0.0001
     47  CH2       -1.3620   28.7820    4.1090 C.ar  286  TRP286      0.0015
     48  N         -6.1050   34.9490    8.8930 N.3   289  SER289     -0.1202
     49  CA        -5.1010   35.3280    9.8780 C.3   289  SER289      0.2020
     50  C         -3.9020   36.0050    9.2270 C.2   289  SER289      0.2618
     51  O         -3.2460   36.8310    9.8470 O.2   289  SER289     -0.2717
     52  CB        -4.6370   34.1110   10.6740 C.3   289  SER289      0.2103
     53  OG        -3.5960   33.4310    9.9970 O.3   289  SER289     -0.2182
     54  N         -3.6390   35.6680    7.9690 N.am  290  ASN290     -0.1974
     55  CA        -2.5450   36.2830    7.2300 C.3   290  ASN290      0.1688
     56  C         -2.9770   37.5860    6.5920 C.2   290  ASN290      0.2292
     57  O         -2.1590   38.4670    6.3450 O.2   290  ASN290     -0.2864
     58  CB        -1.9990   35.3230    6.1650 C.3   290  ASN290      0.1181
     59  CG        -0.9810   34.3490    6.7390 C.2   290  ASN290      0.2629
     60  OD1        0.1220   34.7450    7.1040 O.2   290  ASN290     -0.2716
     61  ND2       -1.3580   33.0780    6.8490 N.am  290  ASN290     -0.0877
     62  N         -2.9800   40.2830    9.2600 N.3   293  ALA293     -0.1231
     63  CA        -1.5960   40.6110    9.5860 C.3   293  ALA293      0.1694
     64  C         -1.0180   41.5720    8.5610 C.2   293  ALA293      0.2592
     65  O          0.1820   41.8530    8.5640 O.2   293  ALA293     -0.2718
     66  CB        -0.7450   39.3420    9.6530 C.3   293  ALA293      0.0304
     67  N         -1.8690   42.0780    7.6750 N.am  294  GLY294     -0.1957
     68  CA        -1.4040   42.9810    6.6420 C.3   294  GLY294      0.1869
     69  C         -1.5200   44.4550    7.0040 C.2   294  GLY294      0.2309
     70  O         -1.4790   44.8300    8.1730 O.2   294  GLY294     -0.2863
     71  N         -8.1560   28.0770   17.0940 N.3   324  LYS324     -0.1231
     72  CA        -6.7800   28.5190   17.2520 C.3   324  LYS324      0.1693
     73  C         -6.3780   29.4440   16.0980 C.2   324  LYS324      0.2591
     74  O         -5.7280   30.4700   16.3080 O.2   324  LYS324     -0.2718
     75  CB        -5.8440   27.3060   17.3400 C.3   324  LYS324      0.0285
     76  CG        -4.4610   27.6160   17.8940 C.3   324  LYS324      0.0035
     77  CD        -3.8260   26.3720   18.5260 C.3   324  LYS324      0.0206
     78  CE        -2.3570   26.6020   18.8630 C.3   324  LYS324      0.1093
     79  NZ        -1.7200   25.4170   19.5130 N.3   324  LYS324     -0.1314
     80  N         -6.7660   29.0990   14.8750 N.am  325  GLU325     -0.1979
     81  CA        -6.4890   29.9980   13.7500 C.3   325  GLU325      0.1602
     82  C         -7.1820   31.3570   13.9050 C.2   325  GLU325      0.2287
     83  O         -6.6090   32.3920   13.5680 O.2   325  GLU325     -0.2864
     84  CB        -6.9040   29.3530   12.4220 C.3   325  GLU325      0.0415
     85  CG        -6.0060   28.1900   12.0240 C.3   325  GLU325      0.1163
     86  CD        -4.5390   28.5820   12.0000 C.2   325  GLU325      0.3649
     87  OE1       -4.2350   29.7390   11.6240 O.co2 325  GLU325     -0.2457
     88  OE2       -3.6960   27.7390   12.3750 O.co2 325  GLU325     -0.2457
     89  N         -5.4150   33.5700   16.2670 N.3   328  TRP328     -0.1241
     90  CA        -4.3000   34.2210   15.5730 C.3   328  TRP328      0.1605
     91  C         -4.7740   35.3640   14.6880 C.2   328  TRP328      0.2264
     92  O         -4.1270   36.3990   14.6050 O.2   328  TRP328     -0.2867
     93  CB        -3.5090   33.2260   14.7200 C.3   328  TRP328      0.0550
     94  CG        -2.4700   32.4660   15.4660 C.ar  328  TRP328      0.0003
     95  CD1       -2.5300   31.1590   15.8540 C.ar  328  TRP328      0.0946
     96  CD2       -1.2030   32.9610   15.9110 C.ar  328  TRP328      0.0152
     97  NE1       -1.3700   30.8090   16.5090 N.ar  328  TRP328     -0.2442
     98  CE2       -0.5410   31.8980   16.5580 C.ar  328  TRP328      0.0810
     99  CE3       -0.5610   34.2020   15.8230 C.ar  328  TRP328      0.0012
    100  CZ2        0.7290   32.0350   17.1170 C.ar  328  TRP328      0.0191
    101  CZ3        0.7030   34.3380   16.3780 C.ar  328  TRP328      0.0001
    102  CH2        1.3300   33.2610   17.0190 C.ar  328  TRP328      0.0015
    103  N         -3.4300   39.2700   15.2890 N.3   332  ASN332     -0.1240
    104  CA        -2.8370   40.0070   14.1850 C.3   332  ASN332      0.1653
    105  C         -3.6230   41.2680   13.8620 C.2   332  ASN332      0.2266
    106  O         -3.0370   42.3200   13.5660 O.2   332  ASN332     -0.2867
    107  CB        -2.7330   39.1110   12.9420 C.3   332  ASN332      0.1155
    108  CG        -1.7620   37.9650   13.1440 C.2   332  ASN332      0.2627
    109  OD1       -0.9770   37.9660   14.0950 O.2   332  ASN332     -0.2716
    110  ND2       -1.8270   36.9660   12.2680 N.am  332  ASN332     -0.0877
@<TRIPOS>BOND
     1    30    29    2
     2    27    28    1
     3    29    28    1
     4    28    31    1
     5    22    21    2
     6    21    20    1
     7     1     2    1
     8     6     5    1
     9    31    32    1
    10    31    33    1
    11    16    17    1
    12    16    15    1
    13    19    20    1
    14    20    23    1
    15    17    18    2
    16     2     5    1
    17     2     3    1
    18    15    10   am
    19    23    24    1
    20     5     7    1
    21    13    12    1
    22     8     3   am
    23     8     9    1
    24     3     4    2
    25    10     9    1
    26    10    11    2
    27    24    26   ar
    28    24    25   ar
    29     9    12    1
    30    12    14    1
    31    46    47   ar
    32    46    44   ar
    33    47    45   ar
    34    44    41   ar
    35    45    43   ar
    36    58    59    1
    37    58    55    1
    38    57    56    2
    39    41    43   ar
    40    41    39   ar
    41    43    42   ar
    42    56    55    1
    43    68    69    1
    44    68    67    1
    45    59    61   am
    46    59    60    2
    47    69    70    2
    48    55    54    1
    49    36    37    2
    50    36    35    1
    51    42    40   ar
    52    67    64   am
    53    39    38    1
    54    39    40   ar
    55    54    50   am
    56    38    35    1
    57    35    34    1
    58    64    65    2
    59    64    63    1
    60    48    49    1
    61    50    51    2
    62    50    49    1
    63    62    63    1
    64    63    66    1
    65    49    52    1
    66    53    52    1
    67    87    86   ar
    68    86    85    1
    69    86    88   ar
    70    85    84    1
    71   110   108   am
    72    84    81    1
    73   107   108    1
    74   107   104    1
    75   108   109    2
    76   106   105    2
    77    83    82    2
    78    81    82    1
    79    81    80    1
    80   105   104    1
    81   104   103    1
    82    92    91    2
    83    91    90    1
    84    93    94    1
    85    93    90    1
    86    80    73   am
    87    94    95   ar
    88    94    96   ar
    89    90    89    1
    90    99    96   ar
    91    99   101   ar
    92    95    97   ar
    93    96    98   ar
    94    73    74    2
    95    73    72    1
    96   101   102   ar
    97    97    98   ar
    98    98   100   ar
    99   102   100   ar
   100    71    72    1
   101    72    75    1
   102    75    76    1
   103    76    77    1
   104    77    78    1
   105    78    79    1
