@<TRIPOS>MOLECULE
tmp/4u5qA00.pdb
 79 78 0 0 0
SMALL
GASTEIGER

@<TRIPOS>ATOM
      1  N        -57.8850   56.5040  207.5980 N.3   334  TRP334     -0.1241
      2  CA       -57.8250   57.5830  206.6180 C.3   334  TRP334      0.1605
      3  C        -59.2130   57.9610  206.1100 C.2   334  TRP334      0.2264
      4  O        -59.5110   59.1490  205.9340 O.2   334  TRP334     -0.2867
      5  CB       -56.9230   57.1730  205.4560 C.3   334  TRP334      0.0550
      6  CG       -55.4720   57.0070  205.8630 C.ar  334  TRP334      0.0003
      7  CD1      -54.8580   57.5480  206.9590 C.ar  334  TRP334      0.0946
      8  CD2      -54.4610   56.2610  205.1680 C.ar  334  TRP334      0.0152
      9  NE1      -53.5290   57.1780  206.9950 N.ar  334  TRP334     -0.2442
     10  CE2      -53.2650   56.3900  205.9040 C.ar  334  TRP334      0.0810
     11  CE3      -54.4570   55.4800  204.0110 C.ar  334  TRP334      0.0012
     12  CZ2      -52.0790   55.7780  205.5080 C.ar  334  TRP334      0.0191
     13  CZ3      -53.2680   54.8880  203.6110 C.ar  334  TRP334      0.0001
     14  CH2      -52.1080   55.0320  204.3600 C.ar  334  TRP334      0.0015
     15  N        -62.0820   57.5700  207.7460 N.3   336  ILE336     -0.1231
     16  CA       -62.7930   58.2300  208.8390 C.3   336  ILE336      0.1692
     17  C        -62.2700   59.6470  209.0310 C.2   336  ILE336      0.2592
     18  O        -63.0480   60.5950  209.2140 O.2   336  ILE336     -0.2718
     19  CB       -62.6790   57.3970  210.1270 C.3   336  ILE336      0.0266
     20  CG1      -63.4720   56.0950  209.9790 C.3   336  ILE336      0.0019
     21  CG2      -63.1850   58.1890  211.3430 C.3   336  ILE336      0.0020
     22  CD1      -63.2570   55.1320  211.1410 C.3   336  ILE336      0.0001
     23  N        -60.9520   59.8200  208.9600 N.am  337  GLU337     -0.1966
     24  CA       -60.3570   61.1390  209.1220 C.3   337  GLU337      0.1733
     25  C        -60.6470   62.0540  207.9450 C.2   337  GLU337      0.2616
     26  O        -60.5980   63.2780  208.1020 O.2   337  GLU337     -0.2715
     27  CB       -58.8530   61.0020  209.3410 C.3   337  GLU337      0.0429
     28  CG       -58.5350   60.3910  210.6840 C.3   337  GLU337      0.1163
     29  CD       -57.1980   59.6810  210.7120 C.2   337  GLU337      0.3649
     30  OE1      -56.4380   59.7680  209.7190 O.co2 337  GLU337     -0.2457
     31  OE2      -56.9100   59.0360  211.7410 O.co2 337  GLU337     -0.2457
     32  N        -60.9660   61.4950  206.7770 N.am  338  ALA338     -0.1963
     33  CA       -61.4120   62.3150  205.6640 C.3   338  ALA338      0.1728
     34  C        -62.8400   62.8090  205.8320 C.2   338  ALA338      0.2617
     35  O        -63.2800   63.6530  205.0470 O.2   338  ALA338     -0.2715
     36  CB       -61.2940   61.5370  204.3510 C.3   338  ALA338      0.0334
     37  N        -63.5740   62.3060  206.8170 N.am  339  GLY339     -0.1940
     38  CA       -64.9330   62.7440  207.0560 C.3   339  GLY339      0.2014
     39  C        -66.0120   61.8610  206.4720 C.2   339  GLY339      0.2638
     40  O        -67.1900   62.2370  206.5200 O.2   339  GLY339     -0.2714
     41  N        -65.6570   60.6960  205.9380 N.am  340  TYR340     -0.1973
     42  CA       -66.6540   59.8200  205.3490 C.3   340  TYR340      0.1639
     43  C        -67.5020   59.1630  206.4340 C.2   340  TYR340      0.2290
     44  O        -67.0370   58.9540  207.5590 O.2   340  TYR340     -0.2864
     45  CB       -65.9730   58.7560  204.4940 C.3   340  TYR340      0.0560
     46  CG       -65.4330   59.3140  203.2130 C.ar  340  TYR340     -0.0198
     47  CD1      -66.2460   60.0620  202.3730 C.ar  340  TYR340     -0.0009
     48  CD2      -64.1010   59.1140  202.8390 C.ar  340  TYR340     -0.0009
     49  CE1      -65.7610   60.5870  201.1930 C.ar  340  TYR340      0.0417
     50  CE2      -63.6120   59.6360  201.6570 C.ar  340  TYR340      0.0417
     51  CZ       -64.4510   60.3730  200.8390 C.ar  340  TYR340      0.1957
     52  OH       -63.9890   60.9060  199.6620 O.3   340  TYR340     -0.2866
     53  N        -52.5320   57.8820  201.9010 N.3   413  ALA413     -0.1231
     54  CA       -53.9530   58.2020  202.0050 C.3   413  ALA413      0.1679
     55  C        -54.6270   58.5970  200.6890 C.2   413  ALA413      0.2434
     56  O        -55.7540   58.1270  200.4500 O.2   413  ALA413     -0.2733
     57  CB       -54.1530   59.2910  203.0730 C.3   413  ALA413      0.0304
     58  N        -54.0390   59.4330  199.8210 N.am  414  PRO414     -0.2729
     59  CA       -54.7630   59.8110  198.5910 C.3   414  PRO414      0.1401
     60  C        -55.2150   58.6260  197.7660 C.2   414  PRO414      0.2269
     61  O        -56.2930   58.6780  197.1650 O.2   414  PRO414     -0.2865
     62  CB       -53.7420   60.6600  197.8280 C.3   414  PRO414      0.0296
     63  CG       -52.8640   61.2160  198.8940 C.3   414  PRO414      0.0237
     64  CD       -52.7650   60.1600  199.9410 C.3   414  PRO414      0.0939
     65  N        -58.4580   57.2770  199.5760 N.3   417  ILE417     -0.1245
     66  CA       -59.5960   58.1910  199.4390 C.3   417  ILE417      0.1561
     67  C        -60.1000   58.1860  198.0030 C.2   417  ILE417      0.2260
     68  O        -61.3170   58.2910  197.7520 O.2   417  ILE417     -0.2867
     69  CB       -59.2130   59.6110  199.9100 C.3   417  ILE417      0.0252
     70  CG1      -59.4090   59.7570  201.4250 C.3   417  ILE417      0.0019
     71  CG2      -60.0780   60.6740  199.2320 C.3   417  ILE417      0.0019
     72  CD1      -58.4730   58.9710  202.2610 C.3   417  ILE417      0.0001
     73  N        -63.8130   58.4060  195.8010 N.3   421  THR421     -0.1218
     74  CA       -64.0290   59.3590  194.7130 C.3   421  THR421      0.1862
     75  C        -64.5030   58.6540  193.4440 C.2   421  THR421      0.2287
     76  O        -65.4800   59.0760  192.8150 O.2   421  THR421     -0.2866
     77  CB       -62.7340   60.1420  194.4400 C.3   421  THR421      0.1770
     78  OG1      -62.3240   60.8160  195.6350 O.3   421  THR421     -0.2211
     79  CG2      -62.9540   61.1810  193.3360 C.3   421  THR421      0.0375
@<TRIPOS>BOND
     1    76    75    2
     2    79    77    1
     3    75    74    1
     4    77    74    1
     5    77    78    1
     6    74    73    1
     7    61    60    2
     8    68    67    2
     9    60    59    1
    10    62    59    1
    11    62    63    1
    12    67    66    1
    13    59    58    1
    14    63    64    1
    15    71    69    1
    16    66    65    1
    17    66    69    1
    18    52    51    1
    19    58    64    1
    20    58    55   am
    21    69    70    1
    22    56    55    2
    23    55    54    1
    24    51    49   ar
    25    51    50   ar
    26    49    47   ar
    27    70    72    1
    28    50    48   ar
    29    53    54    1
    30    54    57    1
    31    47    46   ar
    32    48    46   ar
    33    46    45    1
    34    13    11   ar
    35    13    14   ar
    36    11     8   ar
    37    36    33    1
    38    14    12   ar
    39    45    42    1
    40    35    34    2
    41     8     6   ar
    42     8    10   ar
    43    42    41    1
    44    42    43    1
    45     5     6    1
    46     5     2    1
    47    12    10   ar
    48    33    34    1
    49    33    32    1
    50    34    37   am
    51     6     7   ar
    52    10     9   ar
    53     4     3    2
    54    41    39   am
    55     3     2    1
    56    43    44    2
    57    39    40    2
    58    39    38    1
    59     2     1    1
    60    32    25   am
    61    37    38    1
    62     7     9   ar
    63    15    16    1
    64    25    26    2
    65    25    24    1
    66    16    17    1
    67    16    19    1
    68    23    17   am
    69    23    24    1
    70    17    18    2
    71    24    27    1
    72    27    28    1
    73    30    29   ar
    74    20    19    1
    75    20    22    1
    76    19    21    1
    77    28    29    1
    78    29    31   ar
