@<TRIPOS>MOLECULE
tmp/4u5qB00.pdb
 102 98 0 0 0
SMALL
GASTEIGER

@<TRIPOS>ATOM
      1  N        -59.1200   60.3970  218.5690 N.3     1  THR1       -0.1203
      2  CA       -59.1030   61.8250  218.8740 C.3     1  THR1        0.1994
      3  C        -57.6710   62.3260  219.0310 C.2     1  THR1        0.2618
      4  O        -57.4120   63.5310  218.9900 O.2     1  THR1       -0.2717
      5  CB       -59.8890   62.1510  220.1640 C.3     1  THR1        0.1784
      6  OG1      -59.3260   61.4230  221.2660 O.3     1  THR1       -0.2211
      7  CG2      -61.3650   61.7950  220.0120 C.3     1  THR1        0.0376
      8  N        -56.7390   61.4000  219.2140 N.am    2  GLU2       -0.1965
      9  CA       -55.3410   61.7460  219.4140 C.3     2  GLU2        0.1733
     10  C        -54.5920   61.6250  218.0920 C.2     2  GLU2        0.2616
     11  O        -54.8620   60.7240  217.2910 O.2     2  GLU2       -0.2715
     12  CB       -54.7110   60.8470  220.4780 C.3     2  GLU2        0.0429
     13  CG       -53.5780   61.5000  221.2400 C.3     2  GLU2        0.1163
     14  CD       -52.9760   60.5880  222.2880 C.2     2  GLU2        0.3649
     15  OE1      -52.4090   59.5410  221.9020 O.co2   2  GLU2       -0.2457
     16  OE2      -53.0500   60.9260  223.4920 O.co2   2  GLU2       -0.2457
     17  N        -53.6630   62.5470  217.8550 N.am    3  VAL3       -0.1977
     18  CA       -52.8870   62.5700  216.6220 C.3     3  VAL3        0.1596
     19  C        -51.4030   62.5880  216.9550 C.2     3  VAL3        0.2287
     20  O        -50.9630   63.3080  217.8580 O.2     3  VAL3       -0.2864
     21  CB       -53.2620   63.7730  215.7310 C.3     3  VAL3        0.0276
     22  CG1      -53.2920   65.0410  216.5490 C.3     3  VAL3        0.0022
     23  CG2      -52.2660   63.9100  214.5810 C.3     3  VAL3        0.0022
     24  N        -47.9970   60.8100  212.0610 N.3     7  ASP7       -0.1225
     25  CA       -49.0960   60.6450  211.1180 C.3     7  ASP7        0.1805
     26  C        -49.1680   61.7810  210.1130 C.2     7  ASP7        0.2597
     27  O        -49.8100   61.6300  209.0670 O.2     7  ASP7       -0.2718
     28  CB       -50.4250   60.5370  211.8640 C.3     7  ASP7        0.1424
     29  CG       -50.4670   59.3480  212.7980 C.2     7  ASP7        0.3668
     30  OD1      -49.9450   58.2760  212.4110 O.co2   7  ASP7       -0.2456
     31  OD2      -51.0110   59.4870  213.9150 O.co2   7  ASP7       -0.2456
     32  N        -48.5200   62.9070  210.4020 N.am    8  LEU8       -0.1979
     33  CA       -48.5880   64.0820  209.5390 C.3     8  LEU8        0.1596
     34  C        -47.4090   64.0530  208.5780 C.2     8  LEU8        0.2287
     35  O        -46.4280   64.7860  208.7150 O.2     8  LEU8       -0.2864
     36  CB       -48.6100   65.3520  210.3740 C.3     8  LEU8        0.0297
     37  CG       -49.9190   65.5310  211.1470 C.3     8  LEU8        0.0022
     38  CD1      -49.7870   66.6270  212.1750 C.3     8  LEU8        0.0001
     39  CD2      -51.0490   65.8270  210.1720 C.3     8  LEU8        0.0001
     40  N        -49.3830   62.0810  202.8960 N.3    12  ARG12      -0.1231
     41  CA       -50.8090   62.0190  203.1900 C.3    12  ARG12       0.1694
     42  C        -51.6140   62.9600  202.2980 C.2    12  ARG12       0.2592
     43  O        -52.8230   62.7520  202.1250 O.2    12  ARG12      -0.2718
     44  CB       -51.0600   62.3520  204.6600 C.3    12  ARG12       0.0321
     45  CG       -52.5190   62.2390  205.0860 C.3    12  ARG12       0.0489
     46  CD       -52.6940   62.6940  206.5270 C.3    12  ARG12       0.2205
     47  NE       -54.0480   62.4490  207.0060 N.pl3  12  ARG12      -0.0865
     48  CZ       -54.3870   61.4470  207.8080 C.cat  12  ARG12       0.5346
     49  NH1      -53.4630   60.5930  208.2370 N.pl3  12  ARG12       0.1354
     50  NH2      -55.6510   61.3040  208.1860 N.pl3  12  ARG12       0.1354
     51  N        -50.9650   63.9690  201.7030 N.am   13  PHE13      -0.1976
     52  CA       -51.6620   65.0160  200.9640 C.3    13  PHE13       0.1639
     53  C        -51.0800   65.2600  199.5790 C.2    13  PHE13       0.2290
     54  O        -51.8110   65.6390  198.6620 O.2    13  PHE13      -0.2864
     55  CB       -51.6330   66.3380  201.7450 C.3    13  PHE13       0.0560
     56  CG       -52.2400   66.2550  203.1080 C.ar   13  PHE13      -0.0200
     57  CD1      -53.6170   66.2790  203.2700 C.ar   13  PHE13      -0.0042
     58  CD2      -51.4400   66.1790  204.2290 C.ar   13  PHE13      -0.0042
     59  CE1      -54.1800   66.2120  204.5270 C.ar   13  PHE13      -0.0003
     60  CE2      -51.9980   66.1110  205.4940 C.ar   13  PHE13      -0.0003
     61  CZ       -53.3680   66.1270  205.6400 C.ar   13  PHE13      -0.0000
     62  N        -58.4180   71.1610  197.0160 N.3   111  PRO111     -0.2116
     63  CA       -57.3200   70.8230  196.0990 C.3   111  PRO111      0.1372
     64  C        -57.0040   71.9850  195.1680 C.2   111  PRO111      0.2244
     65  O        -57.9010   72.6460  194.6450 O.2   111  PRO111     -0.2868
     66  CB       -57.8650   69.6150  195.3230 C.3   111  PRO111      0.0268
     67  CG       -58.9100   69.0200  196.2310 C.3   111  PRO111      0.0207
     68  CD       -59.5270   70.1870  196.9460 C.3   111  PRO111      0.0892
     69  N        -59.8810   71.1240  212.3900 N.3   146  PHE146     -0.1227
     70  CA       -58.5360   70.5550  212.2690 C.3   146  PHE146      0.1736
     71  C        -58.2510   70.0600  210.8540 C.2   146  PHE146      0.2596
     72  O        -57.2770   70.4820  210.2210 O.2   146  PHE146     -0.2718
     73  CB       -58.3790   69.4180  213.2820 C.3   146  PHE146      0.0547
     74  CG       -57.0330   68.7490  213.2600 C.ar  146  PHE146     -0.0202
     75  CD1      -55.9460   69.3240  213.9020 C.ar  146  PHE146     -0.0042
     76  CD2      -56.8620   67.5290  212.6230 C.ar  146  PHE146     -0.0042
     77  CE1      -54.7020   68.6970  213.8910 C.ar  146  PHE146     -0.0003
     78  CE2      -55.6260   66.8950  212.6170 C.ar  146  PHE146     -0.0003
     79  CZ       -54.5450   67.4810  213.2460 C.ar  146  PHE146     -0.0000
     80  N        -59.0830   69.1540  210.3490 N.am  147  GLY147     -0.1957
     81  CA       -58.8820   68.5420  209.0580 C.3   147  GLY147      0.1869
     82  C        -58.6610   69.5320  207.9270 C.2   147  GLY147      0.2309
     83  O        -57.6270   69.5100  207.2480 O.2   147  GLY147     -0.2863
     84  N        -55.4270   71.6240  208.2890 N.3   150  VAL150     -0.1231
     85  CA       -54.2100   70.8820  207.9720 C.3   150  VAL150      0.1692
     86  C        -54.1120   70.6370  206.4710 C.2   150  VAL150      0.2591
     87  O        -53.0420   70.7960  205.8730 O.2   150  VAL150     -0.2718
     88  CB       -54.1710   69.5660  208.7680 C.3   150  VAL150      0.0266
     89  CG1      -52.9530   68.7440  208.3920 C.3   150  VAL150      0.0020
     90  CG2      -54.2090   69.8550  210.2680 C.3   150  VAL150      0.0020
     91  N        -55.2210   70.2550  205.8350 N.am  151  ALA151     -0.1980
     92  CA       -55.2110   70.1190  204.3820 C.3   151  ALA151      0.1597
     93  C        -54.8300   71.4330  203.7140 C.2   151  ALA151      0.2287
     94  O        -54.0970   71.4440  202.7160 O.2   151  ALA151     -0.2864
     95  CB       -56.5760   69.6400  203.8810 C.3   151  ALA151      0.0319
     96  N        -57.2090   66.1480  219.5780 N.3   200  VAL200     -0.1245
     97  CA       -58.0170   67.0340  218.7440 C.3   200  VAL200      0.1561
     98  C        -59.3670   67.2060  219.4330 C.2   200  VAL200      0.2260
     99  O        -60.2290   66.3240  219.3720 O.2   200  VAL200     -0.2867
    100  CB       -58.1700   66.4940  217.3220 C.3   200  VAL200      0.0252
    101  CG1      -58.9410   67.4860  216.4620 C.3   200  VAL200      0.0019
    102  CG2      -56.8050   66.1950  216.7190 C.3   200  VAL200      0.0019
@<TRIPOS>BOND
     1    65    64    2
     2    64    63    1
     3    66    63    1
     4    66    67    1
     5    63    62    1
     6    67    68    1
     7    68    62    1
     8    54    53    2
     9    53    52    1
    10    52    51    1
    11    52    55    1
    12    51    42   am
    13    55    56    1
    14    43    42    2
    15    42    41    1
    16    94    93    2
    17    40    41    1
    18    56    57   ar
    19    56    58   ar
    20    41    44    1
    21    57    59   ar
    22    93    92    1
    23    95    92    1
    24    58    60   ar
    25    92    91    1
    26    59    61   ar
    27    44    45    1
    28    45    46    1
    29    60    61   ar
    30    91    86   am
    31    87    86    2
    32    86    85    1
    33    46    47    1
    34    47    48    2
    35    83    82    2
    36    48    50    1
    37    48    49    1
    38    82    81    1
    39    85    84    1
    40    85    88    1
    41    89    88    1
    42    34    35    2
    43    34    33    1
    44    88    90    1
    45    81    80    1
    46    27    26    2
    47    33    36    1
    48    33    32    1
    49    26    32   am
    50    26    25    1
    51    39    37    1
    52    72    71    2
    53    80    71   am
    54    36    37    1
    55    71    70    1
    56    25    28    1
    57    25    24    1
    58    37    38    1
    59    28    29    1
    60    70    69    1
    61    70    73    1
    62    30    29   ar
    63    78    76   ar
    64    78    79   ar
    65    76    74   ar
    66    29    31   ar
    67    79    77   ar
    68    74    73    1
    69    74    75   ar
    70    77    75   ar
    71    23    21    1
    72    21    22    1
    73    21    18    1
    74   101   100    1
    75    18    19    1
    76    18    17    1
    77   102   100    1
    78    19    20    2
    79    11    10    2
    80   100    97    1
    81    17    10   am
    82    10     9    1
    83     1     2    1
    84    97    98    1
    85    97    96    1
    86     2     3    1
    87     2     5    1
    88     4     3    2
    89     3     8   am
    90     8     9    1
    91    99    98    2
    92     9    12    1
    93     7     5    1
    94     5     6    1
    95    12    13    1
    96    13    14    1
    97    15    14   ar
    98    14    16   ar
