@<TRIPOS>MOLECULE
tmp/4u5sA01.pdb
 200 194 0 0 0
SMALL
GASTEIGER

@<TRIPOS>ATOM
      1  N          3.7190   -2.0300  -24.5890 N.3    67  PHE67      -0.1241
      2  CA         2.5340   -1.6750  -23.8210 C.3    67  PHE67       0.1605
      3  C          2.4020   -2.4960  -22.5370 C.2    67  PHE67       0.2264
      4  O          2.1120   -1.9470  -21.4670 O.2    67  PHE67      -0.2867
      5  CB         1.2800   -1.8460  -24.6820 C.3    67  PHE67       0.0534
      6  CG        -0.0120   -1.7460  -23.9100 C.ar   67  PHE67      -0.0203
      7  CD1       -0.4710   -0.5220  -23.4570 C.ar   67  PHE67      -0.0042
      8  CD2       -0.7750   -2.8730  -23.6650 C.ar   67  PHE67      -0.0042
      9  CE1       -1.6610   -0.4250  -22.7580 C.ar   67  PHE67      -0.0003
     10  CE2       -1.9710   -2.7870  -22.9670 C.ar   67  PHE67      -0.0003
     11  CZ        -2.4170   -1.5570  -22.5140 C.ar   67  PHE67      -0.0000
     12  N          2.9330   -0.9330  -18.6570 N.3    71  TRP71      -0.1241
     13  CA         1.8680   -1.0370  -17.6710 C.3    71  TRP71       0.1605
     14  C          2.3490   -1.7590  -16.4000 C.2    71  TRP71       0.2264
     15  O          2.0360   -1.3350  -15.2810 O.2    71  TRP71      -0.2867
     16  CB         0.6800   -1.7520  -18.2920 C.3    71  TRP71       0.0550
     17  CG        -0.5850   -1.7520  -17.4880 C.ar   71  TRP71       0.0003
     18  CD1       -0.7360   -1.4270  -16.1660 C.ar   71  TRP71       0.0946
     19  CD2       -1.8910   -2.0990  -17.9630 C.ar   71  TRP71       0.0152
     20  NE1       -2.0460   -1.5670  -15.7910 N.ar   71  TRP71      -0.2442
     21  CE2       -2.7800   -1.9660  -16.8800 C.ar   71  TRP71       0.0810
     22  CE3       -2.3950   -2.5040  -19.2010 C.ar   71  TRP71       0.0012
     23  CZ2       -4.1410   -2.2280  -16.9940 C.ar   71  TRP71       0.0191
     24  CZ3       -3.7470   -2.7660  -19.3120 C.ar   71  TRP71       0.0001
     25  CH2       -4.6050   -2.6190  -18.2160 C.ar   71  TRP71       0.0015
     26  N          4.6590    0.6480  -14.5790 N.3    74  THR74      -0.1203
     27  CA         3.8660    1.7170  -13.9770 C.3    74  THR74       0.1994
     28  C          3.2910    1.2850  -12.6240 C.2    74  THR74       0.2617
     29  O          3.2660    2.0660  -11.6650 O.2    74  THR74      -0.2717
     30  CB         2.7160    2.1680  -14.9080 C.3    74  THR74       0.1784
     31  OG1        3.2560    2.7840  -16.0950 O.3    74  THR74      -0.2211
     32  CG2        1.8020    3.1570  -14.2030 C.3    74  THR74       0.0376
     33  N          2.8320    0.0370  -12.5430 N.am   75  ASN75      -0.1974
     34  CA         2.1950   -0.4280  -11.3210 C.3    75  ASN75       0.1688
     35  C          3.2070   -0.7820  -10.2370 C.2    75  ASN75       0.2292
     36  O          2.9050   -0.6380   -9.0600 O.2    75  ASN75      -0.2864
     37  CB         1.2610   -1.6110  -11.6150 C.3    75  ASN75       0.1181
     38  CG        -0.0750   -1.1500  -12.1620 C.2    75  ASN75       0.2629
     39  OD1       -0.2400    0.0270  -12.5020 O.2    75  ASN75      -0.2716
     40  ND2       -1.0350   -2.0550  -12.2410 N.am   75  ASN75      -0.0877
     41  N          6.1530    1.0090  -10.0420 N.3    77  ALA77      -0.1231
     42  CA         6.5940    2.3510   -9.6170 C.3    77  ALA77       0.1694
     43  C          5.5760    3.0800   -8.7380 C.2    77  ALA77       0.2593
     44  O          5.8980    4.0840   -8.0970 O.2    77  ALA77      -0.2718
     45  CB         6.9280    3.2220  -10.8340 C.3    77  ALA77       0.0304
     46  N          4.3440    2.5990   -8.7420 N.am   78  SER78      -0.1938
     47  CA         3.2880    3.1380   -7.8930 C.3    78  SER78       0.2055
     48  C          3.3740    2.6850   -6.4330 C.2    78  SER78       0.2644
     49  O          2.5810    3.1340   -5.6040 O.2    78  SER78      -0.2714
     50  CB         1.9230    2.7220   -8.4330 C.3    78  SER78       0.2130
     51  OG         1.6320    1.3630   -8.1420 O.3    78  SER78      -0.2179
     52  N          4.3010    1.7820   -6.1230 N.am   79  GLY79      -0.1939
     53  CA         4.3540    1.1780   -4.7980 C.3    79  GLY79       0.2014
     54  C          5.0860    2.0070   -3.7550 C.2    79  GLY79       0.2640
     55  O          4.9630    3.2330   -3.7050 O.2    79  GLY79      -0.2714
     56  N          5.8450    1.3270   -2.9060 N.am   80  THR80      -0.1936
     57  CA         6.6780    1.9900   -1.9150 C.3    80  THR80       0.2028
     58  C          7.8550    2.6830   -2.5740 C.2    80  THR80       0.2642
     59  O          8.1830    2.4010   -3.7270 O.2    80  THR80      -0.2714
     60  CB         7.2220    0.9840   -0.8880 C.3    80  THR80       0.1808
     61  OG1        8.0600    0.0490   -1.5710 O.3    80  THR80      -0.2208
     62  CG2        6.0830    0.2370   -0.2100 C.3    80  THR80       0.0379
     63  N          8.5140    3.5690   -1.8300 N.am   81  SER81      -0.1949
     64  CA         9.7340    4.2150   -2.3180 C.3    81  SER81       0.1924
     65  C         10.7950    3.2080   -2.7550 C.2    81  SER81       0.2314
     66  O         11.4870    3.4090   -3.7550 O.2    81  SER81      -0.2863
     67  CB        10.3260    5.1320   -1.2440 C.3    81  SER81       0.2116
     68  OG         9.4690    6.2280   -1.0020 O.3    81  SER81      -0.2180
     69  N          9.6540    1.8860   -6.1610 N.3    84  THR84      -0.1218
     70  CA         9.8450    2.9160   -7.1860 C.3    84  THR84       0.1862
     71  C         11.3220    3.0040   -7.5430 C.2    84  THR84       0.2287
     72  O         11.6910    3.0790   -8.7190 O.2    84  THR84      -0.2866
     73  CB         9.3180    4.2900   -6.7180 C.3    84  THR84       0.1770
     74  OG1        7.9390    4.1630   -6.3520 O.3    84  THR84      -0.2211
     75  CG2        9.4570    5.3380   -7.8140 C.3    84  THR84       0.0375
     76  N         -1.8530    4.7440  -26.3070 N.3   106  HIS106     -0.1241
     77  CA        -1.9420    4.0120  -25.0500 C.3   106  HIS106      0.1621
     78  C         -0.5690    3.7860  -24.4250 C.2   106  HIS106      0.2264
     79  O         -0.4410    3.6970  -23.2010 O.2   106  HIS106     -0.2867
     80  CB        -2.6670    2.6890  -25.2620 C.3   106  HIS106      0.0745
     81  CG        -4.1450    2.8500  -25.4340 C.ar  106  HIS106      0.0817
     82  ND1       -4.8960    2.0430  -26.2640 N.ar  106  HIS106     -0.2268
     83  CD2       -5.0090    3.7390  -24.8890 C.ar  106  HIS106      0.1154
     84  CE1       -6.1600    2.4230  -26.2140 C.ar  106  HIS106      0.1986
     85  NE2       -6.2560    3.4510  -25.3890 N.ar  106  HIS106     -0.2212
     86  N          0.5590    7.2270  -22.9880 N.3   109  GLU109     -0.1231
     87  CA        -0.1820    7.4460  -21.7490 C.3   109  GLU109      0.1699
     88  C          0.4270    6.7060  -20.5380 C.2   109  GLU109      0.2592
     89  O          0.4640    7.2350  -19.4120 O.2   109  GLU109     -0.2718
     90  CB        -1.6290    7.0100  -21.9570 C.3   109  GLU109      0.0402
     91  CG        -2.5850    7.4760  -20.8920 C.3   109  GLU109      0.1161
     92  CD        -4.0250    7.1800  -21.2470 C.2   109  GLU109      0.3649
     93  OE1       -4.2580    6.6630  -22.3730 O.co2 109  GLU109     -0.2457
     94  OE2       -4.9110    7.4740  -20.4040 O.co2 109  GLU109     -0.2457
     95  N          0.8870    5.4820  -20.7840 N.am  110  GLN110     -0.1979
     96  CA         1.6010    4.6950  -19.7970 C.3   110  GLN110      0.1601
     97  C          2.8450    5.4040  -19.3280 C.2   110  GLN110      0.2287
     98  O          3.1170    5.4510  -18.1340 O.2   110  GLN110     -0.2864
     99  CB         1.9970    3.3210  -20.3670 C.3   110  GLN110      0.0394
    100  CG         0.8600    2.3420  -20.4660 C.3   110  GLN110      0.0908
    101  CD         0.3040    1.9400  -19.1090 C.2   110  GLN110      0.2608
    102  OE1        0.8950    2.2150  -18.0630 O.2   110  GLN110     -0.2717
    103  NE2       -0.8250    1.2590  -19.1260 N.am  110  GLN110     -0.0878
    104  N          2.0850    8.2740  -17.1320 N.3   113  TRP113     -0.1241
    105  CA         1.6120    7.8330  -15.8230 C.3   113  TRP113      0.1605
    106  C          2.7840    7.3740  -14.9630 C.2   113  TRP113      0.2264
    107  O          2.8690    7.7000  -13.7840 O.2   113  TRP113     -0.2867
    108  CB         0.5890    6.7010  -15.9790 C.3   113  TRP113      0.0550
    109  CG        -0.3160    6.5260  -14.7910 C.ar  113  TRP113      0.0003
    110  CD1        0.0380    6.0860  -13.5320 C.ar  113  TRP113      0.0946
    111  CD2       -1.7220    6.7750  -14.7460 C.ar  113  TRP113      0.0152
    112  NE1       -1.0670    6.0560  -12.7170 N.ar  113  TRP113     -0.2442
    113  CE2       -2.1620    6.4660  -13.4380 C.ar  113  TRP113      0.0810
    114  CE3       -2.6610    7.2200  -15.6860 C.ar  113  TRP113      0.0012
    115  CZ2       -3.5000    6.5930  -13.0490 C.ar  113  TRP113      0.0191
    116  CZ3       -3.9840    7.3540  -15.2930 C.ar  113  TRP113      0.0001
    117  CH2       -4.3890    7.0460  -13.9850 C.ar  113  TRP113      0.0015
    118  N          5.0240   10.2540  -13.8250 N.3   116  GLY116     -0.1210
    119  CA         4.3430   10.8680  -12.6950 C.3   116  GLY116      0.1956
    120  C          4.5360   10.1130  -11.3750 C.2   116  GLY116      0.2611
    121  O          4.7780   10.7130  -10.3280 O.2   116  GLY116     -0.2717
    122  N          4.4010    8.7920  -11.4200 N.am  117  ASN117     -0.1974
    123  CA         4.6550    7.9440  -10.2600 C.3   117  ASN117      0.1688
    124  C          6.0750    8.0620   -9.7250 C.2   117  ASN117      0.2292
    125  O          6.2810    8.1490   -8.5150 O.2   117  ASN117     -0.2864
    126  CB         4.3800    6.4740  -10.5990 C.3   117  ASN117      0.1181
    127  CG         2.9240    6.1130  -10.4930 C.2   117  ASN117      0.2629
    128  OD1        2.1120    6.8970   -9.9950 O.2   117  ASN117     -0.2716
    129  ND2        2.5730    4.9020  -10.9720 N.am  117  ASN117     -0.0877
    130  N          6.5350   11.6000   -8.4200 N.3   120  GLY120     -0.1210
    131  CA         5.7130   11.6360   -7.2210 C.3   120  GLY120      0.1956
    132  C          6.3080   11.0040   -5.9650 C.2   120  GLY120      0.2611
    133  O          5.8060   11.2140   -4.8570 O.2   120  GLY120     -0.2717
    134  N          7.3800   10.2390   -6.1240 N.am  121  ASP121     -0.1973
    135  CA         8.0510    9.6170   -4.9860 C.3   121  ASP121      0.1709
    136  C          8.7050   10.6410   -4.0400 C.2   121  ASP121      0.2293
    137  O          8.6990   10.4540   -2.8340 O.2   121  ASP121     -0.2864
    138  CB         9.0980    8.6270   -5.4730 C.3   121  ASP121      0.1436
    139  CG         9.8270    7.9340   -4.3210 C.2   121  ASP121      0.3671
    140  OD1        9.1920    7.1010   -3.6420 O.co2 121  ASP121     -0.2456
    141  OD2       11.0260    8.2250   -4.0920 O.co2 121  ASP121     -0.2456
    142  N         -6.2760   14.5200  -18.1090 N.3   156  ARG156     -0.1231
    143  CA        -6.1510   14.4020  -16.6640 C.3   156  ARG156      0.1694
    144  C         -4.8380   13.7390  -16.2810 C.2   156  ARG156      0.2592
    145  O         -4.2030   14.1640  -15.3260 O.2   156  ARG156     -0.2718
    146  CB        -7.3240   13.6250  -16.0720 C.3   156  ARG156      0.0321
    147  CG        -8.6490   14.3460  -16.2070 C.3   156  ARG156      0.0489
    148  CD        -9.7970   13.3820  -15.9880 C.3   156  ARG156      0.2205
    149  NE       -11.0650   14.0110  -16.3180 N.pl3 156  ARG156     -0.0865
    150  CZ       -12.2430   13.3970  -16.2660 C.cat 156  ARG156      0.5346
    151  NH1      -12.3240   12.1220  -15.9000 N.pl3 156  ARG156      0.1354
    152  NH2      -13.3430   14.0590  -16.5970 N.pl3 156  ARG156      0.1354
    153  N         -4.4230   12.7190  -17.0430 N.am  157  ASN157     -0.1974
    154  CA        -3.1320   12.0420  -16.8350 C.3   157  ASN157      0.1688
    155  C         -1.9350   13.0130  -16.8990 C.2   157  ASN157      0.2292
    156  O         -1.1110   13.0820  -15.9670 O.2   157  ASN157     -0.2864
    157  CB        -2.9460   10.9110  -17.8760 C.3   157  ASN157      0.1181
    158  CG        -1.7330   10.0140  -17.5730 C.2   157  ASN157      0.2629
    159  OD1       -1.2900    9.9210  -16.4330 O.2   157  ASN157     -0.2716
    160  ND2       -1.2020    9.3580  -18.5950 N.am  157  ASN157     -0.0877
    161  N         -2.0250   15.5580  -14.0060 N.3   160  TRP160     -0.1227
    162  CA        -1.6010   14.9450  -12.7530 C.3   160  TRP160      0.1737
    163  C         -0.0700   14.8480  -12.6870 C.2   160  TRP160      0.2596
    164  O          0.5400   15.2280  -11.6910 O.2   160  TRP160     -0.2718
    165  CB        -2.2400   13.5660  -12.5950 C.3   160  TRP160      0.0564
    166  CG        -1.9390   12.8720  -11.2830 C.ar  160  TRP160      0.0003
    167  CD1       -0.7350   12.3760  -10.8770 C.ar  160  TRP160      0.0946
    168  CD2       -2.8700   12.5670  -10.2330 C.ar  160  TRP160      0.0152
    169  NE1       -0.8510   11.8010   -9.6350 N.ar  160  TRP160     -0.2442
    170  CE2       -2.1510   11.9000   -9.2170 C.ar  160  TRP160      0.0810
    171  CE3       -4.2440   12.7890  -10.0550 C.ar  160  TRP160      0.0012
    172  CZ2       -2.7570   11.4580   -8.0290 C.ar  160  TRP160      0.0191
    173  CZ3       -4.8450   12.3490   -8.8740 C.ar  160  TRP160      0.0001
    174  CH2       -4.0990   11.6860   -7.8800 C.ar  160  TRP160      0.0015
    175  N          0.5450   14.3670  -13.7630 N.am  161  THR161     -0.1953
    176  CA         2.0010   14.2270  -13.8350 C.3   161  THR161      0.1897
    177  C          2.7340   15.5850  -13.7520 C.2   161  THR161      0.2313
    178  O          3.7520   15.7180  -13.0400 O.2   161  THR161     -0.2863
    179  CB         2.4000   13.4540  -15.1400 C.3   161  THR161      0.1794
    180  OG1        2.0980   12.0570  -14.9740 O.3   161  THR161     -0.2208
    181  CG2        3.8720   13.6020  -15.4550 C.3   161  THR161      0.0378
    182  N          2.8940   16.7670  -10.2250 N.3   164  ASN164     -0.1240
    183  CA         3.9270   16.0900   -9.4340 C.3   164  ASN164      0.1653
    184  C          5.3280   16.6500   -9.6610 C.2   164  ASN164      0.2266
    185  O          6.1730   16.6080   -8.7560 O.2   164  ASN164     -0.2867
    186  CB         3.9340   14.5840   -9.7170 C.3   164  ASN164      0.1155
    187  CG         2.9770   13.8300   -8.8240 C.2   164  ASN164      0.2627
    188  OD1        2.2910   14.4260   -7.9980 O.2   164  ASN164     -0.2716
    189  ND2        2.9010   12.5220   -9.0070 N.am  164  ASN164     -0.0877
    190  N          5.5410   19.3720   -7.2040 N.3   167  ARG167     -0.1245
    191  CA         5.0260   19.0840   -5.8570 C.3   167  ARG167      0.1563
    192  C          5.8980   19.2460   -4.6000 C.2   167  ARG167      0.2260
    193  O          5.4550   19.8870   -3.6400 O.2   167  ARG167     -0.2867
    194  CB         4.4690   17.6650   -5.8230 C.3   167  ARG167      0.0307
    195  CG         3.8710   17.2920   -4.4810 C.3   167  ARG167      0.0489
    196  CD         2.8850   16.1520   -4.6490 C.3   167  ARG167      0.2205
    197  NE         2.2750   15.7670   -3.3810 N.pl3 167  ARG167     -0.0865
    198  CZ         1.2290   14.9530   -3.2800 C.cat 167  ARG167      0.5346
    199  NH1        0.6750   14.4440   -4.3710 N.pl3 167  ARG167      0.1354
    200  NH2        0.7360   14.6520   -2.0880 N.pl3 167  ARG167      0.1354
@<TRIPOS>BOND
     1    76    77    1
     2    82    84   ar
     3    82    81   ar
     4    84    85   ar
     5    81    80    1
     6    81    83   ar
     7    85    83   ar
     8    80    77    1
     9    77    78    1
    10     5     6    1
    11     5     2    1
    12     1     2    1
    13    78    79    2
    14     6     8   ar
    15     6     7   ar
    16     2     3    1
    17     8    10   ar
    18     7     9   ar
    19    86    87    1
    20    10    11   ar
    21     9    11   ar
    22     3     4    2
    23    93    92   ar
    24    90    87    1
    25    90    91    1
    26    87    88    1
    27    92    91    1
    28    92    94   ar
    29    95    88   am
    30    95    96    1
    31    88    89    2
    32   100    99    1
    33   100   101    1
    34    99    96    1
    35    96    97    1
    36    97    98    2
    37    24    22   ar
    38    24    25   ar
    39    22    19   ar
    40   103   101   am
    41   101   102    2
    42    12    13    1
    43   160   158   am
    44    16    13    1
    45    16    17    1
    46    25    23   ar
    47   142   143    1
    48    19    17   ar
    49    19    21   ar
    50   157   158    1
    51   157   154    1
    52    13    14    1
    53   158   159    2
    54    17    18   ar
    55   104   105    1
    56   153   154    1
    57   153   144   am
    58    23    21   ar
    59   155   154    1
    60   155   156    2
    61    21    20   ar
    62   143   144    1
    63   143   146    1
    64   152   150    1
    65    14    15    2
    66   149   150    2
    67   149   148    1
    68   144   145    2
    69   150   151    1
    70   147   146    1
    71   147   148    1
    72    18    20   ar
    73    31    30    1
    74   108   105    1
    75   108   109    1
    76   105   106    1
    77   114   116   ar
    78   114   111   ar
    79   181   179    1
    80   116   117   ar
    81   179   180    1
    82   179   176    1
    83   106   107    2
    84    30    32    1
    85    30    27    1
    86   109   111   ar
    87   109   110   ar
    88   111   113   ar
    89    26    27    1
    90   161   162    1
    91   117   115   ar
    92    27    28    1
    93   176   175    1
    94   176   177    1
    95   118   119    1
    96   175   163   am
    97   177   178    2
    98   110   112   ar
    99   113   115   ar
   100   113   112   ar
   101   162   163    1
   102   162   165    1
   103   119   120    1
   104   163   164    2
   105    28    33   am
   106    28    29    2
   107   165   166    1
   108    33    34    1
   109    39    38    2
   110    40    38   am
   111    38    37    1
   112    37    34    1
   113   122   120   am
   114   122   123    1
   115   120   121    2
   116    34    35    1
   117   166   167   ar
   118   166   168   ar
   119   129   127   am
   120   167   169   ar
   121    45    42    1
   122   126   127    1
   123   126   123    1
   124   127   128    2
   125   123   124    1
   126    35    36    2
   127   168   171   ar
   128   168   170   ar
   129   182   183    1
   130   171   173   ar
   131    41    42    1
   132   124   125    2
   133   186   183    1
   134   186   187    1
   135   184   183    1
   136   184   185    2
   137   169   170   ar
   138    42    43    1
   139   170   172   ar
   140   189   187   am
   141   173   174   ar
   142   187   188    2
   143    46    43   am
   144    46    47    1
   145    43    44    2
   146    72    71    2
   147    50    51    1
   148    50    47    1
   149   130   131    1
   150   172   174   ar
   151    47    48    1
   152    75    73    1
   153    71    70    1
   154   131   132    1
   155   190   191    1
   156    70    73    1
   157    70    69    1
   158    73    74    1
   159    48    52   am
   160    48    49    2
   161   134   132   am
   162   134   135    1
   163    52    53    1
   164   132   133    2
   165   191   194    1
   166   191   192    1
   167   194   195    1
   168   138   135    1
   169   138   139    1
   170   135   136    1
   171    53    54    1
   172   196   195    1
   173   196   197    1
   174   192   193    2
   175   199   198    1
   176   139   141   ar
   177   139   140   ar
   178   136   137    2
   179    54    55    2
   180    54    56   am
   181    66    65    2
   182    59    58    2
   183   197   198    2
   184   198   200    1
   185    56    57    1
   186    65    64    1
   187    58    57    1
   188    58    63   am
   189    64    63    1
   190    64    67    1
   191    57    60    1
   192    61    60    1
   193    67    68    1
   194    60    62    1
