@<TRIPOS>MOLECULE
tmp/4u5sA00.pdb
 173 164 0 0 0
SMALL
GASTEIGER

@<TRIPOS>ATOM
      1  N          9.1520   19.5970   -1.5410 N.3   169  LYS169     -0.1245
      2  CA        10.0650   20.6250   -1.0250 C.3   169  LYS169      0.1561
      3  C         11.3720   20.0350   -0.4820 C.2   169  LYS169      0.2260
      4  O         11.5470   18.8150   -0.4540 O.2   169  LYS169     -0.2867
      5  CB         9.3740   21.4580    0.0660 C.3   169  LYS169      0.0271
      6  CG         8.3760   22.4790   -0.4740 C.3   169  LYS169      0.0035
      7  CD         7.9490   23.5030    0.5780 C.3   169  LYS169      0.0206
      8  CE         7.1540   22.8660    1.7070 C.3   169  LYS169      0.1093
      9  NZ         6.8290   23.8650    2.7800 N.3   169  LYS169     -0.1314
     10  N          3.1950   27.7740   -4.5660 N.3   208  THR208     -0.1203
     11  CA         3.0360   28.9630   -3.7160 C.3   208  THR208      0.1994
     12  C          3.4160   28.6570   -2.2660 C.2   208  THR208      0.2618
     13  O          3.5000   29.5460   -1.4220 O.2   208  THR208     -0.2717
     14  CB         1.5840   29.5240   -3.7820 C.3   208  THR208      0.1784
     15  OG1        0.6240   28.4910   -3.4920 O.3   208  THR208     -0.2211
     16  CG2        1.2940   30.1280   -5.1750 C.3   208  THR208      0.0376
     17  N          3.6840   27.3880   -2.0080 N.am  209  ASP209     -0.1959
     18  CA         4.0470   26.9000   -0.6930 C.3   209  ASP209      0.1840
     19  C          5.5500   27.0880   -0.4770 C.2   209  ASP209      0.2622
     20  O          6.3050   26.1170   -0.4540 O.2   209  ASP209     -0.2715
     21  CB         3.6510   25.4240   -0.5680 C.3   209  ASP209      0.1450
     22  CG         3.7990   24.8790    0.8430 C.2   209  ASP209      0.3671
     23  OD1        4.4060   25.5460    1.6980 O.co2 209  ASP209     -0.2456
     24  OD2        3.3090   23.7590    1.0970 O.co2 209  ASP209     -0.2456
     25  N          5.9870   28.3340   -0.3350 N.am  210  GLY210     -0.1954
     26  CA         7.3940   28.6280   -0.1220 C.3   210  GLY210      0.1869
     27  C          7.6600   30.1040    0.1290 C.2   210  GLY210      0.2309
     28  O          6.7460   30.8600    0.4670 O.2   210  GLY210     -0.2863
     29  N         -6.2440   26.4820   -0.5000 N.3   244  ARG244     -0.1245
     30  CA        -4.8580   26.2750   -0.1060 C.3   244  ARG244      0.1563
     31  C         -3.9260   27.2610   -0.8130 C.2   244  ARG244      0.2260
     32  O         -3.0990   27.9240   -0.1770 O.2   244  ARG244     -0.2867
     33  CB        -4.4050   24.8480   -0.4250 C.3   244  ARG244      0.0307
     34  CG        -2.9460   24.6340   -0.1670 C.3   244  ARG244      0.0489
     35  CD        -2.7350   24.4770    1.3330 C.3   244  ARG244      0.2205
     36  NE        -3.6160   23.4360    1.8610 N.pl3 244  ARG244     -0.0865
     37  CZ        -3.2140   22.2220    2.2240 C.cat 244  ARG244      0.5346
     38  NH1       -1.9280   21.8920    2.1530 N.pl3 244  ARG244      0.1354
     39  NH2       -4.0990   21.3450    2.6830 N.pl3 244  ARG244      0.1354
     40  N         -1.8030   30.2670    0.7870 N.3   248  ASN248     -0.1240
     41  CA        -0.3560   30.3550    0.6090 C.3   248  ASN248      0.1653
     42  C          0.0690   31.7510    0.1280 C.2   248  ASN248      0.2266
     43  O          1.0360   32.3160    0.6290 O.2   248  ASN248     -0.2867
     44  CB         0.1520   29.2950   -0.3910 C.3   248  ASN248      0.1155
     45  CG         0.1790   27.8940    0.1880 C.2   248  ASN248      0.2627
     46  OD1        0.1480   27.7030    1.4030 O.2   248  ASN248     -0.2716
     47  ND2        0.2430   26.8970   -0.6940 N.am  248  ASN248     -0.0877
     48  N         -1.3430   34.7320    0.6030 N.3   250  VAL250     -0.1231
     49  CA        -1.4310   35.8020    1.6040 C.3   250  VAL250      0.1692
     50  C         -0.4320   35.5920    2.7580 C.2   250  VAL250      0.2593
     51  O         -0.3730   36.4070    3.6820 O.2   250  VAL250     -0.2718
     52  CB        -2.8620   35.9530    2.1830 C.3   250  VAL250      0.0266
     53  CG1       -3.8610   36.1680    1.0610 C.3   250  VAL250      0.0020
     54  CG2       -3.2470   34.7430    3.0320 C.3   250  VAL250      0.0020
     55  N          0.3540   34.5170    2.7170 N.am  251  THR251     -0.1939
     56  CA         1.5150   34.4290    3.6080 C.3   251  THR251      0.2028
     57  C          2.6600   35.2980    3.0710 C.2   251  THR251      0.2643
     58  O          3.6850   35.4430    3.7300 O.2   251  THR251     -0.2714
     59  CB         2.0480   32.9920    3.7880 C.3   251  THR251      0.1808
     60  OG1        2.5720   32.5200    2.5360 O.3   251  THR251     -0.2208
     61  CG2        0.9590   32.0490    4.3020 C.3   251  THR251      0.0379
     62  N          2.4890   35.8620    1.8760 N.am  252  GLY252     -0.1939
     63  CA         3.5370   36.6630    1.2540 C.3   252  GLY252      0.2014
     64  C          3.5320   38.1290    1.6700 C.2   252  GLY252      0.2640
     65  O          3.1710   38.4470    2.8030 O.2   252  GLY252     -0.2714
     66  N          3.9070   39.0170    0.7470 N.am  253  THR253     -0.1936
     67  CA         4.0010   40.4470    1.0320 C.3   253  THR253      0.2028
     68  C          2.6110   41.0640    1.1250 C.2   253  THR253      0.2642
     69  O          1.6190   40.4380    0.7420 O.2   253  THR253     -0.2714
     70  CB         4.8190   41.2100   -0.0460 C.3   253  THR253      0.1808
     71  OG1        4.1090   41.2000   -1.2910 O.3   253  THR253     -0.2208
     72  CG2        6.1850   40.5670   -0.2470 C.3   253  THR253      0.0379
     73  N          2.5440   42.2960    1.6240 N.am  254  ASP254     -0.1971
     74  CA         1.2830   43.0190    1.6880 C.3   254  ASP254      0.1709
     75  C          0.7570   43.2790    0.2880 C.2   254  ASP254      0.2293
     76  O         -0.4490   43.2700    0.0650 O.2   254  ASP254     -0.2864
     77  CB         1.4480   44.3400    2.4460 C.3   254  ASP254      0.1436
     78  CG         1.8480   44.1340    3.8950 C.2   254  ASP254      0.3671
     79  OD1        1.5150   43.0720    4.4720 O.co2 254  ASP254     -0.2456
     80  OD2        2.5060   45.0310    4.4540 O.co2 254  ASP254     -0.2456
     81  N         -0.6540   39.9630   -0.9480 N.3   257  THR257     -0.1218
     82  CA        -1.9440   39.8390   -0.2600 C.3   257  THR257      0.1862
     83  C         -3.0150   40.7720   -0.8610 C.2   257  THR257      0.2287
     84  O         -4.1590   40.3590   -1.0330 O.2   257  THR257     -0.2866
     85  CB        -1.8080   40.1280    1.2540 C.3   257  THR257      0.1770
     86  OG1       -0.8040   39.2760    1.8120 O.3   257  THR257     -0.2211
     87  CG2       -3.1090   39.8450    1.9850 C.3   257  THR257      0.0375
     88  N         -8.9620   26.1160    7.0940 N.3   283  GLU283     -0.1245
     89  CA        -8.0110   26.8180    6.2340 C.3   283  GLU283      0.1567
     90  C         -8.4900   28.2120    5.8350 C.2   283  GLU283      0.2260
     91  O         -7.6760   29.0710    5.5190 O.2   283  GLU283     -0.2867
     92  CB        -7.7000   25.9950    4.9840 C.3   283  GLU283      0.0388
     93  CG        -7.1520   24.6180    5.3340 C.3   283  GLU283      0.1160
     94  CD        -6.2360   24.0430    4.2650 C.2   283  GLU283      0.3649
     95  OE1       -5.4320   24.8100    3.6840 O.co2 283  GLU283     -0.2457
     96  OE2       -6.3220   22.8190    4.0150 O.co2 283  GLU283     -0.2457
     97  N         -7.5320   30.2170    8.9470 N.3   286  TRP286     -0.1241
     98  CA        -6.0830   30.3940    8.8310 C.3   286  TRP286      0.1605
     99  C         -5.7630   31.4860    7.8200 C.2   286  TRP286      0.2264
    100  O         -4.9040   32.3460    8.0620 O.2   286  TRP286     -0.2867
    101  CB        -5.3990   29.0770    8.4190 C.3   286  TRP286      0.0550
    102  CG        -3.9700   29.2530    7.9680 C.ar  286  TRP286      0.0003
    103  CD1       -2.9160   29.6900    8.7280 C.ar  286  TRP286      0.0946
    104  CD2       -3.4390   29.0020    6.6570 C.ar  286  TRP286      0.0152
    105  NE1       -1.7640   29.7220    7.9690 N.ar  286  TRP286     -0.2442
    106  CE2       -2.0560   29.3000    6.6990 C.ar  286  TRP286      0.0810
    107  CE3       -3.9930   28.5440    5.4570 C.ar  286  TRP286      0.0012
    108  CZ2       -1.2260   29.1630    5.5880 C.ar  286  TRP286      0.0191
    109  CZ3       -3.1650   28.4080    4.3560 C.ar  286  TRP286      0.0001
    110  CH2       -1.7980   28.7200    4.4280 C.ar  286  TRP286      0.0015
    111  N         -6.4230   34.8360    9.3000 N.3   289  SER289     -0.1202
    112  CA        -5.4160   35.2310   10.2880 C.3   289  SER289      0.2020
    113  C         -4.2350   35.9330    9.6270 C.2   289  SER289      0.2618
    114  O         -3.6190   36.8070   10.2330 O.2   289  SER289     -0.2717
    115  CB        -4.9230   34.0240   11.0970 C.3   289  SER289      0.2103
    116  OG        -3.9170   33.3070   10.3970 O.3   289  SER289     -0.2182
    117  N         -3.9340   35.5650    8.3810 N.am  290  ASN290     -0.1974
    118  CA        -2.8350   36.1910    7.6530 C.3   290  ASN290      0.1688
    119  C         -3.2190   37.4980    6.9880 C.2   290  ASN290      0.2292
    120  O         -2.3840   38.3810    6.8210 O.2   290  ASN290     -0.2864
    121  CB        -2.2680   35.2190    6.6150 C.3   290  ASN290      0.1181
    122  CG        -1.3280   34.2160    7.2410 C.2   290  ASN290      0.2629
    123  OD1       -0.4440   34.5880    8.0120 O.2   290  ASN290     -0.2716
    124  ND2       -1.5330   32.9370    6.9490 N.am  290  ASN290     -0.0877
    125  N         -3.0540   40.1020    9.6490 N.3   293  ALA293     -0.1231
    126  CA        -1.6810   40.4280   10.0040 C.3   293  ALA293      0.1694
    127  C         -1.1030   41.4330    9.0110 C.2   293  ALA293      0.2592
    128  O          0.0730   41.7680    9.0820 O.2   293  ALA293     -0.2718
    129  CB        -0.8190   39.1690   10.0460 C.3   293  ALA293      0.0304
    130  N         -1.9360   41.9040    8.0880 N.am  294  GLY294     -0.1957
    131  CA        -1.5100   42.8710    7.0860 C.3   294  GLY294      0.1869
    132  C         -1.6770   44.3190    7.5280 C.2   294  GLY294      0.2309
    133  O         -1.7410   44.6030    8.7320 O.2   294  GLY294     -0.2863
    134  N         -8.5070   27.9360   17.2690 N.3   324  LYS324     -0.1231
    135  CA        -7.1370   28.3700   17.5090 C.3   324  LYS324      0.1693
    136  C         -6.6780   29.3030   16.3860 C.2   324  LYS324      0.2591
    137  O         -6.0300   30.3270   16.6390 O.2   324  LYS324     -0.2718
    138  CB        -6.2110   27.1560   17.6320 C.3   324  LYS324      0.0285
    139  CG        -4.8620   27.4490   18.2770 C.3   324  LYS324      0.0035
    140  CD        -3.9810   26.2000   18.3470 C.3   324  LYS324      0.0206
    141  CE        -2.5180   26.5740   18.5880 C.3   324  LYS324      0.1093
    142  NZ        -1.7720   25.5260   19.3460 N.3   324  LYS324     -0.1314
    143  N         -7.0230   28.9620   15.1460 N.am  325  GLU325     -0.1979
    144  CA        -6.7540   29.8620   14.0280 C.3   325  GLU325      0.1602
    145  C         -7.5030   31.1940   14.2000 C.2   325  GLU325      0.2287
    146  O         -6.9800   32.2470   13.8490 O.2   325  GLU325     -0.2864
    147  CB        -7.1290   29.2030   12.6860 C.3   325  GLU325      0.0415
    148  CG        -6.3340   27.9370   12.3570 C.3   325  GLU325      0.1163
    149  CD        -4.8630   28.2130   12.0570 C.2   325  GLU325      0.3649
    150  OE1       -4.5120   29.3740   11.7530 O.co2 325  GLU325     -0.2457
    151  OE2       -4.0490   27.2660   12.1350 O.co2 325  GLU325     -0.2457
    152  N         -5.7020   33.3990   16.6530 N.3   328  TRP328     -0.1241
    153  CA        -4.5970   34.0490   15.9430 C.3   328  TRP328      0.1605
    154  C         -5.0320   35.2360   15.0850 C.2   328  TRP328      0.2264
    155  O         -4.3890   36.2880   15.0980 O.2   328  TRP328     -0.2867
    156  CB        -3.8730   33.0390   15.0560 C.3   328  TRP328      0.0550
    157  CG        -2.7590   32.3560   15.7460 C.ar  328  TRP328      0.0003
    158  CD1       -2.7360   31.0670   16.2000 C.ar  328  TRP328      0.0946
    159  CD2       -1.4880   32.9230   16.0700 C.ar  328  TRP328      0.0152
    160  NE1       -1.5240   30.7950   16.7840 N.ar  328  TRP328     -0.2442
    161  CE2       -0.7380   31.9180   16.7180 C.ar  328  TRP328      0.0810
    162  CE3       -0.9060   34.1820   15.8700 C.ar  328  TRP328      0.0012
    163  CZ2        0.5640   32.1330   17.1710 C.ar  328  TRP328      0.0191
    164  CZ3        0.3830   34.3960   16.3220 C.ar  328  TRP328      0.0001
    165  CH2        1.1060   33.3760   16.9650 C.ar  328  TRP328      0.0015
    166  N         -3.6420   39.0550   15.7000 N.3   332  ASN332     -0.1240
    167  CA        -3.0350   39.8250   14.6190 C.3   332  ASN332      0.1653
    168  C         -3.8090   41.1080   14.3750 C.2   332  ASN332      0.2266
    169  O         -3.2160   42.1670   14.1750 O.2   332  ASN332     -0.2867
    170  CB        -2.9630   39.0240   13.3150 C.3   332  ASN332      0.1155
    171  CG        -1.9690   37.8730   13.3690 C.2   332  ASN332      0.2627
    172  OD1       -1.0580   37.8510   14.1970 O.2   332  ASN332     -0.2716
    173  ND2       -2.1410   36.9060   12.4630 N.am  332  ASN332     -0.0877
@<TRIPOS>BOND
     1    16    14    1
     2    10    11    1
     3    14    11    1
     4    14    15    1
     5    11    12    1
     6    12    17   am
     7    12    13    2
     8    17    18    1
     9     1     2    1
    10    71    70    1
    11    84    83    2
    12     2     3    1
    13     2     5    1
    14    81    82    1
    15    83    82    1
    16    31    32    2
    17    31    30    1
    18    47    45   am
    19    18    21    1
    20    18    19    1
    21    21    22    1
    22    29    30    1
    23     3     4    2
    24    19    20    2
    25    19    25   am
    26     6     5    1
    27     6     7    1
    28    33    34    1
    29    33    30    1
    30    44    45    1
    31    44    41    1
    32    25    26    1
    33    82    85    1
    34    72    70    1
    35    34    35    1
    36    26    27    1
    37    70    67    1
    38    76    75    2
    39    42    41    1
    40    42    43    2
    41    27    28    2
    42    45    46    2
    43    75    74    1
    44     7     8    1
    45    48    49    1
    46    41    40    1
    47    69    68    2
    48    66    67    1
    49    66    64   am
    50    22    24   ar
    51    22    23   ar
    52    67    68    1
    53    53    52    1
    54    68    73   am
    55    63    64    1
    56    63    62    1
    57    85    86    1
    58    85    87    1
    59    35    36    1
    60    49    52    1
    61    49    50    1
    62    73    74    1
    63    64    65    2
    64    74    77    1
    65     8     9    1
    66    36    37    2
    67    62    57   am
    68    38    37    1
    69    52    54    1
    70    37    39    1
    71    77    78    1
    72    60    59    1
    73    55    50   am
    74    55    56    1
    75    50    51    2
    76    57    56    1
    77    57    58    2
    78    56    59    1
    79    95    94   ar
    80    59    61    1
    81    78    80   ar
    82    78    79   ar
    83    96    94   ar
    84    94    93    1
    85   109   110   ar
    86   109   107   ar
    87   110   108   ar
    88    92    93    1
    89    92    89    1
    90   107   104   ar
    91    91    90    2
    92   108   106   ar
    93    90    89    1
    94    89    88    1
    95   121   122    1
    96   121   118    1
    97   104   106   ar
    98   104   102   ar
    99   106   105   ar
   100   120   119    2
   101   124   122   am
   102   119   118    1
   103   131   132    1
   104   131   130    1
   105   122   123    2
   106   132   133    2
   107   118   117    1
   108    99   100    2
   109    99    98    1
   110   102   101    1
   111   102   103   ar
   112   105   103   ar
   113   130   127   am
   114   117   113   am
   115   101    98    1
   116    98    97    1
   117   127   128    2
   118   127   126    1
   119   111   112    1
   120   113   114    2
   121   113   112    1
   122   125   126    1
   123   126   129    1
   124   112   115    1
   125   116   115    1
   126   150   149   ar
   127   149   151   ar
   128   149   148    1
   129   148   147    1
   130   173   171   am
   131   147   144    1
   132   170   171    1
   133   170   167    1
   134   171   172    2
   135   146   145    2
   136   144   145    1
   137   144   143    1
   138   169   168    2
   139   168   167    1
   140   167   166    1
   141   156   157    1
   142   156   153    1
   143   154   155    2
   144   154   153    1
   145   143   136   am
   146   157   159   ar
   147   157   158   ar
   148   162   159   ar
   149   162   164   ar
   150   153   152    1
   151   159   161   ar
   152   158   160   ar
   153   164   165   ar
   154   136   137    2
   155   136   135    1
   156   161   160   ar
   157   161   163   ar
   158   165   163   ar
   159   134   135    1
   160   135   138    1
   161   138   139    1
   162   139   140    1
   163   140   141    1
   164   141   142    1
