@<TRIPOS>MOLECULE
tmp/4u5uA00.pdb
 85 81 0 0 0
SMALL
GASTEIGER

@<TRIPOS>ATOM
      1  N          2.6350   42.0890    1.0890 N.3   254  ASP254     -0.1239
      2  CA         1.4190   42.8840    1.1130 C.3   254  ASP254      0.1674
      3  C          0.8650   43.0150   -0.2880 C.2   254  ASP254      0.2266
      4  O         -0.3410   42.9570   -0.4900 O.2   254  ASP254     -0.2867
      5  CB         1.6880   44.2690    1.7120 C.3   254  ASP254      0.1410
      6  CG         2.1270   44.1990    3.1630 C.2   254  ASP254      0.3668
      7  OD1        1.7210   43.2490    3.8660 O.co2 254  ASP254     -0.2456
      8  OD2        2.8870   45.0910    3.5970 O.co2 254  ASP254     -0.2456
      9  N         -7.1230   30.1940    8.5990 N.3   286  TRP286     -0.1241
     10  CA        -5.6790   30.3820    8.4780 C.3   286  TRP286      0.1605
     11  C         -5.3750   31.4950    7.4840 C.2   286  TRP286      0.2264
     12  O         -4.5590   32.3870    7.7510 O.2   286  TRP286     -0.2867
     13  CB        -5.0090   29.0710    8.0410 C.3   286  TRP286      0.0550
     14  CG        -3.6030   29.2360    7.5620 C.ar  286  TRP286      0.0003
     15  CD1       -2.5320   29.6550    8.2940 C.ar  286  TRP286      0.0946
     16  CD2       -3.1100   28.9760    6.2420 C.ar  286  TRP286      0.0152
     17  NE1       -1.4020   29.6770    7.5100 N.ar  286  TRP286     -0.2442
     18  CE2       -1.7310   29.2640    6.2470 C.ar  286  TRP286      0.0810
     19  CE3       -3.7000   28.5220    5.0600 C.ar  286  TRP286      0.0012
     20  CZ2       -0.9320   29.1150    5.1170 C.ar  286  TRP286      0.0191
     21  CZ3       -2.9000   28.3660    3.9350 C.ar  286  TRP286      0.0001
     22  CH2       -1.5350   28.6660    3.9730 C.ar  286  TRP286      0.0015
     23  N         -6.1330   34.8000    8.8700 N.3   289  SER289     -0.1202
     24  CA        -5.1030   35.2000    9.8260 C.3   289  SER289      0.2020
     25  C         -3.8970   35.8370    9.1400 C.2   289  SER289      0.2618
     26  O         -3.2320   36.6950    9.7180 O.2   289  SER289     -0.2717
     27  CB        -4.6570   34.0070   10.6690 C.3   289  SER289      0.2103
     28  OG        -3.7640   33.1630    9.9570 O.3   289  SER289     -0.2182
     29  N         -3.6260   35.4310    7.9050 N.am  290  ASN290     -0.1974
     30  CA        -2.5220   36.0160    7.1590 C.3   290  ASN290      0.1688
     31  C         -2.9320   37.3160    6.5110 C.2   290  ASN290      0.2292
     32  O         -2.0960   38.1780    6.2720 O.2   290  ASN290     -0.2864
     33  CB        -1.9960   35.0270    6.1200 C.3   290  ASN290      0.1181
     34  CG        -1.0720   34.0070    6.7390 C.2   290  ASN290      0.2629
     35  OD1        0.0190   34.3490    7.1800 O.2   290  ASN290     -0.2716
     36  ND2       -1.5220   32.7660    6.8340 N.am  290  ASN290     -0.0877
     37  N         -2.9060   40.0120    9.1680 N.3   293  ALA293     -0.1245
     38  CA        -1.5310   40.3720    9.4960 C.3   293  ALA293      0.1562
     39  C         -0.9650   41.3580    8.4850 C.2   293  ALA293      0.2260
     40  O          0.2130   41.6970    8.5390 O.2   293  ALA293     -0.2867
     41  CB        -0.6510   39.1260    9.5690 C.3   293  ALA293      0.0290
     42  N         -6.6840   29.0940   14.9120 N.3   325  GLU325     -0.1245
     43  CA        -6.3970   29.9730   13.7780 C.3   325  GLU325      0.1567
     44  C         -7.1690   31.2790   13.8960 C.2   325  GLU325      0.2260
     45  O         -6.6880   32.3280   13.4820 O.2   325  GLU325     -0.2867
     46  CB        -6.7430   29.3030   12.4460 C.3   325  GLU325      0.0388
     47  CG        -5.8680   28.1190   12.1180 C.3   325  GLU325      0.1160
     48  CD        -4.4020   28.5060   12.1160 C.2   325  GLU325      0.3649
     49  OE1       -4.0830   29.5720   11.5510 O.co2 325  GLU325     -0.2457
     50  OE2       -3.5810   27.7580   12.6870 O.co2 325  GLU325     -0.2457
     51  N         -5.3760   33.4910   16.3190 N.3   328  TRP328     -0.1241
     52  CA        -4.2870   34.1380   15.5700 C.3   328  TRP328      0.1605
     53  C         -4.7680   35.2830   14.6860 C.2   328  TRP328      0.2264
     54  O         -4.1360   36.3400   14.6250 O.2   328  TRP328     -0.2867
     55  CB        -3.5420   33.1160   14.7030 C.3   328  TRP328      0.0550
     56  CG        -2.4240   32.4310   15.4260 C.ar  328  TRP328      0.0003
     57  CD1       -2.3670   31.1200   15.8100 C.ar  328  TRP328      0.0946
     58  CD2       -1.2000   33.0350   15.8690 C.ar  328  TRP328      0.0152
     59  NE1       -1.1740   30.8730   16.4570 N.ar  328  TRP328     -0.2442
     60  CE2       -0.4440   32.0310   16.5050 C.ar  328  TRP328      0.0810
     61  CE3       -0.6740   34.3270   15.7840 C.ar  328  TRP328      0.0012
     62  CZ2        0.8140   32.2780   17.0520 C.ar  328  TRP328      0.0191
     63  CZ3        0.5810   34.5720   16.3270 C.ar  328  TRP328      0.0001
     64  CH2        1.3050   33.5530   16.9560 C.ar  328  TRP328      0.0015
     65  N         -5.4250   38.1850   16.9960 N.3   331  THR331     -0.1203
     66  CA        -4.2020   38.7950   17.5240 C.3   331  THR331      0.1994
     67  C         -3.5070   39.6350   16.4650 C.2   331  THR331      0.2617
     68  O         -3.0620   40.7500   16.7480 O.2   331  THR331     -0.2717
     69  CB        -3.2150   37.7480   18.0610 C.3   331  THR331      0.1784
     70  OG1       -3.8050   37.0810   19.1790 O.3   331  THR331     -0.2211
     71  CG2       -1.9370   38.4210   18.5370 C.3   331  THR331      0.0376
     72  N         -3.4370   39.1220   15.2400 N.am  332  ASN332     -0.1974
     73  CA        -2.8210   39.8670   14.1400 C.3   332  ASN332      0.1688
     74  C         -3.5960   41.1400   13.8100 C.2   332  ASN332      0.2292
     75  O         -3.0090   42.1900   13.4940 O.2   332  ASN332     -0.2864
     76  CB        -2.6990   38.9790   12.8830 C.3   332  ASN332      0.1181
     77  CG        -1.7790   37.7770   13.0960 C.2   332  ASN332      0.2629
     78  OD1       -0.9920   37.7460   14.0390 O.2   332  ASN332     -0.2716
     79  ND2       -1.8700   36.7880   12.2080 N.am  332  ASN332     -0.0877
     80  N         -2.9050   43.6070   16.6910 N.3   335  SER335     -0.1217
     81  CA        -1.5410   44.1270   16.6310 C.3   335  SER335      0.1889
     82  C         -1.4270   45.1450   15.4980 C.2   335  SER335      0.2288
     83  O         -0.8400   46.2080   15.6650 O.2   335  SER335     -0.2866
     84  CB        -0.5240   42.9970   16.4410 C.3   335  SER335      0.2089
     85  OG        -0.4280   42.6440   15.0730 O.3   335  SER335     -0.2183
@<TRIPOS>BOND
     1     4     3    2
     2     3     2    1
     3     1     2    1
     4     2     5    1
     5     5     6    1
     6     6     8   ar
     7     6     7   ar
     8    21    22   ar
     9    21    19   ar
    10    22    20   ar
    11    19    16   ar
    12    20    18   ar
    13    33    34    1
    14    33    30    1
    15    16    18   ar
    16    16    14   ar
    17    18    17   ar
    18    32    31    2
    19    31    30    1
    20    34    36   am
    21    34    35    2
    22    30    29    1
    23    11    12    2
    24    11    10    1
    25    17    15   ar
    26    14    13    1
    27    14    15   ar
    28    29    25   am
    29    13    10    1
    30    10     9    1
    31    39    40    2
    32    39    38    1
    33    23    24    1
    34    25    26    2
    35    25    24    1
    36    37    38    1
    37    38    41    1
    38    24    27    1
    39    28    27    1
    40    49    48   ar
    41    48    47    1
    42    48    50   ar
    43    47    46    1
    44    79    77   am
    45    46    43    1
    46    76    77    1
    47    76    73    1
    48    77    78    2
    49    45    44    2
    50    75    74    2
    51    43    44    1
    52    43    42    1
    53    74    73    1
    54    73    72    1
    55    54    53    2
    56    53    52    1
    57    55    56    1
    58    55    52    1
    59    85    84    1
    60    72    67   am
    61    56    57   ar
    62    56    58   ar
    63    82    83    2
    64    82    81    1
    65    52    51    1
    66    61    58   ar
    67    61    63   ar
    68    57    59   ar
    69    58    60   ar
    70    63    64   ar
    71    84    81    1
    72    59    60   ar
    73    67    68    2
    74    67    66    1
    75    60    62   ar
    76    81    80    1
    77    64    62   ar
    78    65    66    1
    79    66    69    1
    80    69    71    1
    81    69    70    1
