@<TRIPOS>MOLECULE
tmp/4u5vA00.pdb
 108 104 0 0 0
SMALL
GASTEIGER

@<TRIPOS>ATOM
      1  N         -1.4690   34.5830    0.1300 N.3   250  VAL250     -0.1231
      2  CA        -1.5590   35.6680    1.1090 C.3   250  VAL250      0.1692
      3  C         -0.5370   35.5330    2.2440 C.2   250  VAL250      0.2593
      4  O         -0.5420   36.3440    3.1780 O.2   250  VAL250     -0.2718
      5  CB        -2.9690   35.7650    1.7350 C.3   250  VAL250      0.0266
      6  CG1       -3.9960   36.1170    0.6790 C.3   250  VAL250      0.0020
      7  CG2       -3.3270   34.4750    2.4700 C.3   250  VAL250      0.0020
      8  N          0.3290   34.5170    2.2060 N.am  251  THR251     -0.1939
      9  CA         1.4490   34.5110    3.1550 C.3   251  THR251      0.2028
     10  C          2.5860   35.3540    2.5870 C.2   251  THR251      0.2643
     11  O          3.6050   35.5540    3.2500 O.2   251  THR251     -0.2714
     12  CB         2.0020   33.1100    3.4820 C.3   251  THR251      0.1808
     13  OG1        2.6890   32.5760    2.3380 O.3   251  THR251     -0.2208
     14  CG2        0.8880   32.1740    3.9500 C.3   251  THR251      0.0379
     15  N          2.3900   35.8610    1.3700 N.am  252  GLY252     -0.1939
     16  CA         3.4060   36.6470    0.6940 C.3   252  GLY252      0.2014
     17  C          3.3290   38.1300    1.0380 C.2   252  GLY252      0.2640
     18  O          2.9610   38.5100    2.1500 O.2   252  GLY252     -0.2714
     19  N          3.6680   38.9680    0.0680 N.am  253  THR253     -0.1936
     20  CA         3.7790   40.3990    0.3100 C.3   253  THR253      0.2028
     21  C          2.4120   41.0440    0.4080 C.2   253  THR253      0.2642
     22  O          1.4020   40.4230    0.0800 O.2   253  THR253     -0.2714
     23  CB         4.5450   41.0850   -0.8040 C.3   253  THR253      0.1808
     24  OG1        3.8570   40.8500   -2.0350 O.3   253  THR253     -0.2208
     25  CG2        5.9550   40.5240   -0.9000 C.3   253  THR253      0.0379
     26  N          2.3870   42.3080    0.8170 N.am  254  ASP254     -0.1971
     27  CA         1.1370   43.0500    0.8750 C.3   254  ASP254      0.1709
     28  C          0.5820   43.1740   -0.5310 C.2   254  ASP254      0.2293
     29  O         -0.6270   43.1030   -0.7500 O.2   254  ASP254     -0.2864
     30  CB         1.3550   44.4200    1.5170 C.3   254  ASP254      0.1436
     31  CG         1.8680   44.3170    2.9470 C.2   254  ASP254      0.3671
     32  OD1        1.4290   43.4080    3.6920 O.co2 254  ASP254     -0.2456
     33  OD2        2.7300   45.1400    3.3280 O.co2 254  ASP254     -0.2456
     34  N         -0.9210   39.8490   -1.6600 N.3   257  THR257     -0.1218
     35  CA        -2.1960   39.7380   -0.9440 C.3   257  THR257      0.1862
     36  C         -3.2790   40.5960   -1.5900 C.2   257  THR257      0.2287
     37  O         -4.4070   40.1490   -1.7640 O.2   257  THR257     -0.2866
     38  CB        -2.0440   40.1380    0.5270 C.3   257  THR257      0.1770
     39  OG1       -1.0680   39.2970    1.1340 O.3   257  THR257     -0.2211
     40  CG2       -3.3740   39.9880    1.2920 C.3   257  THR257      0.0375
     41  N         -7.3930   30.3000    8.5160 N.3   286  TRP286     -0.1241
     42  CA        -5.9570   30.5090    8.3570 C.3   286  TRP286      0.1605
     43  C         -5.7000   31.5870    7.3210 C.2   286  TRP286      0.2264
     44  O         -4.9310   32.5050    7.5610 O.2   286  TRP286     -0.2867
     45  CB        -5.2630   29.2040    7.9510 C.3   286  TRP286      0.0550
     46  CG        -3.8460   29.3800    7.4500 C.ar  286  TRP286      0.0003
     47  CD1       -2.7770   29.8420    8.1520 C.ar  286  TRP286      0.0946
     48  CD2       -3.3630   29.0790    6.1360 C.ar  286  TRP286      0.0152
     49  NE1       -1.6550   29.8500    7.3570 N.ar  286  TRP286     -0.2442
     50  CE2       -1.9890   29.3820    6.1160 C.ar  286  TRP286      0.0810
     51  CE3       -3.9600   28.5770    4.9790 C.ar  286  TRP286      0.0012
     52  CZ2       -1.2030   29.2070    4.9810 C.ar  286  TRP286      0.0191
     53  CZ3       -3.1760   28.3910    3.8530 C.ar  286  TRP286      0.0001
     54  CH2       -1.8150   28.7140    3.8590 C.ar  286  TRP286      0.0015
     55  N         -6.3590   34.9270    8.7270 N.3   289  SER289     -0.1202
     56  CA        -5.3570   35.3510    9.7070 C.3   289  SER289      0.2020
     57  C         -4.1820   36.0160    9.0140 C.2   289  SER289      0.2618
     58  O         -3.5840   36.9560    9.5450 O.2   289  SER289     -0.2717
     59  CB        -4.8510   34.1730   10.5430 C.3   289  SER289      0.2103
     60  OG        -3.9360   33.3750    9.8050 O.3   289  SER289     -0.2182
     61  N         -3.8550   35.5420    7.8230 N.am  290  ASN290     -0.1974
     62  CA        -2.8050   36.1970    7.0510 C.3   290  ASN290      0.1688
     63  C         -3.2870   37.4940    6.4070 C.2   290  ASN290      0.2292
     64  O         -2.4930   38.4170    6.2220 O.2   290  ASN290     -0.2864
     65  CB        -2.2360   35.2450    5.9950 C.3   290  ASN290      0.1181
     66  CG        -1.2770   34.2200    6.6010 C.2   290  ASN290      0.2629
     67  OD1       -0.1750   34.5600    7.0350 O.2   290  ASN290     -0.2716
     68  ND2       -1.7130   32.9740    6.6720 N.am  290  ASN290     -0.0877
     69  N         -3.0770   40.1950    9.0050 N.3   293  ALA293     -0.1231
     70  CA        -1.6950   40.5580    9.2940 C.3   293  ALA293      0.1694
     71  C         -1.1730   41.5510    8.2620 C.2   293  ALA293      0.2592
     72  O          0.0010   41.9030    8.2840 O.2   293  ALA293     -0.2718
     73  CB        -0.8130   39.3180    9.3340 C.3   293  ALA293      0.0304
     74  N         -2.0500   42.0070    7.3660 N.am  294  GLY294     -0.1957
     75  CA        -1.6500   42.9100    6.3020 C.3   294  GLY294      0.1869
     76  C         -1.7380   44.3860    6.6610 C.2   294  GLY294      0.2309
     77  O         -1.6700   44.7600    7.8280 O.2   294  GLY294     -0.2863
     78  N         -6.9910   29.2190   14.7490 N.3   325  GLU325     -0.1245
     79  CA        -6.7220   30.0830   13.6030 C.3   325  GLU325      0.1567
     80  C         -7.4820   31.4020   13.7280 C.2   325  GLU325      0.2260
     81  O         -6.9870   32.4540   13.3270 O.2   325  GLU325     -0.2867
     82  CB        -7.0880   29.3930   12.2890 C.3   325  GLU325      0.0388
     83  CG        -6.1110   28.3040   11.8700 C.3   325  GLU325      0.1160
     84  CD        -4.6690   28.7830   11.8930 C.2   325  GLU325      0.3649
     85  OE1       -4.3960   29.8550   11.3160 O.co2 325  GLU325     -0.2457
     86  OE2       -3.8110   28.0820   12.4750 O.co2 325  GLU325     -0.2457
     87  N         -5.5600   33.7010   16.0640 N.3   328  TRP328     -0.1241
     88  CA        -4.4770   34.3650   15.3360 C.3   328  TRP328      0.1605
     89  C         -4.9930   35.5150   14.4950 C.2   328  TRP328      0.2264
     90  O         -4.3850   36.5820   14.4530 O.2   328  TRP328     -0.2867
     91  CB        -3.7360   33.3730   14.4370 C.3   328  TRP328      0.0550
     92  CG        -2.7170   32.6080   15.1800 C.ar  328  TRP328      0.0003
     93  CD1       -2.8250   31.3330   15.6510 C.ar  328  TRP328      0.0946
     94  CD2       -1.4220   33.0800   15.5730 C.ar  328  TRP328      0.0152
     95  NE1       -1.6670   30.9770   16.3080 N.ar  328  TRP328     -0.2442
     96  CE2       -0.7920   32.0320   16.2770 C.ar  328  TRP328      0.0810
     97  CE3       -0.7350   34.2860   15.3930 C.ar  328  TRP328      0.0012
     98  CZ2        0.4990   32.1510   16.7960 C.ar  328  TRP328      0.0191
     99  CZ3        0.5450   34.4030   15.9160 C.ar  328  TRP328      0.0001
    100  CH2        1.1450   33.3420   16.6070 C.ar  328  TRP328      0.0015
    101  N         -3.5420   39.3790   14.9990 N.3   332  ASN332     -0.1240
    102  CA        -2.9840   40.1060   13.8680 C.3   332  ASN332      0.1653
    103  C         -3.8030   41.3520   13.5390 C.2   332  ASN332      0.2266
    104  O         -3.2440   42.4220   13.2740 O.2   332  ASN332     -0.2867
    105  CB        -2.8810   39.1940   12.6350 C.3   332  ASN332      0.1155
    106  CG        -1.8880   38.0510   12.8350 C.2   332  ASN332      0.2627
    107  OD1       -1.0730   38.0860   13.7480 O.2   332  ASN332     -0.2716
    108  ND2       -1.9490   37.0380   11.9650 N.am  332  ASN332     -0.0877
@<TRIPOS>BOND
     1    24    23    1
     2    37    36    2
     3    34    35    1
     4    36    35    1
     5    35    38    1
     6    25    23    1
     7    23    20    1
     8    29    28    2
     9    28    27    1
    10    19    20    1
    11    19    17   am
    12    22    21    2
    13     1     2    1
    14    20    21    1
    15    21    26   am
    16    38    39    1
    17    38    40    1
    18     6     5    1
    19    16    17    1
    20    16    15    1
    21    26    27    1
    22    27    30    1
    23    17    18    2
    24     2     5    1
    25     2     3    1
    26    15    10   am
    27    30    31    1
    28     5     7    1
    29     8     3   am
    30     8     9    1
    31     3     4    2
    32    13    12    1
    33    10     9    1
    34    10    11    2
    35    31    33   ar
    36    31    32   ar
    37     9    12    1
    38    12    14    1
    39    53    54   ar
    40    53    51   ar
    41    54    52   ar
    42    51    48   ar
    43    52    50   ar
    44    65    66    1
    45    65    62    1
    46    50    48   ar
    47    50    49   ar
    48    48    46   ar
    49    64    63    2
    50    75    76    1
    51    75    74    1
    52    63    62    1
    53    66    68   am
    54    66    67    2
    55    76    77    2
    56    62    61    1
    57    43    44    2
    58    43    42    1
    59    49    47   ar
    60    74    71   am
    61    46    45    1
    62    46    47   ar
    63    61    57   am
    64    45    42    1
    65    71    72    2
    66    71    70    1
    67    42    41    1
    68    55    56    1
    69    69    70    1
    70    57    58    2
    71    57    56    1
    72    70    73    1
    73    56    59    1
    74    60    59    1
    75    85    84   ar
    76    83    84    1
    77    83    82    1
    78    84    86   ar
    79   108   106   am
    80    82    79    1
    81   105   106    1
    82   105   102    1
    83   106   107    2
    84   104   103    2
    85    81    80    2
    86   103   102    1
    87    79    80    1
    88    79    78    1
    89   102   101    1
    90    91    92    1
    91    91    88    1
    92    90    89    2
    93    89    88    1
    94    92    94   ar
    95    92    93   ar
    96    88    87    1
    97    97    94   ar
    98    97    99   ar
    99    94    96   ar
   100    93    95   ar
   101    99   100   ar
   102    96    95   ar
   103    96    98   ar
   104   100    98   ar
