@<TRIPOS>MOLECULE
tmp/4u5xA00.pdb
 166 162 0 0 0
SMALL
GASTEIGER

@<TRIPOS>ATOM
      1  N         15.4380   -0.0550   10.2180 N.3    14  GLY14      -0.1210
      2  CA        14.8020   -0.8280   11.3150 C.3    14  GLY14       0.1956
      3  C         13.6190   -0.0410   11.9130 C.2    14  GLY14       0.2612
      4  O         13.7100    1.1810   12.0490 O.2    14  GLY14      -0.2717
      5  N         12.4980   -0.7060   12.1590 N.am   15  ALA15      -0.1965
      6  CA        11.3940   -0.1440   12.9820 C.3    15  ALA15       0.1728
      7  C         10.5450    0.9560   12.2670 C.2    15  ALA15       0.2616
      8  O          9.6570    1.5380   12.8490 O.2    15  ALA15      -0.2715
      9  CB        11.9320    0.3080   14.3680 C.3    15  ALA15       0.0334
     10  N         10.7590    1.1720   10.9650 N.am   16  VAL16      -0.1963
     11  CA         9.9190    2.1380   10.2200 C.3    16  VAL16       0.1727
     12  C          8.5210    1.6630    9.9160 C.2    16  VAL16       0.2617
     13  O          7.6790    2.5070    9.6570 O.2    16  VAL16      -0.2715
     14  CB        10.5580    2.6950    8.9280 C.3    16  VAL16       0.0290
     15  CG1       11.9110    3.2960    9.2960 C.3    16  VAL16       0.0023
     16  CG2       10.6140    1.6120    7.8290 C.3    16  VAL16       0.0023
     17  N          8.2580    0.3540   10.0410 N.am   17  GLY17      -0.1940
     18  CA         6.8960   -0.1870    9.8820 C.3    17  GLY17       0.2014
     19  C          6.7390   -0.9750    8.5790 C.2    17  GLY17       0.2639
     20  O          5.5790   -1.1040    8.0810 O.2    17  GLY17      -0.2714
     21  N          7.8310   -1.5300    8.0450 N.am   18  LYS18      -0.1963
     22  CA         7.7460   -2.2890    6.7220 C.3    18  LYS18       0.1728
     23  C          6.8220   -3.5290    6.8640 C.2    18  LYS18       0.2617
     24  O          5.9140   -3.7920    6.0500 O.2    18  LYS18      -0.2715
     25  CB         9.1300   -2.7810    6.3630 C.3    18  LYS18       0.0311
     26  CG        10.1340   -1.6440    6.0180 C.3    18  LYS18       0.0038
     27  CD        11.5400   -2.1260    5.7050 C.3    18  LYS18       0.0206
     28  CE        12.2340   -2.9190    6.8290 C.3    18  LYS18       0.1093
     29  NZ        12.5700   -2.0370    7.9980 N.3    18  LYS18      -0.1314
     30  N          7.0550   -4.2780    7.9490 N.am   19  THR19      -0.1937
     31  CA         6.3360   -5.5060    8.1620 C.3    19  THR19       0.2028
     32  C          4.8490   -5.2180    8.4490 C.2    19  THR19       0.2642
     33  O          3.9610   -5.8710    7.8730 O.2    19  THR19      -0.2714
     34  CB         7.0160   -6.3610    9.2620 C.3    19  THR19       0.1808
     35  OG1        8.3440   -6.6940    8.7970 O.3    19  THR19      -0.2208
     36  CG2        6.2220   -7.6540    9.4930 C.3    19  THR19       0.0379
     37  N          4.5670   -4.2570    9.3140 N.am   20  CYS20      -0.1967
     38  CA         3.1820   -3.9280    9.5760 C.3    20  CYS20       0.1712
     39  C          2.4280   -3.5280    8.2840 C.2    20  CYS20       0.2296
     40  O          1.2610   -3.8310    8.1110 O.2    20  CYS20      -0.2864
     41  CB         3.0230   -2.8270   10.6180 C.3    20  CYS20       0.0983
     42  SG         3.4410   -3.4070   12.2970 S.3    20  CYS20      -0.0798
     43  N         -4.5160   -3.1630   11.6530 N.3    30  PHE30      -0.1228
     44  CA        -3.2130   -2.9490   12.2200 C.3    30  PHE30       0.1721
     45  C         -2.8460   -4.1380   13.1140 C.2    30  PHE30       0.2437
     46  O         -3.5990   -4.4450   14.0210 O.2    30  PHE30      -0.2733
     47  CB        -3.2510   -1.6640   13.0490 C.3    30  PHE30       0.0547
     48  CG        -1.9240   -1.2900   13.6530 C.ar   30  PHE30      -0.0202
     49  CD1       -0.7510   -1.1930   12.8520 C.ar   30  PHE30      -0.0042
     50  CD2       -1.8420   -1.0180   15.0080 C.ar   30  PHE30      -0.0042
     51  CE1        0.4690   -0.8480   13.4370 C.ar   30  PHE30      -0.0003
     52  CE2       -0.6240   -0.6810   15.5860 C.ar   30  PHE30      -0.0003
     53  CZ         0.5250   -0.5600   14.7870 C.ar   30  PHE30      -0.0000
     54  N         -1.7040   -4.8070   12.8610 N.am   31  PRO31      -0.2718
     55  CA        -1.2430   -5.8390   13.7900 C.3    31  PRO31       0.1535
     56  C         -0.6220   -5.1850   15.0140 C.2    31  PRO31       0.2599
     57  O          0.3570   -4.4480   14.9040 O.2    31  PRO31      -0.2715
     58  CB        -0.1870   -6.5900   12.9930 C.3    31  PRO31       0.0310
     59  CG         0.3240   -5.6190   12.0060 C.3    31  PRO31       0.0237
     60  CD        -0.7770   -4.6300   11.7320 C.3    31  PRO31       0.0939
     61  N         -1.1850   -5.4310   16.1770 N.am   32  THR32      -0.1951
     62  CA        -0.7760   -4.6630   17.3370 C.3    32  THR32       0.1897
     63  C          0.2460   -5.3470   18.2490 C.2    32  THR32       0.2313
     64  O          0.7410   -4.7080   19.2180 O.2    32  THR32      -0.2863
     65  CB        -1.9790   -4.3470   18.2150 C.3    32  THR32       0.1794
     66  OG1       -2.5820   -5.5900   18.6050 O.3    32  THR32      -0.2208
     67  CG2       -2.9730   -3.5410   17.4480 C.3    32  THR32       0.0378
     68  N          4.7800   -9.0430   16.2320 N.3    35  ILE35      -0.1231
     69  CA         5.2240   -8.6800   14.9110 C.3    35  ILE35       0.1678
     70  C          6.5490   -9.3610   14.6730 C.2    35  ILE35       0.2434
     71  O          7.5050   -9.0920   15.3880 O.2    35  ILE35      -0.2733
     72  CB         5.4430   -7.1300   14.7550 C.3    35  ILE35       0.0265
     73  CG1        4.1970   -6.2990   15.1390 C.3    35  ILE35       0.0019
     74  CG2        5.7410   -6.8060   13.3250 C.3    35  ILE35       0.0020
     75  CD1        2.9160   -6.7990   14.5020 C.3    35  ILE35       0.0001
     76  N          6.6240  -10.2490   13.6440 N.am   36  PRO36      -0.2718
     77  CA         7.8850  -10.8880   13.3260 C.3    36  PRO36       0.1535
     78  C          8.7810   -9.8940   12.5960 C.2    36  PRO36       0.2599
     79  O          8.3310   -8.9000   12.0280 O.2    36  PRO36      -0.2715
     80  CB         7.4970  -12.0130   12.3700 C.3    36  PRO36       0.0310
     81  CG         6.1630  -11.5620   11.7370 C.3    36  PRO36       0.0237
     82  CD         5.5310  -10.5680   12.6930 C.3    36  PRO36       0.0939
     83  N         10.0730  -10.1540   12.5920 N.am   37  THR37      -0.1951
     84  CA        10.9720   -9.2870   11.8470 C.3    37  THR37       0.1897
     85  C         10.6000   -9.2500   10.3650 C.2    37  THR37       0.2313
     86  O         10.5750   -8.1600    9.7730 O.2    37  THR37      -0.2863
     87  CB        12.4220   -9.6980   12.1010 C.3    37  THR37       0.1794
     88  OG1       12.6550   -9.4220   13.4680 O.3    37  THR37      -0.2208
     89  CG2       13.3890   -8.8260   11.2950 C.3    37  THR37       0.0378
     90  N         12.0960   -7.3760    4.0890 N.3    60  THR60      -0.1203
     91  CA        13.4960   -7.4590    4.4630 C.3    60  THR60       0.1994
     92  C         13.6540   -6.7570    5.7770 C.2    60  THR60       0.2618
     93  O         12.9430   -5.7770    6.0590 O.2    60  THR60      -0.2717
     94  CB        14.4660   -6.8000    3.4480 C.3    60  THR60       0.1784
     95  OG1       14.3270   -5.3820    3.5140 O.3    60  THR60      -0.2211
     96  CG2       14.2170   -7.3070    1.9870 C.3    60  THR60       0.0376
     97  N         14.6000   -7.2200    6.5670 N.am   61  ALA61      -0.1965
     98  CA        14.8580   -6.5820    7.8690 C.3    61  ALA61       0.1728
     99  C         15.7410   -5.3360    7.7210 C.2    61  ALA61       0.2617
    100  O         16.6510   -5.2920    6.8590 O.2    61  ALA61      -0.2715
    101  CB        15.5530   -7.5780    8.7560 C.3    61  ALA61       0.0334
    102  N         15.5250   -4.3330    8.5710 N.am   62  GLY62      -0.1940
    103  CA        16.3440   -3.1310    8.4710 C.3    62  GLY62       0.2014
    104  C         17.6390   -3.3030    9.2500 C.2    62  GLY62       0.2638
    105  O         18.4940   -2.4180    9.2280 O.2    62  GLY62      -0.2714
    106  N         17.7860   -4.4510    9.9080 N.am   63  LEU63      -0.1977
    107  CA        18.8890   -4.7150   10.8650 C.3    63  LEU63       0.1596
    108  C         20.2440   -4.6820   10.1800 C.2    63  LEU63       0.2287
    109  O         20.4400   -5.2890    9.1120 O.2    63  LEU63      -0.2864
    110  CB        18.7040   -6.0700   11.5210 C.3    63  LEU63       0.0297
    111  CG        17.3640   -6.3210   12.2160 C.3    63  LEU63       0.0022
    112  CD1       17.0370   -7.7950   12.4320 C.3    63  LEU63       0.0001
    113  CD2       17.3940   -5.5640   13.5450 C.3    63  LEU63       0.0001
    114  N          6.0800    6.2900    6.2800 N.3   117  THR117     -0.1203
    115  CA         5.2350    5.5440    7.1680 C.3   117  THR117      0.1994
    116  C          4.8250    6.3070    8.4680 C.2   117  THR117      0.2617
    117  O          5.3970    7.2970    8.8340 O.2   117  THR117     -0.2717
    118  CB         5.9160    4.2300    7.6240 C.3   117  THR117      0.1784
    119  OG1        7.0720    4.5790    8.4000 O.3   117  THR117     -0.2211
    120  CG2        6.3180    3.3460    6.4480 C.3   117  THR117      0.0376
    121  N          3.8900    5.7260    9.2140 N.am  118  LYS118     -0.1979
    122  CA         3.4620    6.2960   10.4800 C.3   118  LYS118      0.1596
    123  C          2.8630    7.6730   10.3650 C.2   118  LYS118      0.2287
    124  O          3.0750    8.4650   11.2530 O.2   118  LYS118     -0.2864
    125  CB         4.5490    6.2680   11.5190 C.3   118  LYS118      0.0298
    126  CG         5.1640    4.8660   11.6110 C.3   118  LYS118      0.0038
    127  CD         6.1420    4.7570   12.7810 C.3   118  LYS118      0.0206
    128  CE         6.9120    3.4460   12.7020 C.3   118  LYS118      0.1093
    129  NZ         7.7700    3.2590   13.9590 N.3   118  LYS118     -0.1314
    130  N         -0.0680    8.5160   10.9650 N.3   120  ASP120     -0.1225
    131  CA        -0.8580    8.8240   12.1990 C.3   120  ASP120      0.1805
    132  C         -0.0500    9.5830   13.2950 C.2   120  ASP120      0.2597
    133  O         -0.6270   10.3840   14.0360 O.2   120  ASP120     -0.2718
    134  CB        -1.4860    7.5630   12.7680 C.3   120  ASP120      0.1424
    135  CG        -0.4020    6.5310   13.2010 C.2   120  ASP120      0.3668
    136  OD1        0.2830    5.9670   12.2980 O.co2 120  ASP120     -0.2456
    137  OD2       -0.2050    6.3590   14.4340 O.co2 120  ASP120     -0.2456
    138  N          1.2710    9.3680   13.3800 N.am  121  LEU121     -0.1979
    139  CA         2.0560    9.9870   14.4320 C.3   121  LEU121      0.1596
    140  C          2.3610   11.4240   14.0650 C.2   121  LEU121      0.2287
    141  O          2.4290   12.3150   14.9430 O.2   121  LEU121     -0.2864
    142  CB         3.3560    9.2420   14.6780 C.3   121  LEU121      0.0297
    143  CG         3.1270    7.8510   15.3130 C.3   121  LEU121      0.0022
    144  CD1        4.4650    7.1980   15.6170 C.3   121  LEU121      0.0001
    145  CD2        2.2540    7.9350   16.5540 C.3   121  LEU121      0.0001
    146  N         -0.4180    5.0520    6.8600 N.3   158  SER158     -0.1202
    147  CA        -0.3850    4.6060    8.2490 C.3   158  SER158      0.2020
    148  C         -0.9510    3.1840    8.2940 C.2   158  SER158      0.2619
    149  O         -2.1110    3.0070    7.8990 O.2   158  SER158     -0.2717
    150  CB        -1.3360    5.4870    9.0650 C.3   158  SER158      0.2103
    151  OG        -1.4060    4.9110   10.3530 O.3   158  SER158     -0.2182
    152  N         -0.1720    2.1930    8.7430 N.am  159  SER159     -0.1937
    153  CA        -0.7450    0.9080    9.0330 C.3   159  SER159      0.2055
    154  C         -1.7290    0.9860   10.1930 C.2   159  SER159      0.2642
    155  O         -2.6690    0.1800   10.2710 O.2   159  SER159     -0.2714
    156  CB         0.3310   -0.1260    9.4200 C.3   159  SER159      0.2130
    157  OG         1.1480   -0.3210    8.2860 O.3   159  SER159     -0.2179
    158  N         -1.4930    1.9110   11.0940 N.am  160  LYS160     -0.1977
    159  CA        -2.2680    1.9090   12.3220 C.3   160  LYS160      0.1596
    160  C         -3.6720    2.3820   12.0400 C.2   160  LYS160      0.2287
    161  O         -4.6190    1.7630   12.5380 O.2   160  LYS160     -0.2864
    162  CB        -1.6250    2.7430   13.4090 C.3   160  LYS160      0.0298
    163  CG        -2.5640    2.9120   14.6030 C.3   160  LYS160      0.0038
    164  CD        -1.8660    3.6770   15.7400 C.3   160  LYS160      0.0206
    165  CE        -2.8380    3.8680   16.9320 C.3   160  LYS160      0.1093
    166  NZ        -2.3220    4.8680   17.9360 N.3   160  LYS160     -0.1314
@<TRIPOS>BOND
     1    96    94    1
     2    94    95    1
     3    94    91    1
     4    90    91    1
     5    91    92    1
     6    27    26    1
     7    27    28    1
     8    92    93    2
     9    92    97   am
    10    26    25    1
    11    24    23    2
    12   114   115    1
    13    25    22    1
    14   120   118    1
    15    97    98    1
    16    22    23    1
    17    22    21    1
    18    28    29    1
    19   100    99    2
    20   146   147    1
    21    23    30   am
    22   115   118    1
    23   115   116    1
    24   118   119    1
    25    99    98    1
    26    99   102   am
    27    16    14    1
    28    98   101    1
    29    33    32    2
    30   149   148    2
    31    30    31    1
    32    21    19   am
    33    20    19    2
    34    40    39    2
    35    31    32    1
    36    31    34    1
    37   147   148    1
    38   147   150    1
    39    39    38    1
    40   157   156    1
    41   148   152   am
    42    32    37   am
    43   116   117    2
    44   116   121   am
    45   103   102    1
    46   103   104    1
    47    19    18    1
    48   152   153    1
    49    35    34    1
    50    14    15    1
    51    14    11    1
    52   153   156    1
    53   153   154    1
    54   150   151    1
    55   109   108    2
    56   121   122    1
    57   105   104    2
    58   104   106   am
    59    34    36    1
    60    37    38    1
    61    38    41    1
    62    13    12    2
    63    86    85    2
    64    18    17    1
    65   106   107    1
    66    12    17   am
    67    12    11    1
    68   108   107    1
    69   154   155    2
    70   154   158   am
    71     1     2    1
    72    11    10    1
    73    85    84    1
    74   123   122    1
    75   123   124    2
    76   122   125    1
    77    41    42    1
    78   107   110    1
    79   130   131    1
    80    10     7   am
    81   158   159    1
    82    89    87    1
    83     2     3    1
    84   125   126    1
    85   110   111    1
    86   126   127    1
    87    43    44    1
    88    60    59    1
    89    60    54    1
    90    81    80    1
    91    81    82    1
    92    84    87    1
    93    84    83    1
    94     3     4    2
    95     3     5   am
    96    59    58    1
    97    79    78    2
    98   160   159    1
    99   160   161    2
   100    87    88    1
   101     5     6    1
   102   131   134    1
   103   131   132    1
   104   111   112    1
   105   111   113    1
   106    44    47    1
   107    44    45    1
   108     7     8    2
   109     7     6    1
   110   136   135   ar
   111   159   162    1
   112    80    77    1
   113    83    78   am
   114    78    77    1
   115    82    76    1
   116   128   127    1
   117   128   129    1
   118   134   135    1
   119    49    51   ar
   120    49    48   ar
   121    54    45   am
   122    54    55    1
   123     6     9    1
   124    58    55    1
   125    47    48    1
   126    45    46    2
   127   135   137   ar
   128   132   138   am
   129   132   133    2
   130    74    72    1
   131    77    76    1
   132   138   139    1
   133   162   163    1
   134    51    53   ar
   135    76    70   am
   136    48    50   ar
   137    55    56    1
   138   140   139    1
   139   140   141    2
   140   139   142    1
   141    75    73    1
   142   163   164    1
   143    70    69    1
   144    70    71    2
   145   142   143    1
   146    72    69    1
   147    72    73    1
   148    53    52   ar
   149    57    56    2
   150    69    68    1
   151    50    52   ar
   152    56    61   am
   153   143   144    1
   154   143   145    1
   155   164   165    1
   156    61    62    1
   157   165   166    1
   158    62    65    1
   159    62    63    1
   160    67    65    1
   161    65    66    1
   162    63    64    2
