@<TRIPOS>MOLECULE
tmp/4u60C00.pdb
 76 74 0 0 0
SMALL
GASTEIGER

@<TRIPOS>ATOM
      1  N         48.9870   44.1720   40.2070 N.3    44  THR44      -0.1203
      2  CA        48.2440   44.6140   41.3820 C.3    44  THR44       0.1994
      3  C         46.8460   44.9680   40.9200 C.2    44  THR44       0.2618
      4  O         46.5880   45.0900   39.7090 O.2    44  THR44      -0.2717
      5  CB        48.9080   45.8170   42.1160 C.3    44  THR44       0.1784
      6  OG1       48.7850   46.9980   41.3040 O.3    44  THR44      -0.2211
      7  CG2       50.3740   45.5410   42.4180 C.3    44  THR44       0.0376
      8  N         45.9330   45.1080   41.8750 N.am   45  VAL45      -0.1965
      9  CA        44.5130   45.2810   41.5600 C.3    45  VAL45       0.1727
     10  C         43.9440   46.4620   42.3240 C.2    45  VAL45       0.2616
     11  O         44.1120   46.5930   43.5580 O.2    45  VAL45      -0.2715
     12  CB        43.7500   43.9720   41.8720 C.3    45  VAL45       0.0290
     13  CG1       42.2510   44.1540   41.7180 C.3    45  VAL45       0.0023
     14  CG2       44.2810   42.8610   40.9850 C.3    45  VAL45       0.0023
     15  N         43.2880   47.3390   41.5720 N.am   46  ALA46      -0.1963
     16  CA        42.7010   48.5430   42.1630 C.3    46  ALA46       0.1728
     17  C         41.6650   48.2260   43.2170 C.2    46  ALA46       0.2616
     18  O         40.8660   47.3100   43.0480 O.2    46  ALA46      -0.2715
     19  CB        42.0520   49.3900   41.0850 C.3    46  ALA46       0.0334
     20  N         41.6780   49.0020   44.3010 N.am   47  ASN47      -0.1972
     21  CA        40.6450   48.9190   45.3350 C.3    47  ASN47       0.1688
     22  C         39.3000   49.4360   44.8420 C.2    47  ASN47       0.2292
     23  O         38.2540   48.9990   45.3150 O.2    47  ASN47      -0.2864
     24  CB        41.0640   49.7070   46.5780 C.3    47  ASN47       0.1181
     25  CG        42.1330   48.9930   47.3990 C.2    47  ASN47       0.2629
     26  OD1       42.2470   47.7610   47.3820 O.2    47  ASN47      -0.2716
     27  ND2       42.9060   49.7690   48.1630 N.am   47  ASN47      -0.0877
     28  N         40.6650   54.6970   42.0840 N.3    51  GLN51      -0.1231
     29  CA        41.9870   54.5050   42.6670 C.3    51  GLN51       0.1698
     30  C         42.6990   53.4070   41.8870 C.2    51  GLN51       0.2592
     31  O         43.2890   52.4780   42.4500 O.2    51  GLN51      -0.2718
     32  CB        41.8540   54.1380   44.1560 C.3    51  GLN51       0.0381
     33  CG        41.1600   55.1970   44.9960 C.3    51  GLN51       0.0905
     34  CD        41.9550   56.4930   45.1150 C.2    51  GLN51       0.2608
     35  OE1       43.1900   56.5030   44.9920 O.2    51  GLN51      -0.2717
     36  NE2       41.2610   57.5910   45.3850 N.am   51  GLN51      -0.0878
     37  N         42.6140   53.4960   40.5640 N.am   52  ASP52      -0.1960
     38  CA        43.1840   52.4990   39.6700 C.3    52  ASP52       0.1840
     39  C         44.4800   53.0730   39.1170 C.2    52  ASP52       0.2622
     40  O         44.4760   53.8240   38.1490 O.2    52  ASP52      -0.2715
     41  CB        42.1650   52.1630   38.5840 C.3    52  ASP52       0.1450
     42  CG        42.5630   51.0020   37.7180 C.2    52  ASP52       0.3671
     43  OD1       43.7070   50.5000   37.7870 O.co2  52  ASP52      -0.2456
     44  OD2       41.6880   50.5860   36.9150 O.co2  52  ASP52      -0.2456
     45  N         45.5720   52.7500   39.7960 N.am   53  LYS53      -0.1964
     46  CA        46.8830   53.3120   39.5160 C.3    53  LYS53       0.1713
     47  C         47.8810   52.1630   39.4010 C.2    53  LYS53       0.2458
     48  O         48.4500   51.7210   40.4000 O.2    53  LYS53      -0.2730
     49  CB        47.2760   54.2670   40.6310 C.3    53  LYS53       0.0311
     50  CG        48.5470   55.0330   40.3530 C.3    53  LYS53       0.0038
     51  CD        48.8060   56.0260   41.4610 C.3    53  LYS53       0.0206
     52  CE        50.1370   56.7290   41.2330 C.3    53  LYS53       0.1093
     53  NZ        50.3880   57.7990   42.2260 N.3    53  LYS53      -0.1314
     54  N         48.0750   51.6620   38.1830 N.am   54  PRO54      -0.2716
     55  CA        49.0210   50.5540   38.0540 C.3    54  PRO54       0.1536
     56  C         50.4100   50.9130   38.5200 C.2    54  PRO54       0.2599
     57  O         50.8580   52.0530   38.3570 O.2    54  PRO54      -0.2715
     58  CB        49.0080   50.2320   36.5430 C.3    54  PRO54       0.0310
     59  CG        48.3270   51.3960   35.8940 C.3    54  PRO54       0.0237
     60  CD        47.4160   51.9880   36.9010 C.3    54  PRO54       0.0939
     61  N         51.0880   49.9530   39.1440 N.am   55  THR55      -0.1951
     62  CA        52.4480   50.1790   39.5750 C.3    55  THR55       0.1897
     63  C         53.3510   50.3060   38.3510 C.2    55  THR55       0.2313
     64  O         53.0200   49.8540   37.2310 O.2    55  THR55      -0.2863
     65  CB        52.9460   49.0330   40.4670 C.3    55  THR55       0.1794
     66  OG1       52.8650   47.7920   39.7580 O.3    55  THR55      -0.2208
     67  CG2       52.1010   48.9460   41.7430 C.3    55  THR55       0.0378
     68  N         54.1210   47.1890   35.6180 N.3    58  GLU58      -0.1245
     69  CA        53.1810   46.0750   35.5650 C.3    58  GLU58       0.1567
     70  C         52.3300   46.0400   34.3010 C.2    58  GLU58       0.2260
     71  O         51.4710   45.1740   34.1830 O.2    58  GLU58      -0.2867
     72  CB        52.2750   46.0180   36.8020 C.3    58  GLU58       0.0388
     73  CG        51.1420   47.0350   36.8910 C.3    58  GLU58       0.1160
     74  CD        50.1910   46.6760   38.0110 C.2    58  GLU58       0.3649
     75  OE1       50.3600   47.2350   39.1310 O.co2  58  GLU58      -0.2457
     76  OE2       49.3240   45.7990   37.7780 O.co2  58  GLU58      -0.2457
@<TRIPOS>BOND
     1    71    70    2
     2    70    69    1
     3    69    68    1
     4    69    72    1
     5    59    58    1
     6    59    60    1
     7    58    55    1
     8    72    73    1
     9    73    74    1
    10    60    54    1
    11    44    42   ar
    12    64    63    2
    13    42    43   ar
    14    42    41    1
    15    76    74   ar
    16    74    75   ar
    17    55    54    1
    18    55    56    1
    19    40    39    2
    20    54    47   am
    21    63    62    1
    22    57    56    2
    23    56    61   am
    24    41    38    1
    25    39    38    1
    26    39    45   am
    27    61    62    1
    28    47    46    1
    29    47    48    2
    30    46    45    1
    31    46    49    1
    32    62    65    1
    33    38    37    1
    34     4     3    2
    35    66    65    1
    36     1     2    1
    37    50    49    1
    38    50    51    1
    39    65    67    1
    40    37    30   am
    41     3     2    1
    42     3     8   am
    43    14    12    1
    44    19    16    1
    45    52    51    1
    46    52    53    1
    47     6     5    1
    48     2     5    1
    49     9    12    1
    50     9     8    1
    51     9    10    1
    52    15    16    1
    53    15    10   am
    54    13    12    1
    55    30    31    2
    56    30    29    1
    57    28    29    1
    58     5     7    1
    59    16    17    1
    60    10    11    2
    61    29    32    1
    62    18    17    2
    63    17    20   am
    64    32    33    1
    65    20    21    1
    66    22    23    2
    67    22    21    1
    68    35    34    2
    69    33    34    1
    70    34    36   am
    71    21    24    1
    72    24    25    1
    73    26    25    2
    74    25    27   am
