@<TRIPOS>MOLECULE
tmp/4u68A00.pdb
 175 174 0 0 0
SMALL
GASTEIGER

@<TRIPOS>ATOM
      1  N        -23.4960    0.3610   40.7590 N.3     1  GLU1       -0.1231
      2  CA       -22.7890    1.1640   39.7600 C.3     1  GLU1        0.1699
      3  C        -23.5200    1.2160   38.4160 C.2     1  GLU1        0.2592
      4  O        -23.9020    0.1800   37.8590 O.2     1  GLU1       -0.2718
      5  CB       -21.3730    0.6320   39.5700 C.3     1  GLU1        0.0402
      6  CG       -20.6820    1.2270   38.3540 C.3     1  GLU1        0.1161
      7  CD       -19.2030    0.9950   38.3040 C.2     1  GLU1        0.3649
      8  OE1      -18.7890   -0.0470   37.7490 O.co2   1  GLU1       -0.2457
      9  OE2      -18.4220    1.9090   38.7370 O.co2   1  GLU1       -0.2457
     10  N        -23.6980    2.4260   37.8910 N.am    2  TYR2       -0.1962
     11  CA       -24.5060    2.6440   36.6960 C.3     2  TYR2        0.1771
     12  C        -23.7040    3.2730   35.5680 C.2     2  TYR2        0.2619
     13  O        -22.7150    3.9690   35.8120 O.2     2  TYR2       -0.2715
     14  CB       -25.6880    3.5440   37.0300 C.3     2  TYR2        0.0574
     15  CG       -26.7170    2.9350   37.9530 C.ar    2  TYR2       -0.0198
     16  CD1      -26.4650    2.7930   39.3100 C.ar    2  TYR2       -0.0009
     17  CD2      -27.9630    2.5480   37.4720 C.ar    2  TYR2       -0.0009
     18  CE1      -27.4090    2.2530   40.1590 C.ar    2  TYR2        0.0417
     19  CE2      -28.9200    2.0040   38.3160 C.ar    2  TYR2        0.0417
     20  CZ       -28.6380    1.8610   39.6570 C.ar    2  TYR2        0.1957
     21  OH       -29.5800    1.3260   40.5080 O.3     2  TYR2       -0.2866
     22  N        -24.1430    3.0590   34.3310 N.am    3  VAL3       -0.1963
     23  CA       -23.4980    3.6890   33.1940 C.3     3  VAL3        0.1727
     24  C        -23.7930    5.1870   33.1970 C.2     3  VAL3        0.2616
     25  O        -24.9290    5.6110   33.4150 O.2     3  VAL3       -0.2715
     26  CB       -23.9590    3.0630   31.8530 C.3     3  VAL3        0.0290
     27  CG1      -23.3040    3.7730   30.6780 C.3     3  VAL3        0.0023
     28  CG2      -23.6290    1.5890   31.8240 C.3     3  VAL3        0.0023
     29  N        -22.7580    5.9840   32.9650 N.am    4  VAL4       -0.1977
     30  CA       -22.8920    7.4320   32.9660 C.3     4  VAL4        0.1596
     31  C        -22.9280    7.9530   31.5350 C.2     4  VAL4        0.2287
     32  O        -22.1390    7.5100   30.7030 O.2     4  VAL4       -0.2864
     33  CB       -21.7170    8.0850   33.7460 C.3     4  VAL4        0.0276
     34  CG1      -21.7410    9.5960   33.6130 C.3     4  VAL4        0.0022
     35  CG2      -21.7650    7.6560   35.1970 C.3     4  VAL4        0.0022
     36  N        -24.1940   14.1910   37.6530 N.3    21  VAL21      -0.1245
     37  CA       -24.1440   13.0350   36.7670 C.3    21  VAL21       0.1561
     38  C        -25.4760   12.8300   36.0460 C.2    21  VAL21       0.2260
     39  O        -26.5280   12.7490   36.6810 O.2    21  VAL21      -0.2867
     40  CB       -23.8110   11.7430   37.5350 C.3    21  VAL21       0.0252
     41  CG1      -23.7670   10.5500   36.5960 C.3    21  VAL21       0.0019
     42  CG2      -22.4700   11.8630   38.2800 C.3    21  VAL21       0.0019
     43  N        -27.2960   10.0150   34.2060 N.3    23  TRP23      -0.1241
     44  CA       -27.1860    8.5670   34.1010 C.3    23  TRP23       0.1605
     45  C        -27.7680    8.0570   32.7750 C.2    23  TRP23       0.2264
     46  O        -28.8390    8.4940   32.3520 O.2    23  TRP23      -0.2867
     47  CB       -27.8910    7.9060   35.2820 C.3    23  TRP23       0.0550
     48  CG       -27.3710    8.3740   36.6070 C.ar   23  TRP23       0.0003
     49  CD1      -27.8970    9.3490   37.4030 C.ar   23  TRP23       0.0946
     50  CD2      -26.1870    7.9090   37.2700 C.ar   23  TRP23       0.0152
     51  NE1      -27.1240    9.5090   38.5380 N.ar   23  TRP23      -0.2442
     52  CE2      -26.0680    8.6350   38.4760 C.ar   23  TRP23       0.0810
     53  CE3      -25.2150    6.9480   36.9600 C.ar   23  TRP23       0.0012
     54  CZ2      -25.0190    8.4270   39.3730 C.ar   23  TRP23       0.0191
     55  CZ3      -24.1750    6.7350   37.8630 C.ar   23  TRP23       0.0001
     56  CH2      -24.0860    7.4730   39.0480 C.ar   23  TRP23       0.0015
     57  N        -31.6210    7.0450   32.0280 N.3    26  PHE26      -0.1241
     58  CA       -32.4740    7.7930   32.9490 C.3    26  PHE26       0.1605
     59  C        -32.6570    9.2020   32.4220 C.2    26  PHE26       0.2264
     60  O        -31.7450    9.7610   31.8160 O.2    26  PHE26      -0.2867
     61  CB       -31.8750    7.8340   34.3600 C.3    26  PHE26       0.0534
     62  CG       -31.8400    6.4960   35.0460 C.ar   26  PHE26      -0.0203
     63  CD1      -32.7750    6.1780   36.0180 C.ar   26  PHE26      -0.0042
     64  CD2      -30.8790    5.5550   34.7140 C.ar   26  PHE26      -0.0042
     65  CE1      -32.7470    4.9520   36.6480 C.ar   26  PHE26      -0.0003
     66  CE2      -30.8490    4.3220   35.3390 C.ar   26  PHE26      -0.0003
     67  CZ       -31.7870    4.0200   36.3070 C.ar   26  PHE26      -0.0000
     68  N        -33.5770   12.7380   36.9530 N.3    30  ASN30      -0.1240
     69  CA       -32.9250   11.8970   37.9500 C.3    30  ASN30       0.1653
     70  C        -31.4120   12.1000   38.0440 C.2    30  ASN30       0.2266
     71  O        -30.7120   11.2390   38.5750 O.2    30  ASN30      -0.2867
     72  CB       -33.2240   10.4300   37.6710 C.3    30  ASN30       0.1155
     73  CG       -34.6950   10.0840   37.8790 C.2    30  ASN30       0.2627
     74  OD1      -35.3680    9.6240   36.9640 O.2    30  ASN30      -0.2716
     75  ND2      -35.1910   10.3030   39.0900 N.am   30  ASN30      -0.0877
     76  N        -27.9700   13.2490   39.5770 N.3    32  THR32      -0.1203
     77  CA       -27.5740   13.3280   40.9850 C.3    32  THR32       0.1994
     78  C        -26.1750   13.9130   41.1350 C.2    32  THR32       0.2618
     79  O        -25.3270   13.7100   40.2660 O.2    32  THR32      -0.2717
     80  CB       -27.5960   11.9560   41.6660 C.3    32  THR32       0.1784
     81  OG1      -26.7040   11.0600   40.9930 O.3    32  THR32      -0.2211
     82  CG2      -29.0120   11.3720   41.6630 C.3    32  THR32       0.0376
     83  N        -25.9500   14.6240   42.2390 N.am   33  TRP33      -0.1961
     84  CA       -24.6040   15.0680   42.6100 C.3    33  TRP33       0.1771
     85  C        -23.8620   13.9070   43.2810 C.2    33  TRP33       0.2619
     86  O        -24.3940   13.2480   44.1830 O.2    33  TRP33      -0.2715
     87  CB       -24.6470   16.2860   43.5420 C.3    33  TRP33       0.0590
     88  CG       -25.0930   17.5600   42.8750 C.ar   33  TRP33       0.0006
     89  CD1      -26.3440   18.1020   42.9130 C.ar   33  TRP33       0.0946
     90  CD2      -24.2960   18.4540   42.0810 C.ar   33  TRP33       0.0152
     91  NE1      -26.3770   19.2720   42.1980 N.ar   33  TRP33      -0.2442
     92  CE2      -25.1290   19.5160   41.6830 C.ar   33  TRP33       0.0810
     93  CE3      -22.9550   18.4650   41.6760 C.ar   33  TRP33       0.0012
     94  CZ2      -24.6780   20.5640   40.8840 C.ar   33  TRP33       0.0191
     95  CZ3      -22.5060   19.5160   40.9020 C.ar   33  TRP33       0.0001
     96  CH2      -23.3600   20.5480   40.5080 C.ar   33  TRP33       0.0015
     97  N        -22.6420   13.6420   42.8230 N.am   34  GLU34      -0.1964
     98  CA       -21.8530   12.5510   43.3670 C.3    34  GLU34       0.1718
     99  C        -20.4750   13.0280   43.7510 C.2    34  GLU34       0.2458
    100  O        -19.9050   13.8640   43.0550 O.2    34  GLU34      -0.2730
    101  CB       -21.7310   11.4160   42.3560 C.3    34  GLU34       0.0428
    102  CG       -23.0650   10.8900   41.8510 C.3    34  GLU34       0.1163
    103  CD       -23.8550   10.1430   42.9130 C.2    34  GLU34       0.3649
    104  OE1      -23.2690    9.7830   43.9510 O.co2  34  GLU34      -0.2457
    105  OE2      -25.0660    9.9010   42.7030 O.co2  34  GLU34      -0.2457
    106  N        -19.9210   12.4790   44.8470 N.am   35  PRO35      -0.2727
    107  CA       -18.5400   12.8020   45.2130 C.3    35  PRO35       0.1402
    108  C        -17.5840   12.4070   44.1070 C.2    35  PRO35       0.2269
    109  O        -17.7660   11.3700   43.4880 O.2    35  PRO35      -0.2865
    110  CB       -18.2880   11.9630   46.4760 C.3    35  PRO35       0.0296
    111  CG       -19.3820   10.9480   46.5070 C.3    35  PRO35       0.0237
    112  CD       -20.5560   11.5780   45.8230 C.3    35  PRO35       0.0939
    113  N        -14.9350   11.1950   44.3280 N.3    37  GLU37      -0.1231
    114  CA       -14.3970    9.8830   44.6810 C.3    37  GLU37       0.1699
    115  C        -15.1940    8.7420   44.0380 C.2    37  GLU37       0.2592
    116  O        -14.6920    7.6280   43.9070 O.2    37  GLU37      -0.2718
    117  CB       -14.3690    9.7090   46.2070 C.3    37  GLU37       0.0402
    118  CG       -13.3570   10.5930   46.9220 C.3    37  GLU37       0.1161
    119  CD       -13.9360   11.9200   47.3800 C.2    37  GLU37       0.3649
    120  OE1      -13.4620   12.4430   48.4150 O.co2  37  GLU37      -0.2457
    121  OE2      -14.8550   12.4480   46.7130 O.co2  37  GLU37      -0.2457
    122  N        -16.4260    9.0290   43.6250 N.am   38  ASN38      -0.1960
    123  CA       -17.3100    8.0120   43.0560 C.3    38  ASN38       0.1819
    124  C        -17.1680    7.8140   41.5440 C.2    38  ASN38       0.2621
    125  O        -17.7190    6.8640   40.9960 O.2    38  ASN38      -0.2715
    126  CB       -18.7780    8.3550   43.3580 C.3    38  ASN38       0.1195
    127  CG       -19.2290    7.8940   44.7330 C.2    38  ASN38       0.2630
    128  OD1      -18.4150    7.5710   45.5940 O.2    38  ASN38      -0.2716
    129  ND2      -20.5470    7.8750   44.9440 N.am   38  ASN38      -0.0877
    130  N        -16.4540    8.6990   40.8530 N.am   39  VAL39      -0.1977
    131  CA       -16.5450    8.6910   39.3930 C.3    39  VAL39       0.1596
    132  C        -15.2450    8.2800   38.6760 C.2    39  VAL39       0.2287
    133  O        -15.0190    8.6280   37.5150 O.2    39  VAL39      -0.2864
    134  CB       -17.0400   10.0780   38.8750 C.3    39  VAL39       0.0276
    135  CG1      -18.3820   10.4000   39.4970 C.3    39  VAL39       0.0022
    136  CG2      -16.0460   11.1850   39.1960 C.3    39  VAL39       0.0022
    137  N        -14.4950    5.6040   37.2950 N.3    41  ASN41      -0.1225
    138  CA       -14.7040    4.7730   36.1140 C.3    41  ASN41       0.1785
    139  C        -15.3520    5.5030   34.9310 C.2    41  ASN41       0.2597
    140  O        -15.7330    4.8710   33.9320 O.2    41  ASN41      -0.2718
    141  CB       -15.5400    3.5450   36.5060 C.3    41  ASN41       0.1169
    142  CG       -14.7310    2.5250   37.2930 C.2    41  ASN41       0.2627
    143  OD1      -13.5930    2.2300   36.9420 O.2    41  ASN41      -0.2716
    144  ND2      -15.3150    1.9850   38.3570 N.am   41  ASN41      -0.0877
    145  N        -15.4820    6.8250   35.0390 N.am   42  CYS42      -0.1956
    146  CA       -15.9690    7.6320   33.9150 C.3    42  CYS42       0.1843
    147  C        -15.1250    8.9010   33.7300 C.2    42  CYS42       0.2625
    148  O        -15.6490   10.0060   33.5330 O.2    42  CYS42      -0.2714
    149  CB       -17.4620    7.9830   34.0950 C.3    42  CYS42       0.0997
    150  SG       -17.9230    8.9820   35.5380 S.3    42  CYS42      -0.0797
    151  N        -13.8070    8.7460   33.7790 N.am   43  MET43      -0.1963
    152  CA       -12.9370    9.9160   33.7150 C.3    43  MET43       0.1736
    153  C        -12.8430   10.4850   32.3100 C.2    43  MET43       0.2616
    154  O        -12.4320   11.6230   32.1280 O.2    43  MET43      -0.2715
    155  CB       -11.5380    9.5770   34.2490 C.3    43  MET43       0.0427
    156  CG       -11.5310    9.3700   35.7670 C.3    43  MET43       0.0599
    157  SD       -12.2830   10.7160   36.6950 S.3    43  MET43      -0.1393
    158  CE       -11.1260   12.0280   36.3500 C.3    43  MET43       0.0692
    159  N        -13.2190    9.7100   31.3030 N.am   44  LYS44      -0.1963
    160  CA       -13.2930   10.2950   29.9870 C.3    44  LYS44       0.1728
    161  C        -14.4070   11.3530   29.9700 C.2    44  LYS44       0.2616
    162  O        -14.2320   12.4260   29.4020 O.2    44  LYS44      -0.2715
    163  CB       -13.5380    9.2420   28.9190 C.3    44  LYS44       0.0311
    164  CG       -13.4390    9.8170   27.5270 C.3    44  LYS44       0.0038
    165  CD       -13.5240    8.7320   26.4700 C.3    44  LYS44       0.0206
    166  CE       -14.9700    8.4470   26.1580 C.3    44  LYS44       0.1093
    167  NZ       -15.1580    7.9970   24.7520 N.3    44  LYS44      -0.1314
    168  N        -15.5450   11.0460   30.5820 N.am   45  LEU45      -0.1977
    169  CA       -16.6470   12.0200   30.6390 C.3    45  LEU45       0.1596
    170  C        -16.3120   13.1800   31.5750 C.2    45  LEU45       0.2287
    171  O        -16.7260   14.3250   31.3670 O.2    45  LEU45      -0.2864
    172  CB       -17.9310   11.3400   31.0940 C.3    45  LEU45       0.0297
    173  CG       -18.3880   10.2530   30.1100 C.3    45  LEU45       0.0022
    174  CD1      -19.6900    9.6090   30.5690 C.3    45  LEU45       0.0001
    175  CD2      -18.5180   10.8210   28.7080 C.3    45  LEU45       0.0001
@<TRIPOS>BOND
     1   167   166    1
     2   166   165    1
     3   165   164    1
     4   164   163    1
     5   175   173    1
     6   163   160    1
     7   162   161    2
     8   161   160    1
     9   161   168   am
    10   160   159    1
    11   173   174    1
    12   173   172    1
    13   168   169    1
    14   169   172    1
    15   169   170    1
    16    27    26    1
    17    32    31    2
    18   159   153   am
    19   171   170    2
    20    31    30    1
    21    60    59    2
    22    28    26    1
    23    26    23    1
    24    57    58    1
    25   154   153    2
    26   153   152    1
    27    46    45    2
    28    59    58    1
    29    45    44    1
    30    58    61    1
    31    29    30    1
    32    29    24   am
    33    30    33    1
    34    23    24    1
    35    23    22    1
    36    24    25    2
    37   148   147    2
    38    34    33    1
    39   152   151    1
    40   152   155    1
    41   147   151   am
    42   147   146    1
    43    33    35    1
    44   146   149    1
    45   146   145    1
    46   140   139    2
    47   149   150    1
    48    44    43    1
    49    44    47    1
    50   155   156    1
    51    22    12   am
    52    61    62    1
    53    64    62   ar
    54    64    66   ar
    55   139   145   am
    56   139   138    1
    57    62    63   ar
    58    47    48    1
    59    66    67   ar
    60    12    13    2
    61    12    11    1
    62   156   157    1
    63    63    65   ar
    64    38    39    2
    65    38    37    1
    66   138   141    1
    67   138   137    1
    68    67    65   ar
    69   158   157    1
    70   141   142    1
    71    41    40    1
    72    48    50   ar
    73    48    49   ar
    74    11    14    1
    75    11    10    1
    76    37    40    1
    77    37    36    1
    78   143   142    2
    79    68    69    1
    80    53    50   ar
    81    53    55   ar
    82    74    73    2
    83    14    15    1
    84    50    52   ar
    85   142   144   am
    86    49    51   ar
    87    17    15   ar
    88    17    19   ar
    89   133   132    2
    90    40    42    1
    91    72    73    1
    92    72    69    1
    93     8     7   ar
    94     4     3    2
    95    55    56   ar
    96    73    75   am
    97    10     3   am
    98    69    70    1
    99    15    16   ar
   100    70    71    2
   101     7     6    1
   102     7     9   ar
   103    19    20   ar
   104     6     5    1
   105     3     2    1
   106    52    51   ar
   107    52    54   ar
   108   132   131    1
   109   134   136    1
   110   134   131    1
   111   134   135    1
   112    56    54   ar
   113    16    18   ar
   114   131   130    1
   115     5     2    1
   116    76    77    1
   117    20    18   ar
   118    20    21    1
   119     2     1    1
   120    79    78    2
   121    96    94   ar
   122    96    95   ar
   123   130   124   am
   124    94    92   ar
   125    95    93   ar
   126    77    78    1
   127    77    80    1
   128    81    80    1
   129   125   124    2
   130    78    83   am
   131   124   123    1
   132    82    80    1
   133    93    90   ar
   134    92    90   ar
   135    92    91   ar
   136   102   101    1
   137   102   103    1
   138    90    88   ar
   139    91    89   ar
   140    83    84    1
   141   101    98    1
   142    84    85    1
   143    84    87    1
   144   105   103   ar
   145    97    85   am
   146    97    98    1
   147    88    89   ar
   148    88    87    1
   149   103   104   ar
   150   100    99    2
   151   123   126    1
   152   123   122    1
   153    85    86    2
   154   126   127    1
   155    98    99    1
   156   109   108    2
   157   122   115   am
   158    99   106   am
   159   116   115    2
   160   115   114    1
   161   108   107    1
   162   113   114    1
   163   114   117    1
   164   127   129   am
   165   127   128    2
   166   106   107    1
   167   106   112    1
   168   107   110    1
   169   112   111    1
   170   117   118    1
   171   110   111    1
   172   121   119   ar
   173   118   119    1
   174   119   120   ar
