@<TRIPOS>MOLECULE
tmp/4u69A00.pdb
 165 160 0 0 0
SMALL
GASTEIGER

@<TRIPOS>ATOM
      1  N         29.2960   -7.4000    9.8610 N.3   103  PRO103     -0.2116
      2  CA        28.2200   -8.4170    9.8770 C.3   103  PRO103      0.1372
      3  C         28.6340   -9.8450    9.9740 C.2   103  PRO103      0.2244
      4  O         27.8270  -10.7070   10.3900 O.2   103  PRO103     -0.2868
      5  CB        27.5500   -8.2340    8.4820 C.3   103  PRO103      0.0268
      6  CG        27.8290   -6.8220    8.1370 C.3   103  PRO103      0.0207
      7  CD        29.2280   -6.5770    8.6120 C.3   103  PRO103      0.0892
      8  N         28.2480  -11.9770   12.9750 N.3   106  TYR106     -0.1241
      9  CA        27.5780  -11.3190   14.0690 C.3   106  TYR106      0.1605
     10  C         26.3150  -12.1110   14.3890 C.2   106  TYR106      0.2264
     11  O         25.3700  -12.2250   13.6050 O.2   106  TYR106     -0.2867
     12  CB        27.1790   -9.8900   13.6490 C.3   106  TYR106      0.0534
     13  CG        26.5680   -9.0420   14.7220 C.ar  106  TYR106     -0.0201
     14  CD1       27.3040   -8.6860   15.8500 C.ar  106  TYR106     -0.0009
     15  CD2       25.2590   -8.6350   14.6740 C.ar  106  TYR106     -0.0009
     16  CE1       26.7600   -7.8950   16.8500 C.ar  106  TYR106      0.0417
     17  CE2       24.6800   -7.8300   15.7190 C.ar  106  TYR106      0.0417
     18  CZ        25.4720   -7.4630   16.8020 C.ar  106  TYR106      0.1957
     19  OH        24.8740   -6.6560   17.7550 O.3   106  TYR106     -0.2866
     20  N         25.3690  -14.3920   11.5840 N.3   109  PHE109     -0.1241
     21  CA        25.0340  -13.8560   10.2430 C.3   109  PHE109      0.1605
     22  C         26.1010  -14.3560    9.3070 C.2   109  PHE109      0.2264
     23  O         27.2990  -14.2310    9.5990 O.2   109  PHE109     -0.2867
     24  CB        24.9660  -12.3460   10.2400 C.3   109  PHE109      0.0534
     25  CG        24.4280  -11.7710    8.9420 C.ar  109  PHE109     -0.0203
     26  CD1       23.0670  -11.7080    8.6810 C.ar  109  PHE109     -0.0042
     27  CD2       25.3040  -11.2780    8.0120 C.ar  109  PHE109     -0.0042
     28  CE1       22.6460  -11.2430    7.4650 C.ar  109  PHE109     -0.0003
     29  CE2       24.8540  -10.8300    6.7640 C.ar  109  PHE109     -0.0003
     30  CZ        23.4990  -10.7880    6.5690 C.ar  109  PHE109     -0.0000
     31  N         24.3490   -6.8510    4.3310 N.3   114  CYS114     -0.1235
     32  CA        22.9750   -7.2320    4.2390 C.3   114  CYS114      0.1677
     33  C         22.4150   -6.6730    2.9290 C.2   114  CYS114      0.2270
     34  O         22.6210   -5.4880    2.6700 O.2   114  CYS114     -0.2867
     35  CB        22.0980   -6.7960    5.3460 C.3   114  CYS114      0.0956
     36  SG        22.6590   -7.1770    6.9970 S.3   114  CYS114     -0.0801
     37  N         14.8530   -5.5290    6.0800 N.3   122  CYS122     -0.1221
     38  CA        16.2580   -5.4440    6.4560 C.3   122  CYS122      0.1808
     39  C         16.8420   -6.8110    6.6880 C.2   122  CYS122      0.2601
     40  O         16.1090   -7.7840    6.7930 O.2   122  CYS122     -0.2717
     41  CB        16.4520   -4.5280    7.6590 C.3   122  CYS122      0.0970
     42  SG        15.8210   -5.1540    9.2760 S.3   122  CYS122     -0.0800
     43  N         18.1640   -6.8760    6.7590 N.am  123  HIS123     -0.1975
     44  CA        18.8710   -8.0320    7.1530 C.3   123  HIS123      0.1656
     45  C         18.7920   -9.1970    6.1680 C.2   123  HIS123      0.2291
     46  O         19.0640  -10.3510    6.5390 O.2   123  HIS123     -0.2864
     47  CB        18.5330   -8.4930    8.6030 C.3   123  HIS123      0.0771
     48  CG        18.6830   -7.4110    9.5580 C.ar  123  HIS123      0.0820
     49  ND1       18.0480   -7.3930   10.8060 N.ar  123  HIS123     -0.2267
     50  CD2       19.4170   -6.2730    9.4780 C.ar  123  HIS123      0.1154
     51  CE1       18.4400   -6.3050   11.4530 C.ar  123  HIS123      0.1986
     52  NE2       19.1860   -5.5670   10.6290 N.ar  123  HIS123     -0.2212
     53  N         23.4590   -2.6980    3.1790 N.3   140  ASP140     -0.1239
     54  CA        23.8290   -2.2320    4.5290 C.3   140  ASP140      0.1674
     55  C         25.2680   -2.7590    4.7360 C.2   140  ASP140      0.2266
     56  O         25.5110   -3.9270    4.7090 O.2   140  ASP140     -0.2867
     57  CB        22.7900   -2.7080    5.5660 C.3   140  ASP140      0.1410
     58  CG        22.9440   -2.0120    6.8840 C.2   140  ASP140      0.3668
     59  OD1       24.0400   -1.5860    7.1460 O.co2 140  ASP140     -0.2456
     60  OD2       21.9770   -1.8570    7.5230 O.co2 140  ASP140     -0.2456
     61  N         28.6590   -2.3900    7.2820 N.3   142  THR142     -0.1218
     62  CA        29.3270   -2.0350    8.5430 C.3   142  THR142      0.1862
     63  C         30.7770   -2.6070    8.5420 C.2   142  THR142      0.2287
     64  O         31.0360   -3.7520    8.2440 O.2   142  THR142     -0.2866
     65  CB        28.5680   -2.5330    9.8170 C.3   142  THR142      0.1770
     66  OG1       27.1750   -2.1920    9.6940 O.3   142  THR142     -0.2211
     67  CG2       29.2160   -1.9560   11.0130 C.3   142  THR142      0.0375
     68  N         28.6090    2.2650   10.3570 N.3   151  ASP151     -0.1239
     69  CA        27.4140    1.6120    9.8340 C.3   151  ASP151      0.1674
     70  C         26.6100    2.5800    8.9780 C.2   151  ASP151      0.2266
     71  O         26.2260    3.6760    9.3360 O.2   151  ASP151     -0.2867
     72  CB        26.5860    1.1410   11.0620 C.3   151  ASP151      0.1410
     73  CG        25.3690    0.3110   10.7930 C.2   151  ASP151      0.3668
     74  OD1       25.0830   -0.1300    9.6430 O.co2 151  ASP151     -0.2456
     75  OD2       24.6690   -0.0650   11.8260 O.co2 151  ASP151     -0.2456
     76  N         12.5150   -2.8070   14.5400 N.3   211  TYR211     -0.1227
     77  CA        13.9130   -2.5280   14.3800 C.3   211  TYR211      0.1736
     78  C         14.1180   -1.0260   14.5480 C.2   211  TYR211      0.2595
     79  O         13.3530   -0.1930   14.0110 O.2   211  TYR211     -0.2718
     80  CB        14.3710   -2.9180   12.9210 C.3   211  TYR211      0.0548
     81  CG        14.2800   -4.4340   12.7000 C.ar  211  TYR211     -0.0200
     82  CD1       15.2560   -5.2680   13.1430 C.ar  211  TYR211     -0.0009
     83  CD2       13.2040   -5.0050   12.1220 C.ar  211  TYR211     -0.0009
     84  CE1       15.1690   -6.6390   13.0310 C.ar  211  TYR211      0.0417
     85  CE2       13.0820   -6.3660   12.0170 C.ar  211  TYR211      0.0417
     86  CZ        14.0640   -7.1630   12.3950 C.ar  211  TYR211      0.1957
     87  OH        13.9460   -8.5460   12.2980 O.3   211  TYR211     -0.2866
     88  N         15.2510   -0.7280   15.2120 N.am  212  CYS212     -0.1970
     89  CA        15.5390    0.6370   15.7140 C.3   212  CYS212      0.1712
     90  C         16.9630    1.0960   15.3440 C.2   212  CYS212      0.2296
     91  O         17.8430    0.2520   15.0910 O.2   212  CYS212     -0.2864
     92  CB        15.3740    0.7230   17.2530 C.3   212  CYS212      0.0983
     93  SG        13.6860    0.3760   17.7160 S.3   212  CYS212     -0.0798
     94  N         20.5560    2.8960   16.6430 N.3   214  HIS214     -0.1241
     95  CA        21.3160    2.3640   17.7590 C.3   214  HIS214      0.1621
     96  C         22.5760    3.1310   17.9700 C.2   214  HIS214      0.2264
     97  O         23.2280    3.5960   17.0560 O.2   214  HIS214     -0.2867
     98  CB        21.6100    0.8990   17.5730 C.3   214  HIS214      0.0745
     99  CG        22.3290    0.6620   16.2770 C.ar  214  HIS214      0.0817
    100  ND1       23.6980    0.6300   16.1270 N.ar  214  HIS214     -0.2268
    101  CD2       21.7820    0.4360   15.0890 C.ar  214  HIS214      0.1154
    102  CE1       23.9610    0.4410   14.8390 C.ar  214  HIS214      0.1986
    103  NE2       22.8160    0.3510   14.2010 N.ar  214  HIS214     -0.2212
    104  N         28.8930   -2.7150   18.4040 N.3   220  PHE220     -0.1227
    105  CA        28.1010   -2.6130   17.1310 C.3   220  PHE220      0.1736
    106  C         26.7480   -2.0350   17.3950 C.2   220  PHE220      0.2595
    107  O         26.2850   -1.0880   16.7350 O.2   220  PHE220     -0.2718
    108  CB        28.1130   -3.9960   16.4930 C.3   220  PHE220      0.0547
    109  CG        27.6050   -4.1040   15.0320 C.ar  220  PHE220     -0.0202
    110  CD1       27.0890   -3.0100   14.3180 C.ar  220  PHE220     -0.0042
    111  CD2       27.7840   -5.3010   14.3750 C.ar  220  PHE220     -0.0042
    112  CE1       26.6040   -3.1440   13.0010 C.ar  220  PHE220     -0.0003
    113  CE2       27.3080   -5.4710   13.0720 C.ar  220  PHE220     -0.0003
    114  CZ        26.7300   -4.3690   12.3610 C.ar  220  PHE220     -0.0000
    115  N         26.0410   -2.5880   18.3980 N.am  221  HIS221     -0.1975
    116  CA        24.7250   -2.0980   18.8030 C.3   221  HIS221      0.1656
    117  C         24.7530   -1.8690   20.3040 C.2   221  HIS221      0.2291
    118  O         24.9940   -2.7870   21.0840 O.2   221  HIS221     -0.2864
    119  CB        23.6100   -3.0480   18.5120 C.3   221  HIS221      0.0771
    120  CG        23.5130   -3.3320   17.0320 C.ar  221  HIS221      0.0820
    121  ND1       24.2630   -4.3220   16.4590 N.ar  221  HIS221     -0.2267
    122  CD2       22.9270   -2.6490   16.0240 C.ar  221  HIS221      0.1154
    123  CE1       24.0420   -4.3190   15.1580 C.ar  221  HIS221      0.1986
    124  NE2       23.2150   -3.3600   14.8670 N.ar  221  HIS221     -0.2212
    125  N         17.9840    4.9210   11.1270 N.3   247  GLU247     -0.1245
    126  CA        17.8510    4.0030    9.9450 C.3   247  GLU247      0.1567
    127  C         16.3740    3.5910    9.6630 C.2   247  GLU247      0.2260
    128  O         16.0120    2.4130    9.7200 O.2   247  GLU247     -0.2867
    129  CB        18.7870    2.8310   10.1090 C.3   247  GLU247      0.0388
    130  CG        18.6630    2.0410   11.3360 C.3   247  GLU247      0.1160
    131  CD        19.6200    0.9450   11.4090 C.2   247  GLU247      0.3649
    132  OE1       20.3710    0.7280   12.3260 O.co2 247  GLU247     -0.2457
    133  OE2       19.7560    0.1630   10.3660 O.co2 247  GLU247     -0.2457
    134  N         17.0910  -14.2450   10.0720 N.3   264  TRP264     -0.1241
    135  CA        17.5600  -12.9020    9.8010 C.3   264  TRP264      0.1605
    136  C         16.6380  -12.0630    8.9080 C.2   264  TRP264      0.2264
    137  O         16.4150  -10.9170    9.1480 O.2   264  TRP264     -0.2867
    138  CB        18.9050  -12.9750    9.1150 C.3   264  TRP264      0.0550
    139  CG        20.0300  -13.2100   10.1440 C.ar  264  TRP264      0.0003
    140  CD1       20.6880  -14.3930   10.4470 C.ar  264  TRP264      0.0946
    141  CD2       20.4650  -12.2830   11.1450 C.ar  264  TRP264      0.0152
    142  NE1       21.5850  -14.2300   11.4180 N.ar  264  TRP264     -0.2442
    143  CE2       21.4970  -12.9680   11.8920 C.ar  264  TRP264      0.0810
    144  CE3       20.2350  -10.9240   11.3630 C.ar  264  TRP264      0.0012
    145  CZ2       22.1760  -12.3340   12.8800 C.ar  264  TRP264      0.0191
    146  CZ3       20.9570  -10.3010   12.3760 C.ar  264  TRP264      0.0001
    147  CH2       21.9230  -11.0660   13.0940 C.ar  264  TRP264      0.0015
    148  N         14.8390    1.6370    3.1990 N.3   276  GLN276     -0.1245
    149  CA        15.5970    2.1000    4.3330 C.3   276  GLN276      0.1566
    150  C         16.8110    2.9460    3.8930 C.2   276  GLN276      0.2260
    151  O         17.3970    2.7310    2.8030 O.2   276  GLN276     -0.2867
    152  CB        16.1640    0.8470    5.0740 C.3   276  GLN276      0.0367
    153  CG        16.8750    1.1910    6.3790 C.3   276  GLN276      0.0905
    154  CD        17.2930   -0.0050    7.1380 C.2   276  GLN276      0.2608
    155  OE1       17.6030   -1.0690    6.5930 O.2   276  GLN276     -0.2717
    156  NE2       17.2130    0.1100    8.4470 N.am  276  GLN276     -0.0878
    157  N         20.3680    4.6970    6.2180 N.3   278  GLU278     -0.1245
    158  CA        21.0670    4.7490    7.4860 C.3   278  GLU278      0.1567
    159  C         22.3150    5.5580    7.3700 C.2   278  GLU278      0.2260
    160  O         23.1050    5.4620    6.4230 O.2   278  GLU278     -0.2867
    161  CB        21.4490    3.3590    7.9510 C.3   278  GLU278      0.0388
    162  CG        22.2430    3.2960    9.2470 C.3   278  GLU278      0.1160
    163  CD        22.4900    1.8890    9.6680 C.2   278  GLU278      0.3649
    164  OE1       22.6050    0.9520    8.8060 O.co2 278  GLU278     -0.2457
    165  OE2       22.6200    1.6280   10.8760 O.co2 278  GLU278     -0.2457
@<TRIPOS>BOND
     1    34    33    2
     2   151   150    2
     3    33    32    1
     4    53    54    1
     5   148   149    1
     6   150   149    1
     7    32    31    1
     8    32    35    1
     9   149   152    1
    10    54    55    1
    11    54    57    1
    12    56    55    2
    13   152   153    1
    14    35    36    1
    15    57    58    1
    16    37    38    1
    17    45    46    2
    18    45    44    1
    19   157   158    1
    20   153   154    1
    21   160   159    2
    22    38    39    1
    23    38    41    1
    24    30    29   ar
    25    30    28   ar
    26   155   154    2
    27    39    43   am
    28    39    40    2
    29    43    44    1
    30    29    27   ar
    31    58    59   ar
    32    58    60   ar
    33   154   156   am
    34    44    47    1
    35    61    62    1
    36   159   158    1
    37    28    26   ar
    38   158   161    1
    39    41    42    1
    40   161   162    1
    41    27    25   ar
    42     6     5    1
    43     6     7    1
    44    64    63    2
    45     5     2    1
    46    63    62    1
    47    62    65    1
    48    47    48    1
    49     7     1    1
    50    26    25   ar
    51   164   163   ar
    52   136   137    2
    53   136   135    1
    54    25    24    1
    55    70    71    2
    56    70    69    1
    57   138   135    1
    58   138   139    1
    59   162   163    1
    60    22    23    2
    61    22    21    1
    62    50    48   ar
    63    50    52   ar
    64    48    49   ar
    65    74    73   ar
    66   127   128    2
    67   127   126    1
    68   163   165   ar
    69    66    65    1
    70   135   134    1
    71    65    67    1
    72    69    68    1
    73    69    72    1
    74     1     2    1
    75     2     3    1
    76   126   129    1
    77   126   125    1
    78     3     4    2
    79   129   130    1
    80   139   140   ar
    81   139   141   ar
    82    24    21    1
    83    21    20    1
    84   133   131   ar
    85   140   142   ar
    86    52    51   ar
    87    73    72    1
    88    73    75   ar
    89    49    51   ar
    90   141   144   ar
    91   141   143   ar
    92   130   131    1
    93   144   146   ar
    94   131   132   ar
    95   142   143   ar
    96   143   145   ar
    97    85    83   ar
    98    85    86   ar
    99    83    81   ar
   100    87    86    1
   101   114   112   ar
   102   114   113   ar
   103   146   147   ar
   104    86    84   ar
   105    81    80    1
   106    81    82   ar
   107   145   147   ar
   108    80    77    1
   109     8     9    1
   110   112   110   ar
   111    84    82   ar
   112   113   111   ar
   113    11    10    2
   114    12     9    1
   115    12    13    1
   116    79    78    2
   117     9    10    1
   118   103   102   ar
   119   103   101   ar
   120   110   109   ar
   121   111   109   ar
   122    77    76    1
   123    77    78    1
   124    78    88   am
   125    15    13   ar
   126    15    17   ar
   127    13    14   ar
   128   102   100   ar
   129   124   123   ar
   130   124   122   ar
   131   109   108    1
   132   101    99   ar
   133    91    90    2
   134   123   121   ar
   135    88    89    1
   136    90    89    1
   137    89    92    1
   138    17    18   ar
   139    14    16   ar
   140   122   120   ar
   141   100    99   ar
   142    99    98    1
   143   121   120   ar
   144   108   105    1
   145    94    95    1
   146   107   106    2
   147    18    16   ar
   148    18    19    1
   149   120   119    1
   150    97    96    2
   151   105   106    1
   152   105   104    1
   153    92    93    1
   154   106   115   am
   155    98    95    1
   156    95    96    1
   157   115   116    1
   158   119   116    1
   159   116   117    1
   160   117   118    2
