@<TRIPOS>MOLECULE
tmp/4u6aA00.pdb
 164 164 0 0 0
SMALL
GASTEIGER

@<TRIPOS>ATOM
      1  N          6.2760   -1.2490    1.2440 N.3    80  HIS80      -0.1226
      2  CA         5.0770   -1.8070    0.6480 C.3    80  HIS80       0.1752
      3  C          4.1130   -0.6850    0.3120 C.2    80  HIS80       0.2597
      4  O          3.7260    0.0750    1.2030 O.2    80  HIS80      -0.2718
      5  CB         4.3870   -2.8590    1.5340 C.3    80  HIS80       0.0759
      6  CG         3.2690   -3.5590    0.8240 C.ar   80  HIS80       0.0818
      7  ND1        3.5240   -4.5010   -0.1520 N.ar   80  HIS80      -0.2268
      8  CD2        1.9350   -3.3450    0.8890 C.ar   80  HIS80       0.1154
      9  CE1        2.3400   -4.8770   -0.6130 C.ar   80  HIS80       0.1986
     10  NE2        1.3520   -4.1980   -0.0210 N.ar   80  HIS80      -0.2212
     11  N          3.7870   -0.5840   -0.9820 N.am   81  GLY81      -0.1942
     12  CA         2.8130    0.3340   -1.5560 C.3    81  GLY81       0.2014
     13  C          1.6310   -0.4880   -2.0380 C.2    81  GLY81       0.2640
     14  O          1.8190   -1.4900   -2.7360 O.2    81  GLY81      -0.2714
     15  N          0.4110   -0.1170   -1.6220 N.am   82  SER82      -0.1936
     16  CA        -0.8060   -0.8420   -1.9500 C.3    82  SER82       0.2040
     17  C         -2.0410    0.0530   -1.9520 C.2    82  SER82       0.2485
     18  O         -2.1900    0.8710   -1.0460 O.2    82  SER82      -0.2729
     19  CB        -1.0310   -1.9550   -0.9280 C.3    82  SER82       0.2129
     20  OG        -2.2860   -2.6210   -1.0370 O.3    82  SER82      -0.2179
     21  N         -3.0220   -0.1620   -2.8490 N.am   83  PRO83      -0.2715
     22  CA        -4.2720    0.6050   -2.7340 C.3    83  PRO83       0.1536
     23  C         -5.1560    0.0570   -1.6030 C.2    83  PRO83       0.2598
     24  O         -6.2710    0.5220   -1.4590 O.2    83  PRO83      -0.2715
     25  CB        -4.9190    0.4020   -4.1050 C.3    83  PRO83       0.0310
     26  CG        -4.4740   -0.9420   -4.5140 C.3    83  PRO83       0.0237
     27  CD        -3.0840   -1.1200   -3.9750 C.3    83  PRO83       0.0939
     28  N         -4.6460   -0.9230   -0.7990 N.am   84  PHE84      -0.1974
     29  CA        -5.3370   -1.6520    0.2870 C.3    84  PHE84       0.1639
     30  C         -4.7570   -1.3880    1.6970 C.2    84  PHE84       0.2290
     31  O         -5.0100   -2.1670    2.6270 O.2    84  PHE84      -0.2864
     32  CB        -5.2170   -3.1800    0.0250 C.3    84  PHE84       0.0560
     33  CG        -5.9250   -3.8230   -1.1510 C.ar   84  PHE84      -0.0200
     34  CD1       -6.5570   -3.0420   -2.1260 C.ar   84  PHE84      -0.0042
     35  CD2       -5.9720   -5.2070   -1.2780 C.ar   84  PHE84      -0.0042
     36  CE1       -7.1950   -3.6360   -3.2170 C.ar   84  PHE84      -0.0003
     37  CE2       -6.6190   -5.8020   -2.3620 C.ar   84  PHE84      -0.0003
     38  CZ        -7.2320   -5.0160   -3.3220 C.ar   84  PHE84      -0.0000
     39  N         -4.5140  -14.0370    0.1690 N.3    96  ARG96      -0.1231
     40  CA        -5.6930  -14.1960   -0.6900 C.3    96  ARG96       0.1694
     41  C         -5.8010  -12.9950   -1.6670 C.2    96  ARG96       0.2592
     42  O         -6.5180  -13.1090   -2.6540 O.2    96  ARG96      -0.2718
     43  CB        -6.9720  -14.4020    0.1170 C.3    96  ARG96       0.0321
     44  CG        -7.0890  -15.8390    0.5960 C.3    96  ARG96       0.0489
     45  CD        -8.1800  -16.0670    1.6240 C.3    96  ARG96       0.2205
     46  NE        -7.9300  -15.3030    2.8490 N.pl3  96  ARG96      -0.0865
     47  CZ        -8.6840  -15.3400    3.9420 C.cat  96  ARG96       0.5346
     48  NH1       -9.7410  -16.1430    4.0030 N.pl3  96  ARG96       0.1354
     49  NH2       -8.3840  -14.5780    4.9870 N.pl3  96  ARG96       0.1354
     50  N         -5.0180  -11.8910   -1.4250 N.am   97  HIS97      -0.1962
     51  CA        -4.8940  -10.7080   -2.2810 C.3    97  HIS97       0.1787
     52  C         -3.4660  -10.6150   -2.8390 C.2    97  HIS97       0.2620
     53  O         -2.8970   -9.5180   -2.9060 O.2    97  HIS97      -0.2715
     54  CB        -5.2690   -9.3990   -1.5350 C.3    97  HIS97       0.0785
     55  CG        -6.6980   -9.3490   -1.1080 C.ar   97  HIS97       0.0821
     56  ND1       -7.0530   -9.4720    0.2210 N.ar   97  HIS97      -0.2267
     57  CD2       -7.8200   -9.2620   -1.8570 C.ar   97  HIS97       0.1154
     58  CE1       -8.3730   -9.4420    0.2420 C.ar   97  HIS97       0.1986
     59  NE2       -8.8760   -9.3230   -0.9870 N.ar   97  HIS97      -0.2212
     60  N         -2.8730  -11.7540   -3.2020 N.am   98  ALA98      -0.1963
     61  CA        -1.5330  -11.8100   -3.7890 C.3    98  ALA98       0.1728
     62  C         -1.5400  -11.2000   -5.1770 C.2    98  ALA98       0.2616
     63  O         -2.5510  -11.2670   -5.8910 O.2    98  ALA98      -0.2715
     64  CB        -1.0470  -13.2390   -3.8690 C.3    98  ALA98       0.0334
     65  N         -0.4200  -10.5970   -5.5490 N.am   99  TYR99      -0.1960
     66  CA        -0.2610   -9.9720   -6.8500 C.3    99  TYR99       0.1771
     67  C         -0.0760  -11.0660   -7.9410 C.2    99  TYR99       0.2619
     68  O          1.0390  -11.5410   -8.1780 O.2    99  TYR99      -0.2715
     69  CB         0.9060   -8.9730   -6.7770 C.3    99  TYR99       0.0574
     70  CG         1.2350   -8.2650   -8.0690 C.ar   99  TYR99      -0.0198
     71  CD1        0.2580   -8.0470   -9.0380 C.ar   99  TYR99      -0.0009
     72  CD2        2.5170   -7.7720   -8.3090 C.ar   99  TYR99      -0.0009
     73  CE1        0.5610   -7.4080  -10.2370 C.ar   99  TYR99       0.0417
     74  CE2        2.8270   -7.1220   -9.4990 C.ar   99  TYR99       0.0417
     75  CZ         1.8450   -6.9420  -10.4600 C.ar   99  TYR99       0.1957
     76  OH         2.1390   -6.2740  -11.6190 O.3    99  TYR99      -0.2866
     77  N         -1.2040  -11.4960   -8.5570 N.am  100  ILE100     -0.1977
     78  CA        -1.2760  -12.5390   -9.5980 C.3   100  ILE100      0.1596
     79  C         -0.2800  -12.2590  -10.7610 C.2   100  ILE100      0.2287
     80  O          0.4170  -13.1740  -11.2130 O.2   100  ILE100     -0.2864
     81  CB        -2.7300  -12.7270  -10.1600 C.3   100  ILE100      0.0276
     82  CG1       -3.8490  -12.7080   -9.0640 C.3   100  ILE100      0.0022
     83  CG2       -2.8560  -13.9640  -11.0400 C.3   100  ILE100      0.0022
     84  CD1       -3.8390  -13.8110   -7.9080 C.3   100  ILE100      0.0001
     85  N          2.5170  -10.7670  -10.8320 N.3   102  GLY102     -0.1225
     86  CA         3.8930  -10.5450  -10.4180 C.3   102  GLY102      0.1811
     87  C          4.8650  -11.4040  -11.1890 C.2   102  GLY102      0.2280
     88  O          4.4990  -12.4880  -11.6550 O.2   102  GLY102     -0.2866
     89  N          4.3200   -8.6710   -2.5300 N.3   109  TYR109     -0.1227
     90  CA         5.5920   -8.0320   -2.8790 C.3   109  TYR109      0.1736
     91  C          6.0040   -6.8670   -1.9860 C.2   109  TYR109      0.2595
     92  O          5.1840   -6.0860   -1.5270 O.2   109  TYR109     -0.2718
     93  CB         5.5520   -7.5630   -4.3190 C.3   109  TYR109      0.0548
     94  CG         5.5850   -8.6960   -5.3200 C.ar  109  TYR109     -0.0200
     95  CD1        4.4460   -9.4540   -5.5840 C.ar  109  TYR109     -0.0009
     96  CD2        6.7500   -9.0060   -6.0080 C.ar  109  TYR109     -0.0009
     97  CE1        4.4690  -10.4920   -6.5050 C.ar  109  TYR109      0.0417
     98  CE2        6.7800  -10.0310   -6.9500 C.ar  109  TYR109      0.0417
     99  CZ         5.6400  -10.7820   -7.1820 C.ar  109  TYR109      0.1957
    100  OH         5.6800  -11.8320   -8.0630 O.3   109  TYR109     -0.2866
    101  N          7.3030   -6.7660   -1.7800 N.am  110  PHE110     -0.1962
    102  CA         8.0020   -5.7840   -0.9710 C.3   110  PHE110      0.1771
    103  C          9.2160   -5.3260   -1.7200 C.2   110  PHE110      0.2619
    104  O          9.8650   -6.1190   -2.4020 O.2   110  PHE110     -0.2715
    105  CB         8.4160   -6.3880    0.4060 C.3   110  PHE110      0.0574
    106  CG         7.2410   -6.6640    1.3160 C.ar  110  PHE110     -0.0200
    107  CD1        6.5300   -7.8570    1.2190 C.ar  110  PHE110     -0.0042
    108  CD2        6.7910   -5.6970    2.2080 C.ar  110  PHE110     -0.0042
    109  CE1        5.3900   -8.0730    1.9910 C.ar  110  PHE110     -0.0003
    110  CE2        5.6670   -5.9260    3.0020 C.ar  110  PHE110     -0.0003
    111  CZ         4.9620   -7.1030    2.8750 C.ar  110  PHE110     -0.0000
    112  N          9.5520   -4.0560   -1.5550 N.am  111  ALA111     -0.1977
    113  CA        10.7080   -3.4040   -2.1890 C.3   111  ALA111      0.1597
    114  C         11.7000   -2.9010   -1.1470 C.2   111  ALA111      0.2287
    115  O         11.3080   -2.5410   -0.0320 O.2   111  ALA111     -0.2864
    116  CB        10.2250   -2.2220   -3.0420 C.3   111  ALA111      0.0319
    117  N         10.0610    2.1420   -5.8760 N.3   116  LYS116     -0.1231
    118  CA         9.3260    1.0050   -6.4600 C.3   116  LYS116      0.1693
    119  C          7.9310    0.7900   -5.8070 C.2   116  LYS116      0.2592
    120  O          6.9580    0.5290   -6.5290 O.2   116  LYS116     -0.2718
    121  CB        10.1560   -0.2950   -6.3900 C.3   116  LYS116      0.0285
    122  CG         9.4320   -1.5660   -6.9160 C.3   116  LYS116      0.0035
    123  CD         9.2630   -1.6070   -8.4470 C.3   116  LYS116      0.0206
    124  CE         8.3320   -2.7090   -8.9060 C.3   116  LYS116      0.1093
    125  NZ         7.9120   -2.5770  -10.3310 N.3   116  LYS116     -0.1314
    126  N          7.8450    0.8580   -4.4600 N.am  117  SER117     -0.1952
    127  CA         6.5660    0.6710   -3.7510 C.3   117  SER117      0.1924
    128  C          5.5730    1.8150   -4.0570 C.2   117  SER117      0.2314
    129  O          4.3570    1.5890   -4.1410 O.2   117  SER117     -0.2863
    130  CB         6.8060    0.5480   -2.2460 C.3   117  SER117      0.2116
    131  OG         7.3910   -0.7040   -1.9190 O.3   117  SER117     -0.2180
    132  N          2.8730    1.5870   -6.6520 N.3   120  TYR120     -0.1241
    133  CA         1.6980    0.7470   -6.3840 C.3   120  TYR120      0.1605
    134  C          0.7330    1.3320   -5.3990 C.2   120  TYR120      0.2264
    135  O         -0.2920    0.6960   -5.1610 O.2   120  TYR120     -0.2867
    136  CB         2.1170   -0.6660   -5.9150 C.3   120  TYR120      0.0534
    137  CG         2.9190   -1.3950   -6.9720 C.ar  120  TYR120     -0.0201
    138  CD1        2.2850   -2.1140   -7.9850 C.ar  120  TYR120     -0.0009
    139  CD2        4.3090   -1.2940   -7.0140 C.ar  120  TYR120     -0.0009
    140  CE1        3.0190   -2.7560   -8.9830 C.ar  120  TYR120      0.0417
    141  CE2        5.0460   -1.9080   -8.0190 C.ar  120  TYR120      0.0417
    142  CZ         4.3950   -2.6330   -9.0060 C.ar  120  TYR120      0.1957
    143  OH         5.1200   -3.2610   -9.9900 O.3   120  TYR120     -0.2866
    144  N         -2.4440    1.2370   -7.1300 N.3   123  GLY123     -0.1210
    145  CA        -2.7200   -0.0320   -7.7830 C.3   123  GLY123      0.1956
    146  C         -1.6410   -0.3520   -8.7830 C.2   123  GLY123      0.2611
    147  O         -0.6300    0.3630   -8.8450 O.2   123  GLY123     -0.2717
    148  N         -1.8590   -1.4260   -9.5760 N.am  124  ILE124     -0.1979
    149  CA        -0.9420   -1.8950  -10.6260 C.3   124  ILE124      0.1595
    150  C         -0.8140   -0.7990  -11.7250 C.2   124  ILE124      0.2287
    151  O         -1.8240   -0.3340  -12.2710 O.2   124  ILE124     -0.2864
    152  CB        -1.3890   -3.2840  -11.2020 C.3   124  ILE124      0.0276
    153  CG1       -1.4150   -4.3690  -10.0900 C.3   124  ILE124      0.0022
    154  CG2       -0.4790   -3.7380  -12.3570 C.3   124  ILE124      0.0022
    155  CD1       -2.5520   -5.3860  -10.1810 C.3   124  ILE124      0.0001
    156  N         13.1510   -7.5470   -5.6550 N.3   182  GLU182     -0.1196
    157  CA        11.7590   -7.7480   -5.2120 C.3   182  GLU182      0.1783
    158  C         11.7280   -8.9120   -4.1980 C.2   182  GLU182      0.2306
    159  O         12.3410   -9.9540   -4.4180 O.2   182  GLU182     -0.2863
    160  CB        10.7960   -8.0200   -6.3900 C.2   182  GLU182      0.0071
    161  CG        10.7450   -6.9280   -7.4440 C.2   182  GLU182      0.0834
    162  CD         9.8040   -7.1190   -8.6220 C.2   182  GLU182      0.3877
    163  OE1        9.8420   -6.2700   -9.5410 O.co2 182  GLU182     -0.2406
    164  OE2        9.0120   -8.0910   -8.6220 O.co2 182  GLU182     -0.2406
@<TRIPOS>BOND
     1   154   152    1
     2   151   150    2
     3   150   149    1
     4    88    87    2
     5    76    75    1
     6    80    79    2
     7   152   149    1
     8   152   153    1
     9    87    86    1
    10    83    81    1
    11    85    86    1
    12    79    78    1
    13   149   148    1
    14    75    73   ar
    15    75    74   ar
    16   125   124    1
    17    73    71   ar
    18   155   153    1
    19    81    78    1
    20    81    82    1
    21   143   142    1
    22    78    77    1
    23   148   146   am
    24   163   162   ar
    25    74    72   ar
    26    82    84    1
    27    71    70   ar
    28   142   140   ar
    29   142   141   ar
    30   140   138   ar
    31   124   123    1
    32   147   146    2
    33   146   145    1
    34   162   164   ar
    35   162   161    1
    36    77    67   am
    37   123   122    1
    38    72    70   ar
    39    68    67    2
    40    70    69    1
    41   100    99    1
    42   141   139   ar
    43   138   137   ar
    44    67    66    1
    45   145   144    1
    46   161   160    2
    47    99    98   ar
    48    99    97   ar
    49   139   137   ar
    50   137   136    1
    51    98    96   ar
    52   122   121    1
    53    66    69    1
    54    66    65    1
    55   132   133    1
    56   120   119    2
    57    97    95   ar
    58   118   121    1
    59   118   117    1
    60   118   119    1
    61   160   157    1
    62   133   136    1
    63   133   134    1
    64    96    94   ar
    65    63    62    2
    66   119   126   am
    67   156   157    1
    68    95    94   ar
    69    65    62   am
    70   134   135    2
    71    94    93    1
    72   157   158    1
    73    62    61    1
    74    26    25    1
    75    26    27    1
    76   126   127    1
    77   159   158    2
    78    93    90    1
    79   129   128    2
    80    25    22    1
    81   128   127    1
    82    27    21    1
    83    64    61    1
    84    61    60    1
    85   127   130    1
    86    38    36   ar
    87    38    37   ar
    88    36    34   ar
    89    60    52   am
    90   116   113    1
    91    53    52    2
    92    90    89    1
    93    90    91    1
    94    21    22    1
    95    21    17   am
    96    52    51    1
    97    14    13    2
    98    22    23    1
    99    42    41    2
   100   104   103    2
   101    37    35   ar
   102    51    54    1
   103    51    50    1
   104   130   131    1
   105   113   112    1
   106   113   114    1
   107    34    33   ar
   108    13    15   am
   109    13    12    1
   110    91   101   am
   111    91    92    2
   112    17    16    1
   113    17    18    2
   114    16    15    1
   115    16    19    1
   116    57    55   ar
   117    57    59   ar
   118   101   102    1
   119   103   112   am
   120   103   102    1
   121    41    50   am
   122    41    40    1
   123    23    24    2
   124    23    28   am
   125    12    11    1
   126    54    55    1
   127    35    33   ar
   128    33    32    1
   129   114   115    2
   130    55    56   ar
   131    20    19    1
   132    59    58   ar
   133    11     3   am
   134   102   105    1
   135    28    29    1
   136    40    43    1
   137    40    39    1
   138     9     7   ar
   139     9    10   ar
   140     7     6   ar
   141    10     8   ar
   142    32    29    1
   143    43    44    1
   144    56    58   ar
   145    29    30    1
   146     3     2    1
   147     3     4    2
   148   105   106    1
   149    44    45    1
   150     2     1    1
   151     2     5    1
   152     6     8   ar
   153     6     5    1
   154   107   106   ar
   155   107   109   ar
   156   106   108   ar
   157    45    46    1
   158    30    31    2
   159   109   111   ar
   160   108   110   ar
   161    46    47    2
   162   111   110   ar
   163    47    48    1
   164    47    49    1
