@<TRIPOS>MOLECULE
tmp/4u6bA00.pdb
 106 102 0 0 0
SMALL
GASTEIGER

@<TRIPOS>ATOM
      1  N         33.7620   34.9380   -1.6890 N.3    28  ARG28      -0.1231
      2  CA        32.4370   35.6120   -1.7400 C.3    28  ARG28       0.1694
      3  C         31.3320   34.6170   -1.3470 C.2    28  ARG28       0.2592
      4  O         31.6130   33.4040   -1.2320 O.2    28  ARG28      -0.2718
      5  CB        32.1280   36.2190   -3.1350 C.3    28  ARG28       0.0321
      6  CG        32.0820   35.2250   -4.2870 C.3    28  ARG28       0.0489
      7  CD        31.8320   35.8950   -5.6300 C.3    28  ARG28       0.2205
      8  NE        30.4640   36.4170   -5.6920 N.pl3  28  ARG28      -0.0865
      9  CZ        30.0710   37.4960   -6.3680 C.cat  28  ARG28       0.5346
     10  NH1       30.9480   38.2450   -7.0380 N.pl3  28  ARG28       0.1354
     11  NH2       28.7830   37.8630   -6.3110 N.pl3  28  ARG28       0.1354
     12  N         30.1170   35.1360   -1.1090 N.am   29  ASP29      -0.1974
     13  CA        28.9760   34.2990   -0.7190 C.3    29  ASP29       0.1709
     14  C         29.2860   33.3060    0.3950 C.2    29  ASP29       0.2293
     15  O         28.9670   32.1060    0.2560 O.2    29  ASP29      -0.2864
     16  CB        28.5190   33.5990   -1.9780 C.3    29  ASP29       0.1436
     17  CG        28.0960   34.6420   -3.0430 C.2    29  ASP29       0.3671
     18  OD1       27.1070   35.3610   -2.7240 O.co2  29  ASP29      -0.2456
     19  OD2       28.7980   34.8490   -4.0960 O.co2  29  ASP29      -0.2456
     20  N         32.7650   34.7050  -10.3060 N.3    71  TRP71      -0.1241
     21  CA        32.3410   33.4020   -9.7820 C.3    71  TRP71       0.1605
     22  C         32.5680   32.2980  -10.8040 C.2    71  TRP71       0.2264
     23  O         32.0930   31.2000  -10.6440 O.2    71  TRP71      -0.2867
     24  CB        30.8680   33.4210   -9.3310 C.3    71  TRP71       0.0550
     25  CG        29.9580   33.8130  -10.3710 C.ar   71  TRP71       0.0003
     26  CD1       29.3590   32.9930  -11.3010 C.ar   71  TRP71       0.0946
     27  CD2       29.5250   35.1430  -10.6700 C.ar   71  TRP71       0.0152
     28  NE1       28.5810   33.7390  -12.1500 N.ar   71  TRP71      -0.2442
     29  CE2       28.6580   35.0550  -11.7960 C.ar   71  TRP71       0.0810
     30  CE3       29.8150   36.4030  -10.1340 C.ar   71  TRP71       0.0012
     31  CZ2       28.0600   36.1870  -12.3850 C.ar   71  TRP71       0.0191
     32  CZ3       29.2000   37.5570  -10.7140 C.ar   71  TRP71       0.0001
     33  CH2       28.3090   37.4240  -11.8080 C.ar   71  TRP71       0.0015
     34  N         28.5820   29.7440   -4.3840 N.3   109  THR109     -0.1218
     35  CA        27.4720   30.2800   -3.6700 C.3   109  THR109      0.1862
     36  C         26.8790   29.1870   -2.7550 C.2   109  THR109      0.2287
     37  O         25.7140   28.8410   -2.8560 O.2   109  THR109     -0.2866
     38  CB        26.4010   30.8210   -4.6210 C.3   109  THR109      0.1770
     39  OG1       27.0180   31.5400   -5.6920 O.3   109  THR109     -0.2211
     40  CG2       25.4430   31.7480   -3.9120 C.3   109  THR109      0.0375
     41  N         25.3630   26.4730   -6.2680 N.3   124  GLN124     -0.1245
     42  CA        25.0290   26.6140   -7.6780 C.3   124  GLN124      0.1566
     43  C         26.0680   25.8720   -8.4940 C.2   124  GLN124      0.2260
     44  O         27.2520   25.8720   -8.1150 O.2   124  GLN124     -0.2867
     45  CB        24.9180   28.0990   -8.0650 C.3   124  GLN124      0.0367
     46  CG        23.5920   28.6950   -7.6250 C.3   124  GLN124      0.0905
     47  CD        23.6010   30.1980   -7.5910 C.2   124  GLN124      0.2608
     48  OE1       24.0770   30.8320   -8.5060 O.2   124  GLN124     -0.2717
     49  NE2       23.1610   30.7790   -6.4950 N.am  124  GLN124     -0.0878
     50  N         27.8300   25.3320  -12.3200 N.3   126  PHE126     -0.1241
     51  CA        27.9420   25.9780  -13.6370 C.3   126  PHE126      0.1605
     52  C         28.5470   25.0710  -14.6510 C.2   126  PHE126      0.2264
     53  O         29.4340   24.2810  -14.2950 O.2   126  PHE126     -0.2867
     54  CB        28.8120   27.2200  -13.5220 C.3   126  PHE126      0.0534
     55  CG        28.1360   28.3460  -12.8160 C.ar  126  PHE126     -0.0203
     56  CD1       28.1590   28.4070  -11.4380 C.ar  126  PHE126     -0.0042
     57  CD2       27.5010   29.3320  -13.5340 C.ar  126  PHE126     -0.0042
     58  CE1       27.5140   29.4330  -10.7420 C.ar  126  PHE126     -0.0003
     59  CE2       26.8590   30.3640  -12.8580 C.ar  126  PHE126     -0.0003
     60  CZ        26.8410   30.4040  -11.4640 C.ar  126  PHE126     -0.0000
     61  N         18.6720   30.5570   -7.4680 N.3   173  HIS173     -0.1226
     62  CA        19.9430   31.0770   -6.9590 C.3   173  HIS173      0.1752
     63  C         19.8990   31.1710   -5.4570 C.2   173  HIS173      0.2596
     64  O         18.8170   31.2940   -4.8680 O.2   173  HIS173     -0.2718
     65  CB        20.2050   32.4790   -7.4770 C.3   173  HIS173      0.0759
     66  CG        20.4020   32.5700   -8.9590 C.ar  173  HIS173      0.0818
     67  ND1       20.6650   31.4740   -9.7540 N.ar  173  HIS173     -0.2268
     68  CD2       20.4320   33.6420   -9.7820 C.ar  173  HIS173      0.1154
     69  CE1       20.8220   31.8630  -11.0030 C.ar  173  HIS173      0.1986
     70  NE2       20.6790   33.1720  -11.0460 N.ar  173  HIS173     -0.2212
     71  N         21.0820   31.1110   -4.8340 N.am  174  ASP174     -0.1974
     72  CA        21.2660   31.4460   -3.4210 C.3   174  ASP174      0.1709
     73  C         20.4920   30.4920   -2.5200 C.2   174  ASP174      0.2293
     74  O         19.8080   30.9220   -1.6290 O.2   174  ASP174     -0.2864
     75  CB        20.7560   32.8650   -3.1060 C.3   174  ASP174      0.1436
     76  CG        21.5200   33.9820   -3.8260 C.2   174  ASP174      0.3671
     77  OD1       22.5640   33.7750   -4.5220 O.co2 174  ASP174     -0.2456
     78  OD2       21.0440   35.1370   -3.6790 O.co2 174  ASP174     -0.2456
     79  N         16.1400   32.1990   -4.9250 N.3   189  LYS189     -0.1245
     80  CA        15.7500   33.4160   -5.6020 C.3   189  LYS189      0.1561
     81  C         15.7650   33.2300   -7.1050 C.2   189  LYS189      0.2260
     82  O         16.4520   32.3360   -7.6110 O.2   189  LYS189     -0.2867
     83  CB        16.6180   34.5680   -5.1430 C.3   189  LYS189      0.0271
     84  CG        17.6980   34.9660   -6.1000 C.3   189  LYS189      0.0035
     85  CD        18.1810   36.3390   -5.6970 C.3   189  LYS189      0.0206
     86  CE        19.2750   36.8450   -6.6420 C.3   189  LYS189      0.1093
     87  NZ        20.6030   36.5190   -6.0760 N.3   189  LYS189     -0.1314
     88  N         18.5280   40.3250   -2.6640 N.3   225  GLU225     -0.1245
     89  CA        18.9050   39.1350   -1.9030 C.3   225  GLU225      0.1567
     90  C         18.3760   39.2100   -0.4980 C.2   225  GLU225      0.2260
     91  O         17.9700   40.2780   -0.0070 O.2   225  GLU225     -0.2867
     92  CB        20.4330   38.8360   -1.9330 C.3   225  GLU225      0.0388
     93  CG        21.2680   39.9620   -1.4010 C.3   225  GLU225      0.1160
     94  CD        22.7900   39.9230   -1.6900 C.2   225  GLU225      0.3649
     95  OE1       23.4190   40.7570   -1.0150 O.co2 225  GLU225     -0.2457
     96  OE2       23.3890   39.1660   -2.5340 O.co2 225  GLU225     -0.2457
     97  N         30.0150   39.8400    2.3420 N.3   294  HIS294     -0.1241
     98  CA        31.0430   40.0980    1.3400 C.3   294  HIS294      0.1621
     99  C         30.9950   41.4690    0.7010 C.2   294  HIS294      0.2264
    100  O         30.0190   42.1670    0.8700 O.2   294  HIS294     -0.2867
    101  CB        31.1590   38.9680    0.3050 C.3   294  HIS294      0.0745
    102  CG        30.0670   38.8900   -0.7200 C.ar  294  HIS294      0.0817
    103  ND1       29.3110   39.9780   -1.1440 N.ar  294  HIS294     -0.2268
    104  CD2       29.6910   37.8500   -1.5070 C.ar  294  HIS294      0.1154
    105  CE1       28.4980   39.6010   -2.1320 C.ar  294  HIS294      0.1986
    106  NE2       28.7210   38.3160   -2.3770 N.ar  294  HIS294     -0.2212
@<TRIPOS>BOND
     1    52    53    2
     2    52    51    1
     3    51    54    1
     4    51    50    1
     5    57    59   ar
     6    57    55   ar
     7    54    55    1
     8    59    60   ar
     9    55    56   ar
    10    31    33   ar
    11    31    29   ar
    12    28    29   ar
    13    28    26   ar
    14    33    32   ar
    15    29    27   ar
    16    60    58   ar
    17    56    58   ar
    18    26    25   ar
    19    70    69   ar
    20    70    68   ar
    21    69    67   ar
    22    22    23    2
    23    22    21    1
    24    32    30   ar
    25    27    25   ar
    26    27    30   ar
    27    25    24    1
    28    20    21    1
    29    21    24    1
    30    68    66   ar
    31    67    66   ar
    32    66    65    1
    33    48    47    2
    34    43    44    2
    35    43    42    1
    36    45    42    1
    37    45    46    1
    38    42    41    1
    39    46    47    1
    40    82    81    2
    41    47    49   am
    42    65    62    1
    43    61    62    1
    44    81    80    1
    45    10     9    1
    46    62    63    1
    47    86    87    1
    48    86    85    1
    49     9    11    1
    50     9     8    2
    51    84    85    1
    52    84    83    1
    53    39    38    1
    54     8     7    1
    55     7     6    1
    56    80    83    1
    57    80    79    1
    58    63    64    2
    59    63    71   am
    60    71    72    1
    61    38    40    1
    62    38    35    1
    63    77    76   ar
    64    34    35    1
    65     6     5    1
    66    19    17   ar
    67    76    78   ar
    68    76    75    1
    69    35    36    1
    70    72    75    1
    71    72    73    1
    72     5     2    1
    73    17    18   ar
    74    17    16    1
    75    37    36    2
    76    88    89    1
    77    96    94   ar
    78    73    74    2
    79   106   105   ar
    80   106   104   ar
    81   105   103   ar
    82    16    13    1
    83    92    89    1
    84    92    93    1
    85    89    90    1
    86     2     1    1
    87     2     3    1
    88    94    93    1
    89    94    95   ar
    90   104   102   ar
    91     3     4    2
    92     3    12   am
    93   103   102   ar
    94    12    13    1
    95   102   101    1
    96    13    14    1
    97    90    91    2
    98    15    14    2
    99   101    98    1
   100    99   100    2
   101    99    98    1
   102    98    97    1
