@<TRIPOS>MOLECULE
tmp/4u6cA00.pdb
 173 169 0 0 0
SMALL
GASTEIGER

@<TRIPOS>ATOM
      1  N         28.8070   -7.3680    9.7180 N.3   103  PRO103     -0.2116
      2  CA        27.7090   -8.3390    9.7350 C.3   103  PRO103      0.1372
      3  C         28.1260   -9.8220    9.7850 C.2   103  PRO103      0.2244
      4  O         27.3570  -10.6510   10.2930 O.2   103  PRO103     -0.2868
      5  CB        26.9640   -8.0310    8.4360 C.3   103  PRO103      0.0268
      6  CG        27.3380   -6.5600    8.1370 C.3   103  PRO103      0.0207
      7  CD        28.7880   -6.6340    8.4240 C.3   103  PRO103      0.0892
      8  N         27.8110  -11.9730   12.9000 N.3   106  TYR106     -0.1241
      9  CA        27.1010  -11.2660   13.9520 C.3   106  TYR106      0.1605
     10  C         25.8330  -12.0470   14.2330 C.2   106  TYR106      0.2264
     11  O         24.9220  -12.1960   13.4050 O.2   106  TYR106     -0.2867
     12  CB        26.8430   -9.8090   13.6040 C.3   106  TYR106      0.0534
     13  CG        26.2330   -8.9550   14.6960 C.ar  106  TYR106     -0.0201
     14  CD1       26.9670   -8.5480   15.8010 C.ar  106  TYR106     -0.0009
     15  CD2       24.9340   -8.5210   14.5980 C.ar  106  TYR106     -0.0009
     16  CE1       26.4150   -7.7420   16.7640 C.ar  106  TYR106      0.0417
     17  CE2       24.3660   -7.7230   15.5770 C.ar  106  TYR106      0.0417
     18  CZ        25.1190   -7.3450   16.6580 C.ar  106  TYR106      0.1957
     19  OH        24.5660   -6.5020   17.6320 O.3   106  TYR106     -0.2866
     20  N         24.9570  -14.2880   11.5090 N.3   109  PHE109     -0.1241
     21  CA        24.5380  -13.8150   10.2190 C.3   109  PHE109      0.1605
     22  C         25.6590  -14.2870    9.2730 C.2   109  PHE109      0.2264
     23  O         26.8320  -14.2000    9.6360 O.2   109  PHE109     -0.2867
     24  CB        24.4390  -12.2820   10.2170 C.3   109  PHE109      0.0534
     25  CG        23.9960  -11.7450    8.9050 C.ar  109  PHE109     -0.0203
     26  CD1       22.6380  -11.7770    8.5620 C.ar  109  PHE109     -0.0042
     27  CD2       24.9170  -11.2580    7.9710 C.ar  109  PHE109     -0.0042
     28  CE1       22.1960  -11.3240    7.3240 C.ar  109  PHE109     -0.0003
     29  CE2       24.4770  -10.8030    6.7250 C.ar  109  PHE109     -0.0003
     30  CZ        23.1030  -10.7540    6.4400 C.ar  109  PHE109     -0.0000
     31  N         23.9860   -6.9170    4.1840 N.3   114  CYS114     -0.1235
     32  CA        22.6000   -7.2870    3.8980 C.3   114  CYS114      0.1677
     33  C         22.1350   -6.6880    2.6040 C.2   114  CYS114      0.2270
     34  O         22.3450   -5.4930    2.3380 O.2   114  CYS114     -0.2867
     35  CB        21.6720   -6.7060    4.9800 C.3   114  CYS114      0.0956
     36  SG        22.1850   -7.1330    6.6030 S.3   114  CYS114     -0.0801
     37  N         14.4980   -5.4290    5.7880 N.3   122  CYS122     -0.1221
     38  CA        15.8980   -5.3610    6.2320 C.3   122  CYS122      0.1808
     39  C         16.4850   -6.7290    6.5540 C.2   122  CYS122      0.2601
     40  O         15.7600   -7.7150    6.6570 O.2   122  CYS122     -0.2717
     41  CB        16.1300   -4.4130    7.3990 C.3   122  CYS122      0.0970
     42  SG        15.4850   -5.0680    8.9770 S.3   122  CYS122     -0.0800
     43  N         17.8270   -6.7580    6.6290 N.am  123  HIS123     -0.1975
     44  CA        18.5980   -7.9700    6.9880 C.3   123  HIS123      0.1656
     45  C         18.4670   -9.1290    6.0230 C.2   123  HIS123      0.2291
     46  O         18.5600  -10.2800    6.3790 O.2   123  HIS123     -0.2864
     47  CB        18.1350   -8.4080    8.3810 C.3   123  HIS123      0.0771
     48  CG        18.3510   -7.3450    9.3760 C.ar  123  HIS123      0.0820
     49  ND1       17.9500   -7.4450   10.6970 N.ar  123  HIS123     -0.2267
     50  CD2       18.9330   -6.1240    9.2410 C.ar  123  HIS123      0.1154
     51  CE1       18.2780   -6.3320   11.3170 C.ar  123  HIS123      0.1986
     52  NE2       18.9080   -5.5360   10.4730 N.ar  123  HIS123     -0.2212
     53  N         23.0710   -2.8310    2.8030 N.3   140  ASP140     -0.1225
     54  CA        23.4890   -2.3560    4.0950 C.3   140  ASP140      0.1805
     55  C         24.8780   -2.8510    4.4360 C.2   140  ASP140      0.2598
     56  O         25.1630   -4.0390    4.5040 O.2   140  ASP140     -0.2718
     57  CB        22.4270   -2.7660    5.1410 C.3   140  ASP140      0.1424
     58  CG        22.6370   -2.0590    6.4760 C.2   140  ASP140      0.3668
     59  OD1       23.7610   -1.6260    6.7440 O.co2 140  ASP140     -0.2456
     60  OD2       21.6760   -1.9390    7.2300 O.co2 140  ASP140     -0.2456
     61  N         25.7280   -1.8800    4.7460 N.am  141  ILE141     -0.1966
     62  CA        27.1430   -2.0520    4.9260 C.3   141  ILE141      0.1727
     63  C         27.4550   -1.6730    6.3480 C.2   141  ILE141      0.2616
     64  O         27.0810   -0.5800    6.7940 O.2   141  ILE141     -0.2715
     65  CB        28.0260   -1.0800    4.0360 C.3   141  ILE141      0.0290
     66  CG1       27.8980   -1.3480    2.5090 C.3   141  ILE141      0.0022
     67  CG2       29.4870   -1.1590    4.3880 C.3   141  ILE141      0.0023
     68  CD1       28.0760   -2.8120    2.1020 C.3   141  ILE141      0.0001
     69  N         28.1860   -2.5450    7.0060 N.am  142  THR142     -0.1951
     70  CA        28.8780   -2.1800    8.2470 C.3   142  THR142      0.1897
     71  C         30.3290   -2.6770    8.3220 C.2   142  THR142      0.2313
     72  O         30.6000   -3.8610    8.1940 O.2   142  THR142     -0.2863
     73  CB        28.1030   -2.6710    9.4870 C.3   142  THR142      0.1794
     74  OG1       26.7560   -2.2380    9.3890 O.3   142  THR142     -0.2208
     75  CG2       28.6980   -2.0830   10.6260 C.3   142  THR142      0.0378
     76  N         28.2270    2.2130   10.0450 N.3   151  ASP151     -0.1239
     77  CA        26.9990    1.5380    9.5270 C.3   151  ASP151      0.1674
     78  C         26.2090    2.4680    8.6200 C.2   151  ASP151      0.2266
     79  O         25.8170    3.5950    8.9920 O.2   151  ASP151     -0.2867
     80  CB        26.1920    1.0450   10.7590 C.3   151  ASP151      0.1410
     81  CG        24.9980    0.1540   10.4780 C.2   151  ASP151      0.3668
     82  OD1       24.5450   -0.1910    9.3530 O.co2 151  ASP151     -0.2456
     83  OD2       24.3620   -0.1760   11.5190 O.co2 151  ASP151     -0.2456
     84  N         12.1220   -2.6390   14.2840 N.3   211  TYR211     -0.1227
     85  CA        13.5130   -2.3020   14.0550 C.3   211  TYR211      0.1736
     86  C         13.7640   -0.7970   14.2020 C.2   211  TYR211      0.2595
     87  O         13.0510   -0.0190   13.6650 O.2   211  TYR211     -0.2718
     88  CB        13.9310   -2.7810   12.6690 C.3   211  TYR211      0.0548
     89  CG        13.8940   -4.2770   12.5360 C.ar  211  TYR211     -0.0200
     90  CD1       14.9200   -5.0510   13.0140 C.ar  211  TYR211     -0.0009
     91  CD2       12.8230   -4.9090   11.9790 C.ar  211  TYR211     -0.0009
     92  CE1       14.8840   -6.4140   12.9130 C.ar  211  TYR211      0.0417
     93  CE2       12.7810   -6.2640   11.8840 C.ar  211  TYR211      0.0417
     94  CZ        13.8110   -7.0070   12.3570 C.ar  211  TYR211      0.1957
     95  OH        13.7670   -8.3370   12.2500 O.3   211  TYR211     -0.2866
     96  N         14.8150   -0.4420   14.9180 N.am  212  CYS212     -0.1970
     97  CA        15.1380    0.9160   15.3590 C.3   212  CYS212      0.1712
     98  C         16.5360    1.3140   14.9020 C.2   212  CYS212      0.2296
     99  O         17.3550    0.4820   14.5880 O.2   212  CYS212     -0.2864
    100  CB        15.0520    0.9590   16.9060 C.3   212  CYS212      0.0983
    101  SG        13.3250    0.5420   17.4150 S.3   212  CYS212     -0.0798
    102  N         20.0220    2.9890   16.2840 N.3   214  HIS214     -0.1241
    103  CA        20.7930    2.5180   17.4590 C.3   214  HIS214      0.1621
    104  C         22.0810    3.2690   17.6410 C.2   214  HIS214      0.2264
    105  O         22.7790    3.7530   16.6810 O.2   214  HIS214     -0.2867
    106  CB        21.1130    1.0410   17.2820 C.3   214  HIS214      0.0745
    107  CG        21.8800    0.7780   16.0000 C.ar  214  HIS214      0.0817
    108  ND1       23.2560    0.7730   15.9520 N.ar  214  HIS214     -0.2268
    109  CD2       21.4520    0.5490   14.7340 C.ar  214  HIS214      0.1154
    110  CE1       23.6470    0.6050   14.6980 C.ar  214  HIS214      0.1986
    111  NE2       22.5710    0.4300   13.9430 N.ar  214  HIS214     -0.2212
    112  N         28.5240   -2.4970   18.0860 N.3   220  PHE220     -0.1227
    113  CA        27.6990   -2.4730   16.8790 C.3   220  PHE220      0.1736
    114  C         26.3080   -1.9220   17.1620 C.2   220  PHE220      0.2595
    115  O         25.8580   -1.0030   16.5150 O.2   220  PHE220     -0.2718
    116  CB        27.6900   -3.8930   16.2630 C.3   220  PHE220      0.0547
    117  CG        27.2100   -4.0090   14.8160 C.ar  220  PHE220     -0.0202
    118  CD1       26.5380   -2.9670   14.1050 C.ar  220  PHE220     -0.0042
    119  CD2       27.3780   -5.2460   14.1660 C.ar  220  PHE220     -0.0042
    120  CE1       26.1310   -3.1680   12.7490 C.ar  220  PHE220     -0.0003
    121  CE2       26.9540   -5.4490   12.8370 C.ar  220  PHE220     -0.0003
    122  CZ        26.3350   -4.4230   12.1280 C.ar  220  PHE220     -0.0000
    123  N         25.6340   -2.4100   18.2020 N.am  221  HIS221     -0.1975
    124  CA        24.3150   -1.8700   18.5560 C.3   221  HIS221      0.1656
    125  C         24.3220   -1.6990   20.0400 C.2   221  HIS221      0.2291
    126  O         24.6680   -2.6320   20.7930 O.2   221  HIS221     -0.2864
    127  CB        23.1750   -2.8340   18.1860 C.3   221  HIS221      0.0771
    128  CG        23.1070   -3.1470   16.7400 C.ar  221  HIS221      0.0820
    129  ND1       23.7380   -4.2400   16.2070 N.ar  221  HIS221     -0.2267
    130  CD2       22.5190   -2.4980   15.7060 C.ar  221  HIS221      0.1154
    131  CE1       23.5610   -4.2500   14.9030 C.ar  221  HIS221      0.1986
    132  NE2       22.8160   -3.2050   14.5770 N.ar  221  HIS221     -0.2212
    133  N         17.6610    5.0540   10.7130 N.3   247  GLU247     -0.1245
    134  CA        17.5060    4.1380    9.5760 C.3   247  GLU247      0.1567
    135  C         16.0580    3.7350    9.3080 C.2   247  GLU247      0.2260
    136  O         15.6950    2.5100    9.2830 O.2   247  GLU247     -0.2867
    137  CB        18.4580    2.9370    9.7190 C.3   247  GLU247      0.0388
    138  CG        18.3410    2.1390   10.9930 C.3   247  GLU247      0.1160
    139  CD        19.2840    0.9770   11.0040 C.2   247  GLU247      0.3649
    140  OE1       19.9870    0.7570   12.0170 O.co2 247  GLU247     -0.2457
    141  OE2       19.3460    0.3000    9.9580 O.co2 247  GLU247     -0.2457
    142  N         16.6560  -14.3450    9.8330 N.3   264  TRP264     -0.1241
    143  CA        17.1740  -12.9810    9.6300 C.3   264  TRP264      0.1605
    144  C         16.3070  -12.0850    8.7440 C.2   264  TRP264      0.2264
    145  O         16.1000  -10.8830    9.0680 O.2   264  TRP264     -0.2867
    146  CB        18.5980  -13.0660    9.1000 C.3   264  TRP264      0.0550
    147  CG        19.6440  -13.2220   10.2250 C.ar  264  TRP264      0.0003
    148  CD1       20.3660  -14.3320   10.5450 C.ar  264  TRP264      0.0946
    149  CD2       20.0680  -12.2010   11.1130 C.ar  264  TRP264      0.0152
    150  NE1       21.2080  -14.0740   11.5970 N.ar  264  TRP264     -0.2442
    151  CE2       21.0620  -12.7500   11.9410 C.ar  264  TRP264      0.0810
    152  CE3       19.7690  -10.8250   11.2230 C.ar  264  TRP264      0.0012
    153  CZ2       21.6760  -12.0120   12.9170 C.ar  264  TRP264      0.0191
    154  CZ3       20.3720  -10.1150   12.1950 C.ar  264  TRP264      0.0001
    155  CH2       21.3410  -10.6790   13.0180 C.ar  264  TRP264      0.0015
    156  N         14.5730    1.7390    2.7910 N.3   276  GLN276     -0.1245
    157  CA        15.3140    2.1830    3.9830 C.3   276  GLN276      0.1566
    158  C         16.4870    3.0400    3.5500 C.2   276  GLN276      0.2260
    159  O         17.0890    2.8350    2.5030 O.2   276  GLN276     -0.2867
    160  CB        15.7970    0.9660    4.7930 C.3   276  GLN276      0.0367
    161  CG        16.5400    1.2990    6.0760 C.3   276  GLN276      0.0905
    162  CD        16.8780    0.0570    6.8750 C.2   276  GLN276      0.2608
    163  OE1       17.1850   -0.9960    6.2870 O.2   276  GLN276     -0.2717
    164  NE2       16.9190    0.1830    8.2310 N.am  276  GLN276     -0.0878
    165  N         19.9850    4.6030    5.8050 N.3   278  GLU278     -0.1245
    166  CA        20.7520    4.6970    7.0660 C.3   278  GLU278      0.1567
    167  C         21.9630    5.5640    6.9850 C.2   278  GLU278      0.2260
    168  O         22.7550    5.4700    6.0040 O.2   278  GLU278     -0.2867
    169  CB        21.1420    3.3090    7.5540 C.3   278  GLU278      0.0388
    170  CG        21.8500    3.3150    8.9350 C.3   278  GLU278      0.1160
    171  CD        22.1770    1.9150    9.4580 C.2   278  GLU278      0.3649
    172  OE1       22.3440    1.0230    8.6050 O.co2 278  GLU278     -0.2457
    173  OE2       22.3060    1.7350   10.7400 O.co2 278  GLU278     -0.2457
@<TRIPOS>BOND
     1    68    66    1
     2    34    33    2
     3   159   158    2
     4    66    65    1
     5    33    32    1
     6   156   157    1
     7    53    54    1
     8   158   157    1
     9    32    31    1
    10    32    35    1
    11   157   160    1
    12    65    67    1
    13    65    62    1
    14    54    55    1
    15    54    57    1
    16    55    56    2
    17    55    61   am
    18    61    62    1
    19   160   161    1
    20    62    63    1
    21    35    36    1
    22    57    58    1
    23    37    38    1
    24   165   166    1
    25   168   167    2
    26    45    46    2
    27    45    44    1
    28   161   162    1
    29    38    39    1
    30    38    41    1
    31   163   162    2
    32    63    64    2
    33    63    69   am
    34    30    29   ar
    35    30    28   ar
    36    58    59   ar
    37    58    60   ar
    38    39    43   am
    39    39    40    2
    40    43    44    1
    41    29    27   ar
    42   162   164   am
    43   167   166    1
    44    44    47    1
    45    69    70    1
    46   166   169    1
    47    28    26   ar
    48    41    42    1
    49   169   170    1
    50    27    25   ar
    51     6     7    1
    52     6     5    1
    53    72    71    2
    54    70    71    1
    55    70    73    1
    56    47    48    1
    57     7     1    1
    58     5     2    1
    59    26    25   ar
    60   172   171   ar
    61    78    79    2
    62    78    77    1
    63   144   145    2
    64   144   143    1
    65    25    24    1
    66   170   171    1
    67   146   143    1
    68   146   147    1
    69    50    48   ar
    70    50    52   ar
    71    22    23    2
    72    22    21    1
    73   136   135    2
    74   135   134    1
    75    82    81   ar
    76    48    49   ar
    77    74    73    1
    78   171   173   ar
    79    73    75    1
    80    77    76    1
    81    77    80    1
    82   134   137    1
    83   134   133    1
    84   143   142    1
    85     1     2    1
    86   137   138    1
    87     2     3    1
    88     3     4    2
    89   141   139   ar
    90    24    21    1
    91    21    20    1
    92   147   148   ar
    93   147   149   ar
    94    52    51   ar
    95    81    80    1
    96    81    83   ar
    97   148   150   ar
    98    49    51   ar
    99   138   139    1
   100   139   140   ar
   101   149   152   ar
   102   149   151   ar
   103   152   154   ar
   104   150   151   ar
   105    93    91   ar
   106    93    94   ar
   107   151   153   ar
   108    91    89   ar
   109   122   120   ar
   110   122   121   ar
   111   154   155   ar
   112    95    94    1
   113    94    92   ar
   114    89    88    1
   115    89    90   ar
   116    88    85    1
   117   120   118   ar
   118   121   119   ar
   119     8     9    1
   120    92    90   ar
   121   153   155   ar
   122    11    10    2
   123    12     9    1
   124    12    13    1
   125    87    86    2
   126   111   110   ar
   127   111   109   ar
   128     9    10    1
   129    85    86    1
   130    85    84    1
   131   118   117   ar
   132   119   117   ar
   133    86    96   am
   134   132   131   ar
   135   132   130   ar
   136    99    98    2
   137    15    13   ar
   138    15    17   ar
   139    13    14   ar
   140   110   108   ar
   141   109   107   ar
   142   117   116    1
   143    98    97    1
   144   131   129   ar
   145    96    97    1
   146    97   100    1
   147    17    18   ar
   148   130   128   ar
   149    14    16   ar
   150   108   107   ar
   151   107   106    1
   152   129   128   ar
   153   116   113    1
   154   102   103    1
   155   115   114    2
   156    18    16   ar
   157    18    19    1
   158   105   104    2
   159   128   127    1
   160   113   114    1
   161   113   112    1
   162   100   101    1
   163   114   123   am
   164   106   103    1
   165   103   104    1
   166   127   124    1
   167   123   124    1
   168   124   125    1
   169   125   126    2
