@<TRIPOS>MOLECULE
tmp/4u6dA01.pdb
 113 109 0 0 0
SMALL
GASTEIGER

@<TRIPOS>ATOM
      1  N         30.8990   71.8830  -29.5970 N.3    61  ARG61      -0.1231
      2  CA        30.0080   72.6910  -28.7550 C.3    61  ARG61       0.1694
      3  C         28.6710   71.9740  -28.5660 C.2    61  ARG61       0.2592
      4  O         28.3990   70.9560  -29.2150 O.2    61  ARG61      -0.2718
      5  CB        29.7820   74.0540  -29.3860 C.3    61  ARG61       0.0321
      6  CG        29.2600   74.0500  -30.8410 C.3    61  ARG61       0.0489
      7  CD        29.1360   75.4700  -31.3770 C.3    61  ARG61       0.2205
      8  NE        28.1030   76.2650  -30.6500 N.pl3  61  ARG61      -0.0865
      9  CZ        28.1630   77.6030  -30.4950 C.cat  61  ARG61       0.5346
     10  NH1       29.1840   78.3550  -30.9840 N.pl3  61  ARG61       0.1354
     11  NH2       27.1910   78.2580  -29.8340 N.pl3  61  ARG61       0.1354
     12  N         27.8610   72.5300  -27.6440 N.am   62  ASP62      -0.1974
     13  CA        26.4870   72.0690  -27.4110 C.3    62  ASP62       0.1709
     14  C         26.3890   70.5830  -27.1160 C.2    62  ASP62       0.2293
     15  O         25.7030   69.8180  -27.8160 O.2    62  ASP62      -0.2864
     16  CB        25.5850   72.4820  -28.5800 C.3    62  ASP62       0.1436
     17  CG        25.4240   73.9710  -28.6580 C.2    62  ASP62       0.3671
     18  OD1       24.6840   74.5810  -27.8390 O.co2  62  ASP62      -0.2456
     19  OD2       26.0470   74.6100  -29.5250 O.co2  62  ASP62      -0.2456
     20  N         28.6250   76.9110  -35.8890 N.3   101  TRP101     -0.1241
     21  CA        27.8880   75.6370  -35.9720 C.3   101  TRP101      0.1605
     22  C         27.4260   75.3160  -37.4050 C.2   101  TRP101      0.2264
     23  O         26.6460   74.4010  -37.5990 O.2   101  TRP101     -0.2867
     24  CB        26.6710   75.6760  -35.0180 C.3   101  TRP101      0.0550
     25  CG        25.8020   76.8770  -35.2210 C.ar  101  TRP101      0.0003
     26  CD1       24.6800   76.9700  -36.0110 C.ar  101  TRP101      0.0946
     27  CD2       25.9600   78.1520  -34.6100 C.ar  101  TRP101      0.0152
     28  NE1       24.1650   78.2350  -35.9530 N.ar  101  TRP101     -0.2442
     29  CE2       24.9300   78.9790  -35.0880 C.ar  101  TRP101      0.0810
     30  CE3       26.8860   78.6800  -33.6760 C.ar  101  TRP101      0.0012
     31  CZ2       24.7920   80.3080  -34.6890 C.ar  101  TRP101      0.0191
     32  CZ3       26.7400   80.0140  -33.2840 C.ar  101  TRP101      0.0001
     33  CH2       25.7210   80.8120  -33.8100 C.ar  101  TRP101      0.0015
     34  N         23.6450   70.7550  -32.3650 N.3   139  THR139     -0.1218
     35  CA        22.9610   71.1350  -31.1210 C.3   139  THR139      0.1862
     36  C         22.0510   69.9950  -30.6790 C.2   139  THR139      0.2287
     37  O         20.8740   70.1940  -30.3580 O.2   139  THR139     -0.2866
     38  CB        22.2050   72.4580  -31.2850 C.3   139  THR139      0.1770
     39  OG1       22.9720   73.3840  -32.1110 O.3   139  THR139     -0.2211
     40  CG2       21.9870   73.0700  -29.8530 C.3   139  THR139      0.0375
     41  N         19.1220   70.2160  -34.5280 N.3   154  GLN154     -0.1245
     42  CA        18.7710   71.2780  -35.4290 C.3   154  GLN154      0.1566
     43  C         19.2100   70.8580  -36.8220 C.2   154  GLN154      0.2260
     44  O         20.2780   70.4470  -36.9820 O.2   154  GLN154     -0.2867
     45  CB        19.4510   72.5890  -35.0520 C.3   154  GLN154      0.0367
     46  CG        19.0200   73.0540  -33.6670 C.3   154  GLN154      0.0905
     47  CD        19.7870   74.2590  -33.1020 C.2   154  GLN154      0.2608
     48  OE1       19.7410   74.5050  -31.9440 O.2   154  GLN154     -0.2717
     49  NE2       20.4250   74.9980  -33.9460 N.am  154  GLN154     -0.0878
     50  N         19.2490   82.7290  -37.4870 N.3   165  ASP165     -0.1239
     51  CA        19.7850   81.4060  -37.1410 C.3   165  ASP165      0.1674
     52  C         18.6080   80.4260  -37.2270 C.2   165  ASP165      0.2266
     53  O         18.0180   80.0300  -36.2110 O.2   165  ASP165     -0.2867
     54  CB        20.3760   81.4570  -35.7160 C.3   165  ASP165      0.1410
     55  CG        21.0820   80.1830  -35.3180 C.2   165  ASP165      0.3668
     56  OD1       21.4420   79.3870  -36.1910 O.co2 165  ASP165     -0.2456
     57  OD2       21.3290   79.9950  -34.1000 O.co2 165  ASP165     -0.2456
     58  N         15.4590   75.6200  -31.5450 N.3   203  HIS203     -0.1226
     59  CA        16.8390   75.3820  -31.1180 C.3   203  HIS203      0.1752
     60  C         16.9470   74.5220  -29.8930 C.2   203  HIS203      0.2596
     61  O         15.9890   74.4210  -29.1000 O.2   203  HIS203     -0.2718
     62  CB        17.5300   76.7190  -30.8300 C.3   203  HIS203      0.0759
     63  CG        17.7880   77.5460  -32.0420 C.ar  203  HIS203      0.0818
     64  ND1       18.0780   78.8960  -31.9810 N.ar  203  HIS203     -0.2268
     65  CD2       17.7600   77.2220  -33.3520 C.ar  203  HIS203      0.1154
     66  CE1       18.2890   79.3530  -33.2030 C.ar  203  HIS203      0.1986
     67  NE2       18.0870   78.3640  -34.0540 N.ar  203  HIS203     -0.2212
     68  N         18.1360   73.9390  -29.6810 N.am  204  ASP204     -0.1974
     69  CA        18.4480   73.3390  -28.3670 C.3   204  ASP204      0.1709
     70  C         17.4770   72.2440  -27.9200 C.2   204  ASP204      0.2293
     71  O         17.0950   72.2020  -26.7340 O.2   204  ASP204     -0.2864
     72  CB        18.5800   74.4590  -27.3050 C.3   204  ASP204      0.1436
     73  CG        19.5800   75.5330  -27.7190 C.2   204  ASP204      0.3671
     74  OD1       20.7620   75.2010  -27.9300 O.co2 204  ASP204     -0.2456
     75  OD2       19.2080   76.7040  -27.8500 O.co2 204  ASP204     -0.2456
     76  N         14.4230   76.2050  -27.5120 N.3   219  LYS219     -0.1245
     77  CA        14.5090   77.6720  -27.4100 C.3   219  LYS219      0.1561
     78  C         14.1710   78.2270  -28.7720 C.2   219  LYS219      0.2260
     79  O         14.4730   77.5910  -29.7940 O.2   219  LYS219     -0.2867
     80  CB        15.9460   78.0770  -27.0420 C.3   219  LYS219      0.0271
     81  CG        16.2060   79.6000  -26.9690 C.3   219  LYS219      0.0035
     82  CD        16.7060   80.1320  -28.3410 C.3   219  LYS219      0.0206
     83  CE        18.1970   80.0760  -28.4100 C.3   219  LYS219      0.1093
     84  NZ        18.7360   80.4460  -29.7470 N.3   219  LYS219     -0.1314
     85  N         18.8470   80.8640  -22.5030 N.3   257  HIS257     -0.1226
     86  CA        19.2990   80.6820  -23.8480 C.3   257  HIS257      0.1752
     87  C         19.1550   79.1830  -24.1770 C.2   257  HIS257      0.2595
     88  O         18.0770   78.6820  -24.2630 O.2   257  HIS257     -0.2718
     89  CB        20.6980   81.2250  -23.9700 C.3   257  HIS257      0.0759
     90  CG        21.0770   81.6570  -25.3440 C.ar  257  HIS257      0.0818
     91  ND1       21.2760   82.9700  -25.6790 N.ar  257  HIS257     -0.2268
     92  CD2       21.2810   80.9510  -26.4650 C.ar  257  HIS257      0.1154
     93  CE1       21.6430   83.0400  -26.9370 C.ar  257  HIS257      0.1986
     94  NE2       21.6380   81.8330  -27.4420 N.ar  257  HIS257     -0.2212
     95  N         20.2660   78.4760  -24.2860 N.am  258  GLU258     -0.1979
     96  CA        20.1850   77.0170  -24.4920 C.3   258  GLU258      0.1602
     97  C         19.4510   76.3420  -23.3260 C.2   258  GLU258      0.2287
     98  O         19.6490   76.7020  -22.2510 O.2   258  GLU258     -0.2864
     99  CB        21.5620   76.3890  -24.6200 C.3   258  GLU258      0.0415
    100  CG        22.3790   76.9470  -25.7410 C.3   258  GLU258      0.1163
    101  CD        23.3000   78.1100  -25.3600 C.2   258  GLU258      0.3649
    102  OE1       23.1380   78.6760  -24.3160 O.co2 258  GLU258     -0.2457
    103  OE2       24.1600   78.4600  -26.1350 O.co2 258  GLU258     -0.2457
    104  N         30.0680   74.1460  -22.7040 N.3   327  HIS327     -0.1241
    105  CA        30.9960   74.7830  -23.6670 C.3   327  HIS327      0.1621
    106  C         31.3840   76.1920  -23.3830 C.2   327  HIS327      0.2264
    107  O         30.7490   76.8850  -22.5850 O.2   327  HIS327     -0.2867
    108  CB        30.5630   74.6190  -25.1190 C.3   327  HIS327      0.0745
    109  CG        29.3400   75.3750  -25.5470 C.ar  327  HIS327      0.0817
    110  ND1       29.1150   76.7210  -25.3150 N.ar  327  HIS327     -0.2268
    111  CD2       28.3000   74.9560  -26.3050 C.ar  327  HIS327      0.1154
    112  CE1       27.9890   77.0990  -25.9000 C.ar  327  HIS327      0.1986
    113  NE2       27.4700   76.0360  -26.4930 N.ar  327  HIS327     -0.2212
@<TRIPOS>BOND
     1    23    22    2
     2    50    51    1
     3    22    21    1
     4    52    51    1
     5    52    53    2
     6    51    54    1
     7    44    43    2
     8    43    42    1
     9    56    55   ar
    10    26    28   ar
    11    26    25   ar
    12    21    20    1
    13    21    24    1
    14    28    29   ar
    15    54    55    1
    16    42    45    1
    17    42    41    1
    18    55    57   ar
    19    25    24    1
    20    25    27   ar
    21    29    31   ar
    22    29    27   ar
    23    45    46    1
    24    31    33   ar
    25    27    30   ar
    26    67    65   ar
    27    67    66   ar
    28    49    47   am
    29    33    32   ar
    30    30    32   ar
    31    46    47    1
    32    65    63   ar
    33    66    64   ar
    34    47    48    2
    35    34    35    1
    36    39    38    1
    37    63    64   ar
    38    63    62    1
    39    58    59    1
    40     7     6    1
    41     7     8    1
    42    38    35    1
    43    38    40    1
    44    35    36    1
    45    59    62    1
    46    59    60    1
    47    10     9    1
    48     6     5    1
    49    36    37    2
    50     8     9    2
    51     9    11    1
    52    60    68   am
    53    60    61    2
    54    79    78    2
    55    84    83    1
    56    68    69    1
    57     1     2    1
    58    19    17   ar
    59     5     2    1
    60     4     3    2
    61    78    77    1
    62     2     3    1
    63    17    16    1
    64    17    18   ar
    65    16    13    1
    66     3    12   am
    67    83    82    1
    68    69    70    1
    69    69    72    1
    70    82    81    1
    71    74    73   ar
    72    70    71    2
    73    75    73   ar
    74    15    14    2
    75    73    72    1
    76    12    13    1
    77    76    77    1
    78    94    93   ar
    79    94    92   ar
    80    13    14    1
    81    77    80    1
    82    80    81    1
    83    93    91   ar
    84   113   111   ar
    85   113   112   ar
    86    92    90   ar
    87   111   109   ar
    88   103   101   ar
    89   112   110   ar
    90   100   101    1
    91   100    99    1
    92    91    90   ar
    93   109   110   ar
    94   109   108    1
    95   101   102   ar
    96    90    89    1
    97   108   105    1
    98    99    96    1
    99    96    95    1
   100    96    97    1
   101    95    87   am
   102    88    87    2
   103    87    86    1
   104    89    86    1
   105    86    85    1
   106   105   106    1
   107   105   104    1
   108   106   107    2
   109    97    98    2
