@<TRIPOS>MOLECULE
tmp/4u6pB01.pdb
 133 127 0 0 0
SMALL
GASTEIGER

@<TRIPOS>ATOM
      1  N        -21.8090  -35.4440   66.1590 N.3    77  ASP77      -0.1225
      2  CA       -22.3370  -35.8180   64.8580 C.3    77  ASP77       0.1805
      3  C        -23.1350  -34.6610   64.2440 C.2    77  ASP77       0.2597
      4  O        -24.1550  -34.2650   64.8020 O.2    77  ASP77      -0.2718
      5  CB       -23.2360  -37.0510   65.0120 C.3    77  ASP77       0.1424
      6  CG       -23.3200  -37.8820   63.7510 C.2    77  ASP77       0.3668
      7  OD1      -23.4930  -37.2800   62.6630 O.co2  77  ASP77      -0.2456
      8  OD2      -23.2460  -39.1350   63.8580 O.co2  77  ASP77      -0.2456
      9  N        -22.6850  -34.1050   63.1150 N.am   78  MET78      -0.1979
     10  CA       -23.5040  -33.1120   62.4130 C.3    78  MET78       0.1605
     11  C        -24.7600  -33.7620   61.8520 C.2    78  MET78       0.2287
     12  O        -24.7020  -34.8460   61.2690 O.2    78  MET78      -0.2864
     13  CB       -22.7440  -32.4420   61.2730 C.3    78  MET78       0.0413
     14  CG       -21.5940  -31.5880   61.6890 C.3    78  MET78       0.0598
     15  SD       -22.1390  -30.2380   62.7450 S.3    78  MET78      -0.1393
     16  CE       -20.5820  -29.8390   63.5010 C.3    78  MET78       0.0692
     17  N        -27.4960  -34.6500   59.3980 N.3    80  ALA80      -0.1231
     18  CA       -27.7360  -34.7020   57.9560 C.3    80  ALA80       0.1694
     19  C        -26.8090  -33.7430   57.1960 C.2    80  ALA80       0.2592
     20  O        -27.2130  -33.0980   56.2210 O.2    80  ALA80      -0.2718
     21  CB       -29.1960  -34.4160   57.6450 C.3    80  ALA80       0.0304
     22  N        -25.5590  -33.6970   57.6580 N.am   81  PHE81      -0.1962
     23  CA       -24.5410  -32.7160   57.2740 C.3    81  PHE81       0.1771
     24  C        -24.5890  -32.1620   55.8530 C.2    81  PHE81       0.2619
     25  O        -24.8220  -30.9600   55.6690 O.2    81  PHE81      -0.2715
     26  CB       -23.1600  -33.3250   57.5130 C.3    81  PHE81       0.0574
     27  CG       -22.0460  -32.3270   57.4670 C.ar   81  PHE81      -0.0200
     28  CD1      -22.1800  -31.0950   58.0910 C.ar   81  PHE81      -0.0042
     29  CD2      -20.8490  -32.6340   56.8420 C.ar   81  PHE81      -0.0042
     30  CE1      -21.1510  -30.1690   58.0640 C.ar   81  PHE81      -0.0003
     31  CE2      -19.8100  -31.7240   56.8100 C.ar   81  PHE81      -0.0003
     32  CZ       -19.9600  -30.4850   57.4230 C.ar   81  PHE81      -0.0000
     33  N        -24.3540  -33.0170   54.8600 N.am   82  TYR82      -0.1974
     34  CA       -24.2530  -32.5510   53.4820 C.3    82  TYR82       0.1639
     35  C        -25.5390  -31.8370   53.0720 C.2    82  TYR82       0.2290
     36  O        -25.5200  -30.7020   52.5330 O.2    82  TYR82      -0.2864
     37  CB       -23.9740  -33.7070   52.5060 C.3    82  TYR82       0.0560
     38  CG       -22.6400  -34.3970   52.6810 C.ar   82  TYR82      -0.0198
     39  CD1      -22.3030  -35.4970   51.8990 C.ar   82  TYR82      -0.0009
     40  CD2      -21.7090  -33.9360   53.6020 C.ar   82  TYR82      -0.0009
     41  CE1      -21.0830  -36.1350   52.0430 C.ar   82  TYR82       0.0417
     42  CE2      -20.4870  -34.5700   53.7650 C.ar   82  TYR82       0.0417
     43  CZ       -20.1770  -35.6660   52.9780 C.ar   82  TYR82       0.1957
     44  OH       -18.9600  -36.2970   53.1250 O.3    82  TYR82      -0.2866
     45  N        -25.5490  -39.7610   48.5590 N.3   107  SER107     -0.1202
     46  CA       -24.5980  -39.6960   49.6470 C.3   107  SER107      0.2020
     47  C        -25.3900  -39.5890   50.9460 C.2   107  SER107      0.2619
     48  O        -25.0580  -40.2320   51.9360 O.2   107  SER107     -0.2717
     49  CB       -23.6450  -38.5150   49.4710 C.3   107  SER107      0.2103
     50  OG       -22.4060  -38.7780   50.1020 O.3   107  SER107     -0.2182
     51  N        -26.4570  -38.7890   50.9260 N.am  108  THR108     -0.1952
     52  CA       -27.2760  -38.6100   52.1360 C.3   108  THR108      0.1897
     53  C        -28.6150  -37.9280   51.8730 C.2   108  THR108      0.2313
     54  O        -28.8440  -37.4050   50.7890 O.2   108  THR108     -0.2863
     55  CB       -26.5410  -37.8050   53.2120 C.3   108  THR108      0.1794
     56  OG1      -27.2810  -37.8840   54.4370 O.3   108  THR108     -0.2208
     57  CG2      -26.4630  -36.3600   52.8160 C.3   108  THR108      0.0378
     58  N        -34.0360  -35.2830   56.8080 N.3   111  TYR111     -0.1241
     59  CA       -35.0220  -36.0120   57.5930 C.3   111  TYR111      0.1605
     60  C        -36.3700  -36.1080   56.9120 C.2   111  TYR111      0.2264
     61  O        -37.0440  -37.1530   56.9490 O.2   111  TYR111     -0.2867
     62  CB       -35.1410  -35.3530   58.9520 C.3   111  TYR111      0.0534
     63  CG       -33.8830  -35.5630   59.7410 C.ar  111  TYR111     -0.0201
     64  CD1      -33.4990  -36.8420   60.1020 C.ar  111  TYR111     -0.0009
     65  CD2      -33.0620  -34.5050   60.0970 C.ar  111  TYR111     -0.0009
     66  CE1      -32.3500  -37.0730   60.8140 C.ar  111  TYR111      0.0417
     67  CE2      -31.8910  -34.7290   60.8170 C.ar  111  TYR111      0.0417
     68  CZ       -31.5470  -36.0240   61.1690 C.ar  111  TYR111      0.1957
     69  OH       -30.4000  -36.2940   61.8790 O.3   111  TYR111     -0.2866
     70  N        -35.8460  -38.6550   54.5970 N.3   114  ARG114     -0.1245
     71  CA       -35.6550  -39.8730   55.3650 C.3   114  ARG114      0.1563
     72  C        -37.0110  -40.4790   55.7240 C.2   114  ARG114      0.2260
     73  O        -37.1020  -41.6630   56.0470 O.2   114  ARG114     -0.2867
     74  CB       -34.8510  -39.5890   56.6340 C.3   114  ARG114      0.0307
     75  CG       -33.3770  -39.9450   56.5280 C.3   114  ARG114      0.0489
     76  CD       -32.5640  -39.2630   57.6160 C.3   114  ARG114      0.2205
     77  NE       -31.2390  -38.8700   57.1450 N.pl3 114  ARG114     -0.0865
     78  CZ       -30.1550  -38.8260   57.9120 C.cat 114  ARG114      0.5346
     79  NH1      -30.2350  -39.1530   59.1950 N.pl3 114  ARG114      0.1354
     80  NH2      -28.9900  -38.4560   57.3980 N.pl3 114  ARG114      0.1354
     81  N        -28.9020  -42.7810   52.7010 N.3   120  ALA120     -0.1231
     82  CA       -27.5450  -42.8500   52.1900 C.3   120  ALA120      0.1694
     83  C        -27.2900  -44.2090   51.5620 C.2   120  ALA120      0.2591
     84  O        -27.8620  -45.2110   51.9970 O.2   120  ALA120     -0.2718
     85  CB       -26.5520  -42.5810   53.2970 C.3   120  ALA120      0.0304
     86  N        -26.4590  -44.2170   50.5210 N.am  121  ALA121     -0.1980
     87  CA       -26.0440  -45.4350   49.8130 C.3   121  ALA121      0.1597
     88  C        -27.1700  -46.0380   48.9760 C.2   121  ALA121      0.2287
     89  O        -27.0890  -47.1960   48.5680 O.2   121  ALA121     -0.2864
     90  CB       -25.4820  -46.4900   50.8010 C.3   121  ALA121      0.0319
     91  N        -18.3130  -31.3390   47.8100 N.3   141  PHE141     -0.1241
     92  CA       -17.4440  -31.8280   48.8750 C.3   141  PHE141      0.1605
     93  C        -16.4870  -30.7630   49.4280 C.2   141  PHE141      0.2264
     94  O        -16.1130  -30.8130   50.6020 O.2   141  PHE141     -0.2867
     95  CB       -16.6530  -33.0480   48.3860 C.3   141  PHE141      0.0534
     96  CG       -17.4840  -34.3150   48.2780 C.ar  141  PHE141     -0.0203
     97  CD1      -17.9460  -34.9660   49.4190 C.ar  141  PHE141     -0.0042
     98  CD2      -17.7940  -34.8650   47.0300 C.ar  141  PHE141     -0.0042
     99  CE1      -18.7110  -36.1430   49.3170 C.ar  141  PHE141     -0.0003
    100  CE2      -18.5580  -36.0400   46.9180 C.ar  141  PHE141     -0.0003
    101  CZ       -19.0160  -36.6770   48.0610 C.ar  141  PHE141     -0.0000
    102  N        -14.9260  -38.6660   60.4180 N.3   166  SER166     -0.1217
    103  CA       -15.2790  -38.2530   59.0810 C.3   166  SER166      0.1889
    104  C        -15.3220  -36.7370   59.0640 C.2   166  SER166      0.2288
    105  O        -14.7660  -36.0940   59.9540 O.2   166  SER166     -0.2866
    106  CB       -16.6190  -38.8630   58.6540 C.3   166  SER166      0.2089
    107  OG       -17.6860  -38.4480   59.4870 O.3   166  SER166     -0.2183
    108  N        -17.9780  -34.9520   59.4770 N.3   168  ASP168     -0.1225
    109  CA       -19.0110  -34.5000   60.4130 C.3   168  ASP168      0.1805
    110  C        -19.0550  -35.2730   61.7330 C.2   168  ASP168      0.2597
    111  O        -19.9240  -35.0160   62.5690 O.2   168  ASP168     -0.2718
    112  CB       -20.3860  -34.5930   59.7480 C.3   168  ASP168      0.1424
    113  CG       -20.8710  -36.0200   59.6180 C.2   168  ASP168      0.3668
    114  OD1      -20.0950  -36.8690   59.1360 O.co2 168  ASP168     -0.2456
    115  OD2      -22.0320  -36.2910   59.9970 O.co2 168  ASP168     -0.2456
    116  N        -18.1260  -36.2070   61.9200 N.am  169  GLU169     -0.1979
    117  CA       -18.1120  -37.0530   63.1080 C.3   169  GLU169      0.1602
    118  C        -16.7890  -36.9580   63.8480 C.2   169  GLU169      0.2287
    119  O        -15.7200  -37.0220   63.2290 O.2   169  GLU169     -0.2864
    120  CB       -18.3750  -38.5090   62.7390 C.3   169  GLU169      0.0415
    121  CG       -19.7910  -38.9920   62.9820 C.3   169  GLU169      0.1163
    122  CD       -19.9500  -40.5010   62.7410 C.2   169  GLU169      0.3649
    123  OE1      -19.1860  -41.3060   63.3340 O.co2 169  GLU169     -0.2457
    124  OE2      -20.8500  -40.8790   61.9560 O.co2 169  GLU169     -0.2457
    125  N        -30.8190  -37.4980   68.4070 N.3   241  LYS241     -0.1245
    126  CA       -30.6330  -36.9290   67.0800 C.3   241  LYS241      0.1561
    127  C        -31.9950  -36.6750   66.4400 C.2   241  LYS241      0.2260
    128  O        -32.8800  -37.5260   66.5180 O.2   241  LYS241     -0.2867
    129  CB       -29.7800  -37.8740   66.2310 C.3   241  LYS241      0.0271
    130  CG       -29.4100  -37.3630   64.8570 C.3   241  LYS241      0.0035
    131  CD       -28.5510  -38.3840   64.1310 C.3   241  LYS241      0.0206
    132  CE       -27.1340  -38.3740   64.6830 C.3   241  LYS241      0.1093
    133  NZ       -26.4160  -37.1270   64.2570 N.3   241  LYS241     -0.1314
@<TRIPOS>BOND
     1   100    98   ar
     2   100   101   ar
     3    98    96   ar
     4    91    92    1
     5   101    99   ar
     6    96    95    1
     7    96    97   ar
     8    95    92    1
     9    45    46    1
    10    89    88    2
    11    92    93    1
    12    88    87    1
    13    99    97   ar
    14    93    94    2
    15    49    46    1
    16    49    50    1
    17    46    47    1
    18    87    86    1
    19    87    90    1
    20    86    83   am
    21    54    53    2
    22    51    47   am
    23    51    52    1
    24    47    48    2
    25    83    84    2
    26    83    82    1
    27    53    52    1
    28    39    41   ar
    29    39    38   ar
    30    41    43   ar
    31    52    55    1
    32    82    81    1
    33    82    85    1
    34    37    38    1
    35    37    34    1
    36    36    35    2
    37    38    40   ar
    38    57    55    1
    39    43    44    1
    40    43    42   ar
    41    35    34    1
    42    55    56    1
    43    34    33    1
    44    40    42   ar
    45    70    71    1
    46    33    24   am
    47    71    72    1
    48    71    74    1
    49    25    24    2
    50    72    73    2
    51    24    23    1
    52    20    19    2
    53    75    74    1
    54    75    76    1
    55    58    59    1
    56    31    29   ar
    57    31    32   ar
    58    29    27   ar
    59    60    61    2
    60    60    59    1
    61    77    76    1
    62    77    78    2
    63    19    22   am
    64    19    18    1
    65    23    26    1
    66    23    22    1
    67    80    78    1
    68    32    30   ar
    69    27    26    1
    70    27    28   ar
    71    59    62    1
    72    21    18    1
    73    78    79    1
    74    18    17    1
    75    30    28   ar
    76   106   103    1
    77   106   107    1
    78    62    63    1
    79   104   103    1
    80   104   105    2
    81   103   102    1
    82   114   113   ar
    83   108   109    1
    84   113   112    1
    85   113   115   ar
    86    63    65   ar
    87    63    64   ar
    88   112   109    1
    89    65    67   ar
    90    64    66   ar
    91   109   110    1
    92    66    68   ar
    93    67    68   ar
    94    68    69    1
    95    12    11    2
    96    13    14    1
    97    13    10    1
    98    14    15    1
    99   110   116   am
   100   110   111    2
   101    11    10    1
   102   116   117    1
   103   124   122   ar
   104    10     9    1
   105     7     6   ar
   106   120   121    1
   107   120   117    1
   108   122   121    1
   109   122   123   ar
   110    15    16    1
   111   117   118    1
   112     9     3   am
   113   119   118    2
   114     6     8   ar
   115     6     5    1
   116   131   132    1
   117   131   130    1
   118     3     4    2
   119     3     2    1
   120   133   132    1
   121   130   129    1
   122     2     5    1
   123     2     1    1
   124   129   126    1
   125   127   128    2
   126   127   126    1
   127   126   125    1
