@<TRIPOS>MOLECULE
tmp/4u6qA01.pdb
 111 108 0 0 0
SMALL
GASTEIGER

@<TRIPOS>ATOM
      1  N         11.3360   25.9250  -15.0830 N.3    51  TYR51      -0.1227
      2  CA        10.6080   26.7960  -15.9840 C.3    51  TYR51       0.1736
      3  C         11.0560   26.5080  -17.4170 C.2    51  TYR51       0.2595
      4  O         11.2730   25.3500  -17.7730 O.2    51  TYR51      -0.2718
      5  CB        10.8180   28.2600  -15.5890 C.3    51  TYR51       0.0548
      6  CG        10.2450   28.5950  -14.2280 C.ar   51  TYR51      -0.0200
      7  CD1        8.9150   28.9560  -14.0910 C.ar   51  TYR51      -0.0009
      8  CD2       11.0270   28.5410  -13.0840 C.ar   51  TYR51      -0.0009
      9  CE1        8.3790   29.2600  -12.8580 C.ar   51  TYR51       0.0417
     10  CE2       10.4990   28.8420  -11.8450 C.ar   51  TYR51       0.0417
     11  CZ         9.1760   29.1990  -11.7350 C.ar   51  TYR51       0.1957
     12  OH         8.6650   29.5000  -10.4880 O.3    51  TYR51      -0.2866
     13  N         11.2030   27.5470  -18.2330 N.am   52  HIS52      -0.1975
     14  CA        11.4860   27.3670  -19.6530 C.3    52  HIS52       0.1656
     15  C         12.8920   27.8390  -20.0110 C.2    52  HIS52       0.2291
     16  O         13.3290   27.6960  -21.1530 O.2    52  HIS52      -0.2864
     17  CB        10.4730   28.1560  -20.4790 C.3    52  HIS52       0.0771
     18  CG        10.6290   29.6420  -20.3510 C.ar   52  HIS52       0.0820
     19  ND1       10.1360   30.3470  -19.2790 N.ar   52  HIS52      -0.2267
     20  CD2       11.2370   30.5420  -21.1540 C.ar   52  HIS52       0.1154
     21  CE1       10.4280   31.6310  -19.4290 C.ar   52  HIS52       0.1986
     22  NE2       11.0960   31.7730  -20.5590 N.ar   52  HIS52      -0.2212
     23  N          7.2360   20.7530  -15.2590 N.3    72  ARG72      -0.1231
     24  CA         7.3330   22.0710  -15.8680 C.3    72  ARG72       0.1694
     25  C          6.3560   23.0210  -15.1930 C.2    72  ARG72       0.2592
     26  O          5.1460   22.7950  -15.2170 O.2    72  ARG72      -0.2718
     27  CB         7.0190   21.9990  -17.3630 C.3    72  ARG72       0.0321
     28  CG         8.2240   21.7290  -18.2490 C.3    72  ARG72       0.0489
     29  CD         9.1110   22.9560  -18.3970 C.3    72  ARG72       0.2205
     30  NE         8.4300   24.0420  -19.1040 N.pl3  72  ARG72      -0.0865
     31  CZ         7.9580   25.1550  -18.5410 C.cat  72  ARG72       0.5346
     32  NH1        8.0860   25.3790  -17.2400 N.pl3  72  ARG72       0.1354
     33  NH2        7.3570   26.0630  -19.2940 N.pl3  72  ARG72       0.1354
     34  N          6.8810   24.0780  -14.5830 N.am   73  ILE73      -0.1966
     35  CA         6.0320   25.1300  -14.0450 C.3    73  ILE73       0.1727
     36  C          5.5950   25.9870  -15.2260 C.2    73  ILE73       0.2617
     37  O          6.1390   27.0630  -15.4720 O.2    73  ILE73      -0.2715
     38  CB         6.7560   25.9750  -12.9810 C.3    73  ILE73       0.0290
     39  CG1        7.2370   25.0760  -11.8360 C.3    73  ILE73       0.0022
     40  CG2        5.8270   27.0570  -12.4440 C.3    73  ILE73       0.0023
     41  CD1        8.2250   25.7350  -10.8940 C.3    73  ILE73       0.0001
     42  N          4.6140   25.4750  -15.9630 N.am   74  GLY74      -0.1940
     43  CA         4.1650   26.0730  -17.2050 C.3    74  GLY74       0.2014
     44  C          3.5340   24.9840  -18.0490 C.2    74  GLY74       0.2640
     45  O          3.4570   23.8410  -17.6100 O.2    74  GLY74      -0.2714
     46  N          3.0860   25.3250  -19.2540 N.am   75  SER75      -0.1935
     47  CA         2.4130   24.3540  -20.1110 C.3    75  SER75       0.2055
     48  C          3.3530   23.7630  -21.1610 C.2    75  SER75       0.2643
     49  O          3.2760   22.5750  -21.4700 O.2    75  SER75      -0.2714
     50  CB         1.2030   24.9930  -20.7960 C.3    75  SER75       0.2130
     51  OG         1.5800   26.1350  -21.5380 O.3    75  SER75      -0.2179
     52  N          4.2320   24.5940  -21.7090 N.am   76  GLY76      -0.1954
     53  CA         5.1380   24.1500  -22.7510 C.3    76  GLY76       0.1869
     54  C          6.2900   23.3230  -22.2170 C.2    76  GLY76       0.2309
     55  O          6.9130   23.6760  -21.2160 O.2    76  GLY76      -0.2863
     56  N          1.8310   22.2360  -16.3520 N.3    95  VAL95      -0.1245
     57  CA         0.7470   22.9600  -15.6970 C.3    95  VAL95       0.1561
     58  C          0.0130   23.7870  -16.7510 C.2    95  VAL95       0.2260
     59  O          0.3610   24.9430  -16.9920 O.2    95  VAL95      -0.2867
     60  CB         1.2870   23.8870  -14.6000 C.3    95  VAL95       0.0252
     61  CG1        0.1550   24.6580  -13.9520 C.3    95  VAL95       0.0019
     62  CG2        2.0420   23.0770  -13.5640 C.3    95  VAL95       0.0019
     63  N         -2.4550   29.9530  -16.7840 N.3    99  SER99      -0.1217
     64  CA        -2.3350   31.2280  -17.4900 C.3    99  SER99       0.1889
     65  C         -3.0010   31.2230  -18.8630 C.2    99  SER99       0.2288
     66  O         -2.5460   31.9060  -19.7800 O.2    99  SER99      -0.2866
     67  CB        -0.8580   31.6010  -17.6420 C.3    99  SER99       0.2089
     68  OG        -0.2450   31.7720  -16.3780 O.3    99  SER99      -0.2183
     69  N          5.4960   29.6770  -29.1470 N.3   241  ARG241     -0.1245
     70  CA         6.9100   29.3230  -29.0700 C.3   241  ARG241      0.1563
     71  C          7.6960   29.9880  -30.1940 C.2   241  ARG241      0.2260
     72  O          7.2580   30.0080  -31.3450 O.2   241  ARG241     -0.2867
     73  CB         7.0840   27.8040  -29.1380 C.3   241  ARG241      0.0307
     74  CG         6.8340   27.0900  -27.8180 C.3   241  ARG241      0.0489
     75  CD         7.8700   27.5050  -26.7800 C.3   241  ARG241      0.2205
     76  NE         7.6540   26.8990  -25.4670 N.pl3 241  ARG241     -0.0865
     77  CZ         7.0170   27.4680  -24.4470 C.cat 241  ARG241      0.5346
     78  NH1        6.4900   28.6840  -24.5500 N.pl3 241  ARG241      0.1354
     79  NH2        6.9060   26.8030  -23.3070 N.pl3 241  ARG241      0.1354
     80  N          8.1740   37.3540  -23.1610 N.3   290  HIS290     -0.1241
     81  CA         7.5510   36.1300  -22.6760 C.3   290  HIS290      0.1621
     82  C          6.7740   36.4070  -21.3930 C.2   290  HIS290      0.2264
     83  O          6.9780   35.7400  -20.3790 O.2   290  HIS290     -0.2867
     84  CB         8.6210   35.0630  -22.4280 C.3   290  HIS290      0.0745
     85  CG         8.0940   33.6590  -22.4600 C.ar  290  HIS290      0.0817
     86  ND1        8.8040   32.6200  -23.0240 N.ar  290  HIS290     -0.2268
     87  CD2        6.9410   33.1270  -22.0030 C.ar  290  HIS290      0.1154
     88  CE1        8.1020   31.5020  -22.9110 C.ar  290  HIS290      0.1986
     89  NE2        6.9680   31.7850  -22.2940 N.ar  290  HIS290     -0.2212
     90  N          1.8510   35.2260  -20.1670 N.3   293  TRP293     -0.1241
     91  CA         1.3440   34.3540  -19.1180 C.3   293  TRP293      0.1605
     92  C          1.1360   35.0390  -17.7770 C.2   293  TRP293      0.2264
     93  O          0.3540   34.5610  -16.9560 O.2   293  TRP293     -0.2867
     94  CB         2.3290   33.2120  -18.8910 C.3   293  TRP293      0.0550
     95  CG         3.6330   33.6670  -18.3050 C.ar  293  TRP293      0.0003
     96  CD1        4.6870   34.1980  -18.9800 C.ar  293  TRP293      0.0946
     97  CD2        4.0140   33.6280  -16.9270 C.ar  293  TRP293      0.0152
     98  NE1        5.7060   34.4940  -18.1100 N.ar  293  TRP293     -0.2442
     99  CE2        5.3200   34.1540  -16.8410 C.ar  293  TRP293      0.0810
    100  CE3        3.3890   33.2010  -15.7530 C.ar  293  TRP293      0.0012
    101  CZ2        6.0030   34.2640  -15.6370 C.ar  293  TRP293      0.0191
    102  CZ3        4.0690   33.3100  -14.5590 C.ar  293  TRP293      0.0001
    103  CH2        5.3620   33.8370  -14.5110 C.ar  293  TRP293      0.0015
    104  N          0.1570   28.2960  -10.7340 N.3   302  MET302     -0.1245
    105  CA         0.9270   27.2620  -11.4150 C.3   302  MET302      0.1570
    106  C          2.0000   26.6420  -10.5650 C.2   302  MET302      0.2261
    107  O          2.3330   25.4660  -10.7130 O.2   302  MET302     -0.2867
    108  CB         1.4920   27.7810  -12.7360 C.3   302  MET302      0.0387
    109  CG         2.6320   28.7660  -12.6140 C.3   302  MET302      0.0595
    110  SD         3.3590   28.9830  -14.2500 S.3   302  MET302     -0.1393
    111  CE         2.0660   29.9040  -15.0810 C.3   302  MET302      0.0692
@<TRIPOS>BOND
     1    72    71    2
     2    71    70    1
     3    69    70    1
     4    73    70    1
     5    73    74    1
     6    74    75    1
     7    75    76    1
     8    76    77    2
     9    78    77    1
    10    77    79    1
    11    80    81    1
    12    86    88   ar
    13    86    85   ar
    14    88    89   ar
    15    53    54    1
    16    53    52    1
    17    81    84    1
    18    81    82    1
    19    85    84    1
    20    85    87   ar
    21    89    87   ar
    22    54    55    2
    23    52    48   am
    24    51    50    1
    25    49    48    2
    26    82    83    2
    27    48    47    1
    28    20    22   ar
    29    20    18   ar
    30    16    15    2
    31    50    47    1
    32    22    21   ar
    33    17    18    1
    34    17    14    1
    35    18    19   ar
    36    90    91    1
    37    47    46    1
    38    15    14    1
    39    66    65    2
    40    14    13    1
    41    21    19   ar
    42    33    31    1
    43    46    44   am
    44    91    94    1
    45    91    92    1
    46    30    31    2
    47    30    29    1
    48    96    95   ar
    49    96    98   ar
    50    94    95    1
    51    65    64    1
    52    31    32    1
    53    29    28    1
    54    95    97   ar
    55    28    27    1
    56    13     3   am
    57    98    99   ar
    58    44    45    2
    59    44    43    1
    60    92    93    2
    61     4     3    2
    62    67    64    1
    63    67    68    1
    64    64    63    1
    65     3     2    1
    66    27    24    1
    67    43    42    1
    68    59    58    2
    69    97    99   ar
    70    97   100   ar
    71    99   101   ar
    72    58    57    1
    73    56    57    1
    74     2     5    1
    75     2     1    1
    76    42    36   am
    77    24    23    1
    78    24    25    1
    79   100   102   ar
    80    57    60    1
    81   101   103   ar
    82     5     6    1
    83    37    36    2
    84    36    35    1
    85    26    25    2
    86    25    34   am
    87   111   110    1
    88    60    61    1
    89    60    62    1
    90    34    35    1
    91   102   103   ar
    92   110   109    1
    93     6     7   ar
    94     6     8   ar
    95     7     9   ar
    96    35    38    1
    97     8    10   ar
    98    38    40    1
    99    38    39    1
   100     9    11   ar
   101   108   109    1
   102   108   105    1
   103    10    11   ar
   104    39    41    1
   105    11    12    1
   106   105   104    1
   107   105   106    1
   108   107   106    2
