@<TRIPOS>MOLECULE
tmp/4u6rA00.pdb
 216 205 0 0 0
SMALL
GASTEIGER

@<TRIPOS>ATOM
      1  N         -2.7960  -29.1670    3.5380 N.3    17  LEU17      -0.1231
      2  CA        -2.9890  -28.6700    2.1820 C.3    17  LEU17       0.1693
      3  C         -1.9600  -29.2350    1.2330 C.2    17  LEU17       0.2593
      4  O         -2.0850  -29.0630    0.0290 O.2    17  LEU17      -0.2718
      5  CB        -2.8840  -27.1430    2.1420 C.3    17  LEU17       0.0284
      6  CG        -3.9260  -26.3360    2.8930 C.3    17  LEU17       0.0019
      7  CD1       -3.5970  -24.8570    2.8320 C.3    17  LEU17       0.0001
      8  CD2       -5.3090  -26.6240    2.3320 C.3    17  LEU17       0.0001
      9  N         -0.9170  -29.8510    1.7720 N.am   18  GLY18      -0.1942
     10  CA         0.1870  -30.3540    0.9580 C.3    18  GLY18       0.2014
     11  C          1.5450  -30.1500    1.5990 C.2    18  GLY18       0.2639
     12  O          1.6630  -29.9540    2.8060 O.2    18  GLY18      -0.2714
     13  N          2.5790  -30.2030    0.7760 N.am   19  HIS19      -0.1959
     14  CA         3.9420  -30.0230    1.2560 C.3    19  HIS19       0.1787
     15  C          4.7010  -29.1170    0.3260 C.2    19  HIS19       0.2620
     16  O          4.4220  -29.0850   -0.8720 O.2    19  HIS19      -0.2715
     17  CB         4.6660  -31.3690    1.3270 C.3    19  HIS19       0.0785
     18  CG         3.9360  -32.4000    2.1190 C.ar   19  HIS19       0.0821
     19  ND1        2.9410  -33.1790    1.5780 N.ar   19  HIS19      -0.2267
     20  CD2        4.0450  -32.7720    3.4160 C.ar   19  HIS19       0.1154
     21  CE1        2.4710  -33.9920    2.5090 C.ar   19  HIS19       0.1986
     22  NE2        3.1290  -33.7700    3.6310 N.ar   19  HIS19      -0.2212
     23  N          5.6650  -28.3940    0.8930 N.am   20  GLY20      -0.1954
     24  CA         6.6410  -27.6300    0.1170 C.3    20  GLY20       0.1869
     25  C          7.9080  -28.4450   -0.0770 C.2    20  GLY20       0.2309
     26  O          7.8490  -29.5920   -0.4930 O.2    20  GLY20      -0.2863
     27  N          2.2800  -28.0920    5.0080 N.3    26  VAL26      -0.1245
     28  CA         1.3840  -26.9420    4.9950 C.3    26  VAL26       0.1561
     29  C         -0.0140  -27.3370    5.4800 C.2    26  VAL26       0.2260
     30  O         -0.5690  -28.3350    5.0220 O.2    26  VAL26      -0.2867
     31  CB         1.3100  -26.2910    3.5990 C.3    26  VAL26       0.0252
     32  CG1        0.3850  -25.0930    3.6160 C.3    26  VAL26       0.0019
     33  CG2        2.6950  -25.8370    3.1630 C.3    26  VAL26       0.0019
     34  N         -2.7020  -20.1270    5.0530 N.3    37  ALA37      -0.1245
     35  CA        -1.9370  -21.3590    4.8350 C.3    37  ALA37       0.1562
     36  C         -0.7530  -21.2880    5.7760 C.2    37  ALA37       0.2260
     37  O         -0.0840  -20.2640    5.8570 O.2    37  ALA37      -0.2867
     38  CB        -1.4770  -21.4740    3.3880 C.3    37  ALA37       0.0290
     39  N          2.7230  -23.0350    6.8610 N.3    39  LYS39      -0.1245
     40  CA         3.8230  -23.9460    6.6000 C.3    39  LYS39       0.1561
     41  C          4.6130  -24.1830    7.8750 C.2    39  LYS39       0.2260
     42  O          5.1070  -23.2500    8.4740 O.2    39  LYS39      -0.2867
     43  CB         4.7200  -23.3680    5.5090 C.3    39  LYS39       0.0271
     44  CG         5.9420  -24.2050    5.1690 C.3    39  LYS39       0.0035
     45  CD         6.2130  -24.2510    3.6650 C.3    39  LYS39       0.0206
     46  CE         7.4990  -23.5470    3.2640 C.3    39  LYS39       0.1093
     47  NZ         7.6090  -23.5170    1.7760 N.3    39  LYS39      -0.1314
     48  N         14.3490  -19.2590    6.0250 N.3    49  ALA49      -0.1245
     49  CA        13.0020  -18.6840    5.8670 C.3    49  ALA49       0.1562
     50  C         12.8900  -17.2550    6.4030 C.2    49  ALA49       0.2260
     51  O         12.0470  -16.4940    5.9320 O.2    49  ALA49      -0.2867
     52  CB        11.9590  -19.5700    6.5400 C.3    49  ALA49       0.0290
     53  N         13.7660  -15.1260    3.5570 N.3    52  GLU52      -0.1231
     54  CA        12.6410  -15.0110    2.6260 C.3    52  GLU52       0.1699
     55  C         11.4770  -14.1620    3.1640 C.2    52  GLU52       0.2592
     56  O         10.6900  -13.6250    2.3810 O.2    52  GLU52      -0.2718
     57  CB        12.1250  -16.4040    2.2540 C.3    52  GLU52       0.0402
     58  CG        13.1540  -17.3010    1.5760 C.3    52  GLU52       0.1161
     59  CD        12.7140  -18.7570    1.5250 C.2    52  GLU52       0.3649
     60  OE1       13.5770  -19.6460    1.7160 O.co2  52  GLU52      -0.2457
     61  OE2       11.5060  -19.0140    1.3050 O.co2  52  GLU52      -0.2457
     62  N         11.3630  -14.0680    4.4900 N.am   53  VAL53      -0.1980
     63  CA        10.3720  -13.2050    5.1530 C.3    53  VAL53       0.1595
     64  C         10.8080  -11.7310    5.1280 C.2    53  VAL53       0.2287
     65  O          9.9650  -10.8400    4.9980 O.2    53  VAL53      -0.2864
     66  CB        10.0890  -13.6800    6.6100 C.3    53  VAL53       0.0276
     67  CG1        9.5150  -12.5680    7.4890 C.3    53  VAL53       0.0022
     68  CG2        9.1540  -14.8830    6.6010 C.3    53  VAL53       0.0022
     69  N          9.7760  -10.3030    2.0410 N.3    56  LEU56      -0.1245
     70  CA         8.3230  -10.2960    1.9430 C.3    56  LEU56       0.1561
     71  C          7.5130   -9.3620    2.8730 C.2    56  LEU56       0.2260
     72  O          6.2840   -9.4240    2.9080 O.2    56  LEU56      -0.2867
     73  CB         7.9030  -11.7680    1.9750 C.3    56  LEU56       0.0270
     74  CG         7.1170  -12.2820    0.7680 C.3    56  LEU56       0.0019
     75  CD1        7.6170  -13.6650    0.3770 C.3    56  LEU56       0.0001
     76  CD2        5.6150  -12.2890    1.0330 C.3    56  LEU56       0.0001
     77  N          1.5970  -12.9330   -3.1940 N.3    66  ILE66      -0.1245
     78  CA         0.9450  -13.5230   -2.0460 C.3    66  ILE66       0.1561
     79  C          1.2710  -12.7310   -0.7740 C.2    66  ILE66       0.2260
     80  O          2.4160  -12.3720   -0.5520 O.2    66  ILE66      -0.2867
     81  CB         1.3050  -15.0410   -1.9460 C.3    66  ILE66       0.0252
     82  CG1        0.4910  -15.7410   -0.8690 C.3    66  ILE66       0.0019
     83  CG2        2.7820  -15.2990   -1.6990 C.3    66  ILE66       0.0019
     84  CD1       -0.7020  -16.4860   -1.4060 C.3    66  ILE66       0.0001
     85  N          1.9910  -12.0040    3.0540 N.3    68  TYR68      -0.1241
     86  CA         2.5800  -12.6240    4.2260 C.3    68  TYR68       0.1605
     87  C          1.8470  -12.0700    5.4300 C.2    68  TYR68       0.2264
     88  O          1.4590  -10.9050    5.4300 O.2    68  TYR68      -0.2867
     89  CB         4.0530  -12.2670    4.3150 C.3    68  TYR68       0.0534
     90  CG         4.6670  -12.5560    5.6490 C.ar   68  TYR68      -0.0201
     91  CD1        4.9980  -13.8510    6.0010 C.ar   68  TYR68      -0.0009
     92  CD2        4.9180  -11.5350    6.5710 C.ar   68  TYR68      -0.0009
     93  CE1        5.5590  -14.1340    7.2290 C.ar   68  TYR68       0.0417
     94  CE2        5.4800  -11.8130    7.8080 C.ar   68  TYR68       0.0417
     95  CZ         5.7960  -13.1180    8.1150 C.ar   68  TYR68       0.1957
     96  OH         6.3520  -13.4430    9.3040 O.3    68  TYR68      -0.2866
     97  N          4.8350  -20.4760    9.3440 N.3    80  ILE80      -0.1245
     98  CA         4.6670  -19.3520    8.4400 C.3    80  ILE80       0.1561
     99  C          3.2470  -19.3270    7.9200 C.2    80  ILE80       0.2260
    100  O          2.7540  -20.3050    7.3970 O.2    80  ILE80      -0.2867
    101  CB         5.6250  -19.4320    7.2410 C.3    80  ILE80       0.0252
    102  CG1        7.0530  -19.6910    7.7020 C.3    80  ILE80       0.0019
    103  CG2        5.5670  -18.1510    6.4330 C.3    80  ILE80       0.0019
    104  CD1        7.7560  -18.4700    8.2390 C.3    80  ILE80       0.0001
    105  N          0.5020  -17.4730    5.4820 N.3    82  ILE82      -0.1231
    106  CA         0.2390  -16.5980    4.3640 C.3    82  ILE82       0.1692
    107  C         -1.2200  -16.7340    3.9560 C.2    82  ILE82       0.2592
    108  O         -1.9330  -17.5870    4.4410 O.2    82  ILE82      -0.2718
    109  CB         1.1750  -16.8760    3.1710 C.3    82  ILE82       0.0266
    110  CG1        0.8710  -18.2370    2.5450 C.3    82  ILE82       0.0019
    111  CG2        2.6250  -16.7950    3.6170 C.3    82  ILE82       0.0020
    112  CD1        1.6480  -18.5330    1.2900 C.3    82  ILE82       0.0001
    113  N         -1.6420  -15.8690    3.0610 N.am   83  GLU83      -0.1966
    114  CA        -3.0200  -15.8050    2.6080 C.3    83  GLU83       0.1733
    115  C         -3.4830  -17.1530    2.0420 C.2    83  GLU83       0.2616
    116  O         -2.7790  -17.7580    1.2330 O.2    83  GLU83      -0.2715
    117  CB        -3.0950  -14.7240    1.5380 C.3    83  GLU83       0.0429
    118  CG        -4.4710  -14.3930    1.0260 C.3    83  GLU83       0.1163
    119  CD        -4.4100  -13.4290   -0.1270 C.2    83  GLU83       0.3649
    120  OE1       -3.3490  -12.7850   -0.2950 O.co2  83  GLU83      -0.2457
    121  OE2       -5.4210  -13.3440   -0.8550 O.co2  83  GLU83      -0.2457
    122  N         -4.6370  -17.6380    2.5000 N.am   84  LEU84      -0.1963
    123  CA        -5.2040  -18.8620    1.9560 C.3    84  LEU84       0.1728
    124  C         -5.7400  -18.5850    0.5580 C.2    84  LEU84       0.2616
    125  O         -6.4260  -17.6020    0.3530 O.2    84  LEU84      -0.2715
    126  CB        -6.3240  -19.4090    2.8400 C.3    84  LEU84       0.0311
    127  CG        -6.9060  -20.7650    2.4010 C.3    84  LEU84       0.0022
    128  CD1       -5.9090  -21.8870    2.6280 C.3    84  LEU84       0.0001
    129  CD2       -8.2080  -21.0990    3.1090 C.3    84  LEU84       0.0001
    130  N         -5.4080  -19.4630   -0.3840 N.am   85  CYS85      -0.1954
    131  CA        -5.8570  -19.3890   -1.7650 C.3    85  CYS85       0.1843
    132  C         -6.7490  -20.5830   -2.1450 C.2    85  CYS85       0.2625
    133  O         -6.7180  -21.6210   -1.5070 O.2    85  CYS85      -0.2714
    134  CB        -4.6460  -19.3440   -2.6750 C.3    85  CYS85       0.0997
    135  SG        -3.6780  -17.8260   -2.5740 S.3    85  CYS85      -0.0797
    136  N         -7.5450  -20.4190   -3.1950 N.am   86  ALA86      -0.1963
    137  CA        -8.4930  -21.4530   -3.6330 C.3    86  ALA86       0.1728
    138  C         -7.8390  -22.5520   -4.4680 C.2    86  ALA86       0.2616
    139  O         -8.2020  -23.7100   -4.3640 O.2    86  ALA86      -0.2715
    140  CB        -9.6290  -20.8290   -4.4170 C.3    86  ALA86       0.0334
    141  N         -6.8700  -22.1870   -5.2910 N.am   87  ALA87      -0.1963
    142  CA        -6.3420  -23.1050   -6.2800 C.3    87  ALA87       0.1728
    143  C         -4.9760  -22.6830   -6.7960 C.2    87  ALA87       0.2616
    144  O         -4.4900  -21.6120   -6.4780 O.2    87  ALA87      -0.2715
    145  CB        -7.3210  -23.2180   -7.4440 C.3    87  ALA87       0.0334
    146  N         -4.3560  -23.5650   -7.5710 N.am   88  THR88      -0.1951
    147  CA        -3.2060  -23.2120   -8.3840 C.3    88  THR88       0.1897
    148  C         -3.6440  -23.0520   -9.8140 C.2    88  THR88       0.2313
    149  O         -4.7090  -23.5050  -10.2220 O.2    88  THR88      -0.2863
    150  CB        -2.0930  -24.2740   -8.3350 C.3    88  THR88       0.1794
    151  OG1       -2.4840  -25.4160   -9.0930 O.3    88  THR88      -0.2208
    152  CG2       -1.7920  -24.6970   -6.8900 C.3    88  THR88       0.0378
    153  N         -4.2740  -26.2970  -11.5490 N.3    91  GLU91      -0.1245
    154  CA        -5.5900  -26.8280  -11.2280 C.3    91  GLU91       0.1567
    155  C         -6.6340  -26.1660  -12.1040 C.2    91  GLU91       0.2260
    156  O         -7.4500  -26.8490  -12.7130 O.2    91  GLU91      -0.2867
    157  CB        -5.9360  -26.6220   -9.7430 C.3    91  GLU91       0.0388
    158  CG        -5.2170  -27.5550   -8.7810 C.3    91  GLU91       0.1160
    159  CD        -5.5070  -27.2660   -7.3180 C.2    91  GLU91       0.3649
    160  OE1       -5.0100  -28.0110   -6.4410 O.co2  91  GLU91      -0.2457
    161  OE2       -6.2420  -26.3090   -7.0410 O.co2  91  GLU91      -0.2457
    162  N          2.2010  -24.4770  -10.9620 N.3   132  HIS132     -0.1226
    163  CA         2.0500  -25.1120   -9.6620 C.3   132  HIS132      0.1752
    164  C          2.1480  -24.1370   -8.4860 C.2   132  HIS132      0.2596
    165  O          1.6030  -24.4120   -7.4440 O.2   132  HIS132     -0.2718
    166  CB         3.1290  -26.1990   -9.4710 C.3   132  HIS132      0.0759
    167  CG         3.2360  -27.1830  -10.6040 C.ar  132  HIS132      0.0818
    168  ND1        3.7830  -26.8620  -11.8340 N.ar  132  HIS132     -0.2268
    169  CD2        2.8900  -28.4910  -10.6810 C.ar  132  HIS132      0.1154
    170  CE1        3.7480  -27.9200  -12.6210 C.ar  132  HIS132      0.1986
    171  NE2        3.2130  -28.9220  -11.9460 N.ar  132  HIS132     -0.2212
    172  N          2.8550  -23.0220   -8.6440 N.am  133  ASN133     -0.1974
    173  CA         2.9530  -21.9970   -7.5940 C.3   133  ASN133      0.1688
    174  C          2.4090  -20.6090   -7.9750 C.2   133  ASN133      0.2292
    175  O          2.6240  -19.6190   -7.2700 O.2   133  ASN133     -0.2864
    176  CB         4.3940  -21.8880   -7.0560 C.3   133  ASN133      0.1181
    177  CG         5.4210  -21.6450   -8.1420 C.2   133  ASN133      0.2629
    178  OD1        5.1090  -21.1470   -9.1980 O.2   133  ASN133     -0.2716
    179  ND2        6.6590  -22.0020   -7.8720 N.am  133  ASN133     -0.0877
    180  N         -0.8300  -18.9290   -7.6900 N.3   135  LEU135     -0.1245
    181  CA        -1.9930  -19.2630   -6.8800 C.3   135  LEU135      0.1561
    182  C         -3.1720  -18.4080   -7.2680 C.2   135  LEU135      0.2260
    183  O         -3.0280  -17.2690   -7.6440 O.2   135  LEU135     -0.2867
    184  CB        -1.6810  -19.1150   -5.3880 C.3   135  LEU135      0.0270
    185  CG        -0.4290  -19.8690   -4.9230 C.3   135  LEU135      0.0019
    186  CD1       -0.2240  -19.7170   -3.4300 C.3   135  LEU135      0.0001
    187  CD2       -0.4830  -21.3430   -5.3010 C.3   135  LEU135      0.0001
    188  N          3.8840  -16.8630   -5.7020 N.3   150  SER150     -0.1202
    189  CA         4.2550  -17.4640   -4.4270 C.3   150  SER150      0.2020
    190  C          5.5870  -18.1960   -4.5920 C.2   150  SER150      0.2619
    191  O          6.2190  -18.1190   -5.6420 O.2   150  SER150     -0.2717
    192  CB         3.1420  -18.3880   -3.9160 C.3   150  SER150      0.2103
    193  OG         3.1000  -19.6170   -4.6200 O.3   150  SER150     -0.2182
    194  N          6.0080  -18.8920   -3.5460 N.am  151  ASP151     -0.1959
    195  CA         7.1310  -19.8270   -3.6050 C.3   151  ASP151      0.1840
    196  C          8.4890  -19.1360   -3.8570 C.2   151  ASP151      0.2622
    197  O          9.0900  -19.2490   -4.9100 O.2   151  ASP151     -0.2715
    198  CB         6.8260  -20.9160   -4.6370 C.3   151  ASP151      0.1450
    199  CG         7.4010  -22.2470   -4.2710 C.2   151  ASP151      0.3671
    200  OD1        8.0150  -22.3580   -3.1860 O.co2 151  ASP151     -0.2456
    201  OD2        7.2180  -23.1810   -5.0810 O.co2 151  ASP151     -0.2456
    202  N          8.9610  -18.4290   -2.8400 N.am  152  PHE152     -0.1960
    203  CA        10.1590  -17.5820   -2.9580 C.3   152  PHE152      0.1771
    204  C         11.4790  -18.2250   -2.5040 C.2   152  PHE152      0.2620
    205  O         12.4890  -17.5290   -2.3820 O.2   152  PHE152     -0.2715
    206  CB         9.9220  -16.2720   -2.2150 C.3   152  PHE152      0.0574
    207  CG         8.7290  -15.5270   -2.7060 C.ar  152  PHE152     -0.0200
    208  CD1        8.7930  -14.7810   -3.8680 C.ar  152  PHE152     -0.0042
    209  CD2        7.5350  -15.6020   -2.0390 C.ar  152  PHE152     -0.0042
    210  CE1        7.6830  -14.1080   -4.3390 C.ar  152  PHE152     -0.0003
    211  CE2        6.4250  -14.9220   -2.5010 C.ar  152  PHE152     -0.0003
    212  CZ         6.4980  -14.1770   -3.6490 C.ar  152  PHE152     -0.0000
    213  N         11.4610  -19.5480   -2.3060 N.am  153  GLY153     -0.1954
    214  CA        12.6200  -20.3200   -1.8760 C.3   153  GLY153      0.1869
    215  C         13.8320  -20.2650   -2.7800 C.2   153  GLY153      0.2309
    216  O         14.9480  -20.5210   -2.3310 O.2   153  GLY153     -0.2863
@<TRIPOS>BOND
     1   156   155    2
     2   170   171   ar
     3   170   168   ar
     4   155   154    1
     5   171   169   ar
     6   168   167   ar
     7   153   154    1
     8   154   157    1
     9   162   163    1
    10   169   167   ar
    11   167   166    1
    12   149   148    2
    13   148   147    1
    14   157   158    1
    15   163   166    1
    16   163   164    1
    17   178   177    2
    18   151   150    1
    19   158   159    1
    20   172   164   am
    21   172   173    1
    22   164   165    2
    23   147   150    1
    24   147   146    1
    25   150   152    1
    26   177   179   am
    27   177   176    1
    28   174   173    1
    29   174   175    2
    30   180   181    1
    31   183   182    2
    32   173   176    1
    33   146   143   am
    34   145   142    1
    35   159   161   ar
    36   159   160   ar
    37   182   181    1
    38   181   184    1
    39   143   144    2
    40   143   142    1
    41   142   141    1
    42   188   189    1
    43   191   190    2
    44   184   185    1
    45   187   185    1
    46   141   138   am
    47   201   199   ar
    48   185   186    1
    49   197   196    2
    50   198   199    1
    51   198   195    1
    52   193   192    1
    53   190   189    1
    54   190   194   am
    55   138   139    2
    56   138   137    1
    57   189   192    1
    58   140   137    1
    59   210   208   ar
    60   210   212   ar
    61   199   200   ar
    62   208   207   ar
    63   196   195    1
    64   196   202   am
    65   212   211   ar
    66   137   136    1
    67   195   194    1
    68   136   132   am
    69    77    78    1
    70   203   202    1
    71   203   204    1
    72   203   206    1
    73   215   216    2
    74   215   214    1
    75   207   206    1
    76   207   209   ar
    77   134   135    1
    78   134   131    1
    79   204   205    2
    80   204   213   am
    81   211   209   ar
    82   213   214    1
    83   132   131    1
    84   132   133    2
    85    78    81    1
    86    78    79    1
    87    81    83    1
    88    81    82    1
    89   131   130    1
    90    84    82    1
    91    16    15    2
    92   121   119   ar
    93    79    80    2
    94    26    25    2
    95   130   124   am
    96   120   119   ar
    97   119   118    1
    98    25    24    1
    99     4     3    2
   100    24    23    1
   101    15    23   am
   102    15    14    1
   103   125   124    2
   104    75    74    1
   105   124   123    1
   106    74    76    1
   107    74    73    1
   108    13    14    1
   109    13    11   am
   110    10    11    1
   111    10     9    1
   112   118   117    1
   113     3     9   am
   114     3     2    1
   115   116   115    2
   116    14    17    1
   117   112   110    1
   118    61    59   ar
   119    17    18    1
   120    59    58    1
   121    59    60   ar
   122   117   114    1
   123    58    57    1
   124    19    18   ar
   125    19    21   ar
   126    11    12    2
   127    47    46    1
   128    70    73    1
   129    70    69    1
   130    70    71    1
   131   123   122    1
   132   123   126    1
   133   115   122   am
   134   115   114    1
   135    18    20   ar
   136     5     2    1
   137     5     6    1
   138     2     1    1
   139    57    54    1
   140     8     6    1
   141    56    55    2
   142   127   128    1
   143   127   126    1
   144   127   129    1
   145    21    22   ar
   146   110   109    1
   147   114   113    1
   148    54    55    1
   149    54    53    1
   150     7     6    1
   151    71    72    2
   152    85    86    1
   153   113   107   am
   154    33    31    1
   155    55    62   am
   156   109   111    1
   157   109   106    1
   158    46    45    1
   159    38    35    1
   160    20    22   ar
   161    31    32    1
   162    31    28    1
   163    45    44    1
   164   107   106    1
   165   107   108    2
   166    86    89    1
   167    86    87    1
   168    89    90    1
   169   106   105    1
   170    62    63    1
   171    35    34    1
   172    35    36    1
   173    28    27    1
   174    28    29    1
   175    65    64    2
   176    30    29    2
   177    64    63    1
   178    63    66    1
   179    44    43    1
   180    88    87    2
   181    43    40    1
   182    90    91   ar
   183    90    92   ar
   184    36    37    2
   185    49    48    1
   186    49    50    1
   187    49    52    1
   188    51    50    2
   189    91    93   ar
   190   103   101    1
   191    92    94   ar
   192    40    39    1
   193    40    41    1
   194    68    66    1
   195    66    67    1
   196    93    95   ar
   197   101   102    1
   198   101    98    1
   199   100    99    2
   200   102   104    1
   201    94    95   ar
   202    41    42    2
   203    99    98    1
   204    95    96    1
   205    98    97    1
