@<TRIPOS>MOLECULE
tmp/4u6rA01.pdb
 90 86 0 0 0
SMALL
GASTEIGER

@<TRIPOS>ATOM
      1  N         10.6500   -7.8250  -10.0950 N.3   120  HIS120     -0.1226
      2  CA        11.8280   -7.4020  -10.8410 C.3   120  HIS120      0.1752
      3  C         12.2320   -5.9630  -10.5420 C.2   120  HIS120      0.2596
      4  O         13.4180   -5.6340  -10.5580 O.2   120  HIS120     -0.2718
      5  CB        11.6060   -7.5760  -12.3350 C.3   120  HIS120      0.0759
      6  CG        11.6090   -9.0030  -12.7840 C.ar  120  HIS120      0.0818
      7  ND1       11.4150   -9.3710  -14.0980 N.ar  120  HIS120     -0.2268
      8  CD2       11.7630  -10.1500  -12.0940 C.ar  120  HIS120      0.1154
      9  CE1       11.4700  -10.6800  -14.1970 C.ar  120  HIS120      0.1986
     10  NE2       11.6770  -11.1780  -12.9940 N.ar  120  HIS120     -0.2212
     11  N         11.2370   -5.1190  -10.2750 N.am  121  SER121     -0.1952
     12  CA        11.4580   -3.7070   -9.9750 C.3   121  SER121      0.1924
     13  C         12.1090   -3.5170   -8.6050 C.2   121  SER121      0.2314
     14  O         12.6780   -2.4520   -8.3300 O.2   121  SER121     -0.2863
     15  CB        10.1400   -2.9180  -10.0570 C.3   121  SER121      0.2116
     16  OG         9.3420   -3.0760   -8.8910 O.3   121  SER121     -0.2180
     17  N         14.5460   -5.6450   -7.7140 N.3   123  ASN123     -0.1240
     18  CA        15.7940   -6.4230   -7.9110 C.3   123  ASN123      0.1653
     19  C         15.6880   -7.9060   -7.5480 C.2   123  ASN123      0.2266
     20  O         16.6790   -8.5490   -7.2250 O.2   123  ASN123     -0.2867
     21  CB        16.9700   -5.7990   -7.1340 C.3   123  ASN123      0.1155
     22  CG        17.6700   -4.7140   -7.9020 C.2   123  ASN123      0.2627
     23  OD1       17.0550   -3.9760   -8.6650 O.2   123  ASN123     -0.2716
     24  ND2       18.9810   -4.6070   -7.6940 N.am  123  ASN123     -0.0877
     25  N         23.3540   -6.4330  -12.2790 N.3   163  HIS163     -0.1241
     26  CA        22.2720   -6.6440  -13.2250 C.3   163  HIS163      0.1621
     27  C         22.1160   -8.0900  -13.6360 C.2   163  HIS163      0.2264
     28  O         21.2890   -8.4180  -14.4650 O.2   163  HIS163     -0.2867
     29  CB        22.4820   -5.7740  -14.4590 C.3   163  HIS163      0.0745
     30  CG        22.4770   -4.3120  -14.1610 C.ar  163  HIS163      0.0817
     31  ND1       23.6330   -3.5750  -14.0370 N.ar  163  HIS163     -0.2268
     32  CD2       21.4560   -3.4540  -13.9410 C.ar  163  HIS163      0.1154
     33  CE1       23.3230   -2.3230  -13.7610 C.ar  163  HIS163      0.1986
     34  NE2       22.0100   -2.2230  -13.6960 N.ar  163  HIS163     -0.2212
     35  N         19.9410  -13.5630  -15.9210 N.3   192  THR192     -0.1203
     36  CA        19.3400  -12.3780  -15.3610 C.3   192  THR192      0.1994
     37  C         17.8020  -12.4930  -15.3480 C.2   192  THR192      0.2618
     38  O         17.2650  -13.5990  -15.4410 O.2   192  THR192     -0.2717
     39  CB        19.9140  -11.1180  -16.0510 C.3   192  THR192      0.1784
     40  OG1       19.4880   -9.9580  -15.3340 O.3   192  THR192     -0.2211
     41  CG2       19.4960  -11.0250  -17.5100 C.3   192  THR192      0.0376
     42  N         17.1030  -11.3690  -15.1930 N.am  193  TYR193     -0.1961
     43  CA        15.6310  -11.3620  -14.9880 C.3   193  TYR193      0.1771
     44  C         14.8660  -12.1500  -16.0700 C.2   193  TYR193      0.2620
     45  O         13.7980  -12.7080  -15.8360 O.2   193  TYR193     -0.2715
     46  CB        15.0950   -9.9150  -14.9140 C.3   193  TYR193      0.0574
     47  CG        15.7340   -9.0690  -13.8160 C.ar  193  TYR193     -0.0198
     48  CD1       15.2700   -9.1370  -12.5130 C.ar  193  TYR193     -0.0009
     49  CD2       16.8030   -8.2070  -14.0790 C.ar  193  TYR193     -0.0009
     50  CE1       15.8500   -8.3870  -11.5000 C.ar  193  TYR193      0.0417
     51  CE2       17.3800   -7.4540  -13.0660 C.ar  193  TYR193      0.0417
     52  CZ        16.8890   -7.5460  -11.7780 C.ar  193  TYR193      0.1957
     53  OH        17.4270   -6.8230  -10.7410 O.3   193  TYR193     -0.2866
     54  N         15.4520  -12.2020  -17.2530 N.am  194  THR194     -0.1951
     55  CA        14.8510  -12.8250  -18.3930 C.3   194  THR194      0.1897
     56  C         14.6080  -14.3200  -18.2270 C.2   194  THR194      0.2313
     57  O         13.8390  -14.8860  -18.9900 O.2   194  THR194     -0.2863
     58  CB        15.6570  -12.5250  -19.6760 C.3   194  THR194      0.1794
     59  OG1       17.0320  -12.8040  -19.4640 O.3   194  THR194     -0.2208
     60  CG2       15.5280  -11.0580  -20.0490 C.3   194  THR194      0.0378
     61  N         11.1300  -14.6010  -17.6200 N.3   197  ILE197     -0.1245
     62  CA        10.3460  -14.3240  -18.8010 C.3   197  ILE197      0.1561
     63  C         10.1930  -15.5970  -19.6370 C.2   197  ILE197      0.2260
     64  O          9.1240  -15.8540  -20.1720 O.2   197  ILE197     -0.2867
     65  CB        10.9690  -13.2110  -19.6370 C.3   197  ILE197      0.0252
     66  CG1       11.1080  -11.9230  -18.8130 C.3   197  ILE197      0.0019
     67  CG2       10.1520  -12.9870  -20.9060 C.3   197  ILE197      0.0019
     68  CD1        9.8130  -11.3340  -18.2880 C.3   197  ILE197      0.0001
     69  N         14.3840  -11.5600  -25.3460 N.3   260  ARG260     -0.1245
     70  CA        13.1630  -11.6520  -24.5540 C.3   260  ARG260      0.1563
     71  C         12.7810  -10.2850  -23.9840 C.2   260  ARG260      0.2260
     72  O         13.6150   -9.5800  -23.4820 O.2   260  ARG260     -0.2867
     73  CB        13.3400  -12.6610  -23.4020 C.3   260  ARG260      0.0307
     74  CG        13.7410  -14.0620  -23.8450 C.3   260  ARG260      0.0489
     75  CD        13.9590  -15.0030  -22.6790 C.3   260  ARG260      0.2205
     76  NE        14.8840  -16.0880  -23.0280 N.pl3 260  ARG260     -0.0865
     77  CZ        15.6370  -16.7650  -22.1580 C.cat 260  ARG260      0.5346
     78  NH1       15.5610  -16.4960  -20.8600 N.pl3 260  ARG260      0.1354
     79  NH2       16.4770  -17.7120  -22.5980 N.pl3 260  ARG260      0.1354
     80  N         11.2440   -7.5400  -21.3320 N.3   262  SER262     -0.1202
     81  CA        11.0670   -7.4620  -19.8920 C.3   262  SER262      0.2020
     82  C          9.5890   -7.5910  -19.5520 C.2   262  SER262      0.2618
     83  O          8.7290   -7.4410  -20.4230 O.2   262  SER262     -0.2717
     84  CB        11.5900   -6.1380  -19.3500 C.3   262  SER262      0.2103
     85  OG        10.7290   -5.0860  -19.7020 O.3   262  SER262     -0.2182
     86  N          9.3120   -7.8680  -18.2850 N.am  263  ALA263     -0.1979
     87  CA         7.9460   -7.9800  -17.7990 C.3   263  ALA263      0.1597
     88  C          7.0840   -6.7690  -18.1710 C.2   263  ALA263      0.2287
     89  O          5.9280   -6.9390  -18.5530 O.2   263  ALA263     -0.2864
     90  CB         7.9190   -8.2170  -16.2950 C.3   263  ALA263      0.0319
@<TRIPOS>BOND
     1    69    70    1
     2    70    71    1
     3    70    73    1
     4    71    72    2
     5    74    73    1
     6    74    75    1
     7    76    75    1
     8    76    77    2
     9    79    77    1
    10    77    78    1
    11    80    81    1
    12    67    65    1
    13    83    82    2
    14    64    63    2
    15    60    58    1
    16    81    82    1
    17    81    84    1
    18    85    84    1
    19    58    59    1
    20    58    55    1
    21    65    66    1
    22    65    62    1
    23    63    62    1
    24    82    86   am
    25    57    56    2
    26    66    68    1
    27    62    61    1
    28    89    88    2
    29    55    56    1
    30    55    54    1
    31    86    87    1
    32    88    87    1
    33    87    90    1
    34    41    39    1
    35    54    44   am
    36    44    45    2
    37    44    43    1
    38    39    36    1
    39    39    40    1
    40    35    36    1
    41    38    37    2
    42    36    37    1
    43    37    42   am
    44    42    43    1
    45    43    46    1
    46    46    47    1
    47    28    27    2
    48    29    30    1
    49    29    26    1
    50     9     7   ar
    51     9    10   ar
    52    30    31   ar
    53    30    32   ar
    54     7     6   ar
    55    49    47   ar
    56    49    51   ar
    57    31    33   ar
    58    32    34   ar
    59    47    48   ar
    60    33    34   ar
    61    27    26    1
    62    26    25    1
    63    51    52   ar
    64    10     8   ar
    65     6     5    1
    66     6     8   ar
    67    48    50   ar
    68     5     2    1
    69    52    50   ar
    70    52    53    1
    71     2     3    1
    72     2     1    1
    73     4     3    2
    74     3    11   am
    75    11    12    1
    76    15    12    1
    77    15    16    1
    78    12    13    1
    79    23    22    2
    80    13    14    2
    81    18    17    1
    82    18    19    1
    83    18    21    1
    84    22    24   am
    85    22    21    1
    86    19    20    2
