@<TRIPOS>MOLECULE
tmp/4u6sA01.pdb
 116 113 0 0 0
SMALL
GASTEIGER

@<TRIPOS>ATOM
      1  N         11.1960   26.1640  -15.0110 N.3    51  TYR51      -0.1227
      2  CA        10.4420   27.0190  -15.9080 C.3    51  TYR51       0.1736
      3  C         10.9110   26.7720  -17.3410 C.2    51  TYR51       0.2595
      4  O         11.3300   25.6620  -17.6720 O.2    51  TYR51      -0.2718
      5  CB        10.6200   28.4810  -15.5030 C.3    51  TYR51       0.0548
      6  CG        10.0960   28.7940  -14.1170 C.ar   51  TYR51      -0.0200
      7  CD1        8.7520   29.0670  -13.9140 C.ar   51  TYR51      -0.0009
      8  CD2       10.9410   28.8200  -13.0180 C.ar   51  TYR51      -0.0009
      9  CE1        8.2640   29.3580  -12.6590 C.ar   51  TYR51       0.0417
     10  CE2       10.4600   29.1100  -11.7550 C.ar   51  TYR51       0.0417
     11  CZ         9.1210   29.3760  -11.5810 C.ar   51  TYR51       0.1957
     12  OH         8.6480   29.6620  -10.3210 O.3    51  TYR51      -0.2866
     13  N         10.8450   27.7960  -18.1870 N.am   52  HIS52      -0.1975
     14  CA        11.1620   27.6370  -19.6020 C.3    52  HIS52       0.1656
     15  C         12.5940   28.0520  -19.9410 C.2    52  HIS52       0.2291
     16  O         13.0420   27.8630  -21.0710 O.2    52  HIS52      -0.2864
     17  CB        10.1930   28.4680  -20.4430 C.3    52  HIS52       0.0771
     18  CG        10.3760   29.9440  -20.2860 C.ar   52  HIS52       0.0820
     19  ND1        9.8150   30.6590  -19.2500 N.ar   52  HIS52      -0.2267
     20  CD2       11.0670   30.8410  -21.0310 C.ar   52  HIS52       0.1154
     21  CE1       10.1490   31.9320  -19.3650 C.ar   52  HIS52       0.1986
     22  NE2       10.9070   32.0690  -20.4370 N.ar   52  HIS52      -0.2212
     23  N          7.3350   20.8420  -15.0970 N.3    72  ARG72      -0.1231
     24  CA         7.4010   22.1680  -15.6890 C.3    72  ARG72       0.1694
     25  C          6.3670   23.0700  -15.0320 C.2    72  ARG72       0.2592
     26  O          5.1760   22.7640  -15.0370 O.2    72  ARG72      -0.2718
     27  CB         7.1280   22.0970  -17.1920 C.3    72  ARG72       0.0321
     28  CG         8.3570   21.8430  -18.0420 C.3    72  ARG72       0.0489
     29  CD         9.1790   23.1090  -18.2370 C.3    72  ARG72       0.2205
     30  NE         8.4880   24.1030  -19.0600 N.pl3  72  ARG72      -0.0865
     31  CZ         7.8980   25.2070  -18.6010 C.cat  72  ARG72       0.5346
     32  NH1        7.8990   25.5030  -17.3050 N.pl3  72  ARG72       0.1354
     33  NH2        7.3050   26.0320  -19.4500 N.pl3  72  ARG72       0.1354
     34  N          6.8240   24.1730  -14.4510 N.am   73  ILE73      -0.1966
     35  CA         5.9130   25.1880  -13.9500 C.3    73  ILE73       0.1727
     36  C          5.4640   26.0180  -15.1470 C.2    73  ILE73       0.2617
     37  O          6.0220   27.0770  -15.4330 O.2    73  ILE73      -0.2715
     38  CB         6.5770   26.0740  -12.8850 C.3    73  ILE73       0.0290
     39  CG1        7.1590   25.2070  -11.7660 C.3    73  ILE73       0.0022
     40  CG2        5.5680   27.0570  -12.3070 C.3    73  ILE73       0.0023
     41  CD1        8.1430   25.9320  -10.8810 C.3    73  ILE73       0.0001
     42  N          4.4600   25.5070  -15.8530 N.am   74  GLY74      -0.1940
     43  CA         4.0160   26.0810  -17.1100 C.3    74  GLY74       0.2014
     44  C          3.4960   24.9730  -18.0040 C.2    74  GLY74       0.2640
     45  O          3.5820   23.8010  -17.6460 O.2    74  GLY74      -0.2714
     46  N          2.9670   25.3340  -19.1690 N.am   75  SER75      -0.1935
     47  CA         2.3390   24.3570  -20.0550 C.3    75  SER75       0.2055
     48  C          3.3110   23.7740  -21.0760 C.2    75  SER75       0.2643
     49  O          3.2830   22.5750  -21.3540 O.2    75  SER75      -0.2714
     50  CB         1.1600   24.9960  -20.7870 C.3    75  SER75       0.2130
     51  OG         1.5790   26.1390  -21.5100 O.3    75  SER75      -0.2179
     52  N          4.1670   24.6220  -21.6340 N.am   76  GLY76      -0.1954
     53  CA         5.0930   24.1990  -22.6700 C.3    76  GLY76       0.1869
     54  C          6.2610   23.4090  -22.1110 C.2    76  GLY76       0.2309
     55  O          6.8470   23.7910  -21.0990 O.2    76  GLY76      -0.2863
     56  N         -2.0480   26.6650  -16.9560 N.3    98  ALA98      -0.1231
     57  CA        -1.1420   27.7630  -16.6620 C.3    98  ALA98       0.1694
     58  C         -1.4650   28.9750  -17.5270 C.2    98  ALA98       0.2592
     59  O         -1.2050   28.9770  -18.7300 O.2    98  ALA98      -0.2718
     60  CB         0.2990   27.3260  -16.8870 C.3    98  ALA98       0.0304
     61  N         -2.0580   29.9920  -16.9100 N.am   99  SER99      -0.1952
     62  CA        -2.2090   31.2940  -17.5470 C.3    99  SER99       0.1924
     63  C         -2.9890   31.2480  -18.8540 C.2    99  SER99       0.2314
     64  O         -2.6930   32.0140  -19.7710 O.2    99  SER99      -0.2863
     65  CB        -0.8270   31.8880  -17.8240 C.3    99  SER99       0.2116
     66  OG        -0.0840   32.0310  -16.6260 O.3    99  SER99      -0.2180
     67  N         -2.7900   34.6100  -21.0950 N.3   103  THR103     -0.1218
     68  CA        -2.1260   34.5160  -22.3910 C.3   103  THR103      0.1862
     69  C         -3.0760   34.9220  -23.5150 C.2   103  THR103      0.2287
     70  O         -2.6690   35.5710  -24.4770 O.2   103  THR103     -0.2866
     71  CB        -1.6060   33.0840  -22.6610 C.3   103  THR103      0.1770
     72  OG1       -0.6580   32.7110  -21.6520 O.3   103  THR103     -0.2211
     73  CG2       -0.9380   32.9990  -24.0300 C.3   103  THR103      0.0375
     74  N          5.5220   29.8810  -29.1660 N.3   241  ARG241     -0.1245
     75  CA         6.9430   29.5660  -29.0450 C.3   241  ARG241      0.1563
     76  C          7.7210   30.2060  -30.1900 C.2   241  ARG241      0.2260
     77  O          7.2730   30.1970  -31.3370 O.2   241  ARG241     -0.2867
     78  CB         7.1600   28.0510  -29.0470 C.3   241  ARG241      0.0307
     79  CG         6.8780   27.3840  -27.7130 C.3   241  ARG241      0.0489
     80  CD         7.9200   27.7830  -26.6820 C.3   241  ARG241      0.2205
     81  NE         7.6700   27.1900  -25.3720 N.pl3 241  ARG241     -0.0865
     82  CZ         6.9210   27.7410  -24.4210 C.cat 241  ARG241      0.5346
     83  NH1        6.3180   28.9070  -24.6180 N.pl3 241  ARG241      0.1354
     84  NH2        6.7700   27.1150  -23.2650 N.pl3 241  ARG241      0.1354
     85  N          8.2720   37.5380  -23.1820 N.3   290  HIS290     -0.1241
     86  CA         7.6890   36.2860  -22.7210 C.3   290  HIS290      0.1621
     87  C          6.9240   36.5120  -21.4190 C.2   290  HIS290      0.2264
     88  O          7.1550   35.8220  -20.4240 O.2   290  HIS290     -0.2867
     89  CB         8.7830   35.2340  -22.5250 C.3   290  HIS290      0.0745
     90  CG         8.2810   33.8240  -22.5730 C.ar  290  HIS290      0.0817
     91  ND1        8.9520   32.8160  -23.2300 N.ar  290  HIS290     -0.2268
     92  CD2        7.1710   33.2570  -22.0460 C.ar  290  HIS290      0.1154
     93  CE1        8.2780   31.6880  -23.1070 C.ar  290  HIS290      0.1986
     94  NE2        7.1930   31.9270  -22.3920 N.ar  290  HIS290     -0.2212
     95  N          1.9780   35.2840  -20.1150 N.3   293  TRP293     -0.1241
     96  CA         1.4630   34.3990  -19.0790 C.3   293  TRP293      0.1605
     97  C          1.2400   35.0900  -17.7370 C.2   293  TRP293      0.2264
     98  O          0.4680   34.6020  -16.9120 O.2   293  TRP293     -0.2867
     99  CB         2.4500   33.2510  -18.8490 C.3   293  TRP293      0.0550
    100  CG         3.7780   33.7240  -18.3020 C.ar  293  TRP293      0.0003
    101  CD1        4.8310   34.2240  -19.0170 C.ar  293  TRP293      0.0946
    102  CD2        4.1840   33.7530  -16.9250 C.ar  293  TRP293      0.0152
    103  NE1        5.8620   34.5570  -18.1750 N.ar  293  TRP293     -0.2442
    104  CE2        5.4920   34.2780  -16.8880 C.ar  293  TRP293      0.0810
    105  CE3        3.5720   33.3830  -15.7250 C.ar  293  TRP293      0.0012
    106  CZ2        6.1970   34.4430  -15.6970 C.ar  293  TRP293      0.0191
    107  CZ3        4.2780   33.5470  -14.5420 C.ar  293  TRP293      0.0001
    108  CH2        5.5750   34.0730  -14.5390 C.ar  293  TRP293      0.0015
    109  N          0.0240   28.2440  -10.7920 N.3   302  MET302     -0.1245
    110  CA         0.7970   27.2160  -11.4790 C.3   302  MET302      0.1570
    111  C          1.8880   26.6300  -10.5870 C.2   302  MET302      0.2261
    112  O          2.2120   25.4460  -10.6880 O.2   302  MET302     -0.2867
    113  CB         1.4110   27.7690  -12.7690 C.3   302  MET302      0.0387
    114  CG         2.4080   28.8980  -12.5770 C.3   302  MET302      0.0595
    115  SD         3.2250   29.3650  -14.1240 S.3   302  MET302     -0.1393
    116  CE         1.9050   30.2290  -14.9710 C.3   302  MET302      0.0692
@<TRIPOS>BOND
     1    77    76    2
     2    76    75    1
     3    74    75    1
     4    78    75    1
     5    78    79    1
     6    79    80    1
     7    80    81    1
     8    81    82    2
     9    83    82    1
    10    70    69    2
    11    82    84    1
    12    73    71    1
    13    69    68    1
    14    91    93   ar
    15    91    90   ar
    16    85    86    1
    17    93    94   ar
    18    86    89    1
    19    86    87    1
    20    53    54    1
    21    53    52    1
    22    71    68    1
    23    71    72    1
    24    90    89    1
    25    90    92   ar
    26    94    92   ar
    27    68    67    1
    28    54    55    2
    29    52    48   am
    30    51    50    1
    31    87    88    2
    32    49    48    2
    33    48    47    1
    34    16    15    2
    35    20    22   ar
    36    20    18   ar
    37    50    47    1
    38    17    18    1
    39    17    14    1
    40    22    21   ar
    41    18    19   ar
    42    95    96    1
    43    47    46    1
    44    15    14    1
    45    64    63    2
    46    14    13    1
    47    33    31    1
    48    21    19   ar
    49    46    44   am
    50    96    99    1
    51    96    97    1
    52    30    31    2
    53    30    29    1
    54   101   100   ar
    55   101   103   ar
    56    63    62    1
    57    99   100    1
    58    59    58    2
    59    31    32    1
    60   100   102   ar
    61    29    28    1
    62    13     3   am
    63   103   104   ar
    64    28    27    1
    65    44    45    2
    66    44    43    1
    67    65    62    1
    68    65    66    1
    69    97    98    2
    70     4     3    2
    71    62    61    1
    72    58    61   am
    73    58    57    1
    74     3     2    1
    75    27    24    1
    76    43    42    1
    77    56    57    1
    78   102   104   ar
    79   102   105   ar
    80   104   106   ar
    81    60    57    1
    82     2     5    1
    83     2     1    1
    84    42    36   am
    85   105   107   ar
    86   106   108   ar
    87    24    23    1
    88    24    25    1
    89     5     6    1
    90    37    36    2
    91    36    35    1
    92    26    25    2
    93    25    34   am
    94   116   115    1
    95   107   108   ar
    96    34    35    1
    97   115   114    1
    98     6     7   ar
    99     6     8   ar
   100    35    38    1
   101     7     9   ar
   102     8    10   ar
   103    38    40    1
   104    38    39    1
   105   113   114    1
   106   113   110    1
   107     9    11   ar
   108    39    41    1
   109    10    11   ar
   110    11    12    1
   111   110   109    1
   112   110   111    1
   113   112   111    2
