@<TRIPOS>MOLECULE
tmp/4u70A00.pdb
 162 156 0 0 0
SMALL
GASTEIGER

@<TRIPOS>ATOM
      1  N         29.5180   -7.5000    9.9350 N.3   103  PRO103     -0.2116
      2  CA        28.4630   -8.4920   10.0420 C.3   103  PRO103      0.1372
      3  C         28.9190   -9.9500   10.0610 C.2   103  PRO103      0.2244
      4  O         28.1320  -10.7990   10.5290 O.2   103  PRO103     -0.2868
      5  CB        27.6940   -8.2770    8.7320 C.3   103  PRO103      0.0268
      6  CG        27.8840   -6.8370    8.4070 C.3   103  PRO103      0.0207
      7  CD        29.3520   -6.6870    8.6840 C.3   103  PRO103      0.0892
      8  N         28.5020  -12.1560   13.1300 N.3   106  TYR106     -0.1241
      9  CA        27.8070  -11.5490   14.2020 C.3   106  TYR106      0.1605
     10  C         26.5650  -12.3570   14.4840 C.2   106  TYR106      0.2264
     11  O         25.6710  -12.5050   13.6720 O.2   106  TYR106     -0.2867
     12  CB        27.3950  -10.1020   13.9030 C.3   106  TYR106      0.0534
     13  CG        26.7410   -9.3240   14.9760 C.ar  106  TYR106     -0.0201
     14  CD1       27.4630   -8.8710   16.0620 C.ar  106  TYR106     -0.0009
     15  CD2       25.3920   -8.9710   14.9290 C.ar  106  TYR106     -0.0009
     16  CE1       26.9010   -8.0450   17.0230 C.ar  106  TYR106      0.0417
     17  CE2       24.8130   -8.1270   15.8790 C.ar  106  TYR106      0.0417
     18  CZ        25.5510   -7.7110   16.9760 C.ar  106  TYR106      0.1957
     19  OH        24.9120   -6.8630   17.8970 O.3   106  TYR106     -0.2866
     20  N         25.7490  -14.5630   11.6180 N.3   109  PHE109     -0.1241
     21  CA        25.3650  -14.0410   10.2810 C.3   109  PHE109      0.1605
     22  C         26.4090  -14.5080    9.3110 C.2   109  PHE109      0.2264
     23  O         27.6080  -14.4160    9.5800 O.2   109  PHE109     -0.2867
     24  CB        25.2800  -12.5230   10.3480 C.3   109  PHE109      0.0534
     25  CG        24.7240  -11.9020    9.0910 C.ar  109  PHE109     -0.0203
     26  CD1       23.3700  -11.8590    8.8360 C.ar  109  PHE109     -0.0042
     27  CD2       25.5990  -11.3700    8.1410 C.ar  109  PHE109     -0.0042
     28  CE1       22.9140  -11.3600    7.5830 C.ar  109  PHE109     -0.0003
     29  CE2       25.1320  -10.8960    6.9020 C.ar  109  PHE109     -0.0003
     30  CZ        23.7940  -10.8410    6.6750 C.ar  109  PHE109     -0.0000
     31  N         24.5920   -6.7900    4.3660 N.3   114  CYS114     -0.1235
     32  CA        23.1990   -7.1520    4.2550 C.3   114  CYS114      0.1677
     33  C         22.6690   -6.5970    2.9360 C.2   114  CYS114      0.2270
     34  O         22.8430   -5.4220    2.6490 O.2   114  CYS114     -0.2867
     35  CB        22.2720   -6.7080    5.3120 C.3   114  CYS114      0.0956
     36  SG        22.8290   -7.1140    7.0000 S.3   114  CYS114     -0.0801
     37  N         15.0490   -5.4720    6.1720 N.3   122  CYS122     -0.1221
     38  CA        16.4710   -5.4100    6.5450 C.3   122  CYS122      0.1808
     39  C         17.0410   -6.8000    6.7470 C.2   122  CYS122      0.2601
     40  O         16.3210   -7.7910    6.8800 O.2   122  CYS122     -0.2717
     41  CB        16.7210   -4.5120    7.7750 C.3   122  CYS122      0.0970
     42  SG        16.1070   -5.2090    9.3710 S.3   122  CYS122     -0.0800
     43  N         18.3730   -6.8600    6.8200 N.am  123  HIS123     -0.1975
     44  CA        19.1470   -8.0330    7.1830 C.3   123  HIS123      0.1656
     45  C         19.0590   -9.1690    6.2180 C.2   123  HIS123      0.2291
     46  O         19.2550  -10.3090    6.5250 O.2   123  HIS123     -0.2864
     47  CB        18.8120   -8.4890    8.6320 C.3   123  HIS123      0.0771
     48  CG        18.9870   -7.4060    9.6090 C.ar  123  HIS123      0.0820
     49  ND1       18.5180   -7.5020   10.9050 N.ar  123  HIS123     -0.2267
     50  CD2       19.6960   -6.2600    9.5320 C.ar  123  HIS123      0.1154
     51  CE1       18.9110   -6.4340   11.5770 C.ar  123  HIS123      0.1986
     52  NE2       19.6160   -5.6470   10.7700 N.ar  123  HIS123     -0.2212
     53  N         23.6650   -2.6440    3.2240 N.3   140  ASP140     -0.1239
     54  CA        24.0430   -2.1690    4.6030 C.3   140  ASP140      0.1674
     55  C         25.4690   -2.6350    4.8720 C.2   140  ASP140      0.2266
     56  O         25.7210   -3.8500    4.8040 O.2   140  ASP140     -0.2867
     57  CB        23.0050   -2.6110    5.6230 C.3   140  ASP140      0.1410
     58  CG        23.1760   -1.9210    7.0100 C.2   140  ASP140      0.3668
     59  OD1       24.2570   -1.5990    7.2710 O.co2 140  ASP140     -0.2456
     60  OD2       22.1790   -1.7490    7.6150 O.co2 140  ASP140     -0.2456
     61  N         28.7710   -2.3800    7.4240 N.3   142  THR142     -0.1218
     62  CA        29.3450   -2.0490    8.7080 C.3   142  THR142      0.1862
     63  C         30.8010   -2.5990    8.7830 C.2   142  THR142      0.2287
     64  O         31.0620   -3.7870    8.4170 O.2   142  THR142     -0.2866
     65  CB        28.5090   -2.6610    9.8350 C.3   142  THR142      0.1770
     66  OG1       27.1380   -2.2620    9.7370 O.3   142  THR142     -0.2211
     67  CG2       29.0420   -2.1670   11.1750 C.3   142  THR142      0.0375
     68  N         28.6940    2.3350   10.4490 N.3   151  ASP151     -0.1239
     69  CA        27.4690    1.6510    9.9520 C.3   151  ASP151      0.1674
     70  C         26.6790    2.6120    9.0570 C.2   151  ASP151      0.2266
     71  O         26.3360    3.7270    9.4250 O.2   151  ASP151     -0.2867
     72  CB        26.6960    1.2310   11.1950 C.3   151  ASP151      0.1410
     73  CG        25.4450    0.3760   10.9770 C.2   151  ASP151      0.3668
     74  OD1       25.1750    0.0300    9.7850 O.co2 151  ASP151     -0.2456
     75  OD2       24.7520   -0.0080   11.9510 O.co2 151  ASP151     -0.2456
     76  N         12.6920   -2.8530   14.6290 N.3   211  TYR211     -0.1227
     77  CA        14.0980   -2.5470   14.4750 C.3   211  TYR211      0.1736
     78  C         14.3000   -1.0250   14.6960 C.2   211  TYR211      0.2595
     79  O         13.5600   -0.2230   14.1300 O.2   211  TYR211     -0.2718
     80  CB        14.5540   -2.9340   13.0080 C.3   211  TYR211      0.0548
     81  CG        14.4820   -4.4260   12.7980 C.ar  211  TYR211     -0.0200
     82  CD1       15.5320   -5.2160   13.1690 C.ar  211  TYR211     -0.0009
     83  CD2       13.3680   -5.0310   12.2570 C.ar  211  TYR211     -0.0009
     84  CE1       15.4570   -6.6190   13.0280 C.ar  211  TYR211      0.0417
     85  CE2       13.2900   -6.4350   12.1080 C.ar  211  TYR211      0.0417
     86  CZ        14.3300   -7.1970   12.4680 C.ar  211  TYR211      0.1957
     87  OH        14.2830   -8.5920   12.3940 O.3   211  TYR211     -0.2866
     88  N         15.3910   -0.6970   15.4080 N.am  212  CYS212     -0.1970
     89  CA        15.6960    0.6960   15.8290 C.3   212  CYS212      0.1712
     90  C         17.1090    1.1300   15.4440 C.2   212  CYS212      0.2296
     91  O         17.9980    0.2600   15.1920 O.2   212  CYS212     -0.2864
     92  CB        15.5640    0.7320   17.4030 C.3   212  CYS212      0.0983
     93  SG        13.8820    0.3100   17.8790 S.3   212  CYS212     -0.0798
     94  N         20.6780    2.9430   16.8220 N.3   214  HIS214     -0.1241
     95  CA        21.4840    2.3980   17.9400 C.3   214  HIS214      0.1621
     96  C         22.7330    3.1860   18.1220 C.2   214  HIS214      0.2264
     97  O         23.3940    3.6570   17.2100 O.2   214  HIS214     -0.2867
     98  CB        21.7850    0.9210   17.7040 C.3   214  HIS214      0.0745
     99  CG        22.4670    0.6810   16.3680 C.ar  214  HIS214      0.0817
    100  ND1       23.8260    0.7390   16.1930 N.ar  214  HIS214     -0.2268
    101  CD2       21.9160    0.4880   15.1560 C.ar  214  HIS214      0.1154
    102  CE1       24.0940    0.5340   14.9030 C.ar  214  HIS214      0.1986
    103  NE2       22.9440    0.4250   14.2740 N.ar  214  HIS214     -0.2212
    104  N         29.0140   -2.7050   18.3080 N.3   220  MET220     -0.1230
    105  CA        28.2550   -2.4290   17.0760 C.3   220  MET220      0.1702
    106  C         26.8710   -1.8830   17.3760 C.2   220  MET220      0.2592
    107  O         26.3420   -0.9730   16.6850 O.2   220  MET220     -0.2718
    108  CB        28.2160   -3.6770   16.2020 C.3   220  MET220      0.0401
    109  CG        27.6720   -3.3420   14.8480 C.3   220  MET220      0.0596
    110  SD        27.6040   -4.6970   13.6670 S.3   220  MET220     -0.1393
    111  CE        28.0110   -6.1200   14.5710 C.3   220  MET220      0.0692
    112  N         26.2090   -2.4710   18.4060 N.am  221  HIS221     -0.1976
    113  CA        24.8870   -2.0970   18.8760 C.3   221  HIS221      0.1656
    114  C         24.9920   -1.8640   20.4010 C.2   221  HIS221      0.2291
    115  O         25.2320   -2.8020   21.1480 O.2   221  HIS221     -0.2864
    116  CB        23.8670   -3.1530   18.6230 C.3   221  HIS221      0.0771
    117  CG        23.6060   -3.3510   17.1510 C.ar  221  HIS221      0.0820
    118  ND1       23.8920   -4.5160   16.4890 N.ar  221  HIS221     -0.2267
    119  CD2       23.2460   -2.4670   16.1950 C.ar  221  HIS221      0.1154
    120  CE1       23.6160   -4.3600   15.1980 C.ar  221  HIS221      0.1986
    121  NE2       23.1290   -3.1550   15.0120 N.ar  221  HIS221     -0.2212
    122  N         18.0820    4.9750   11.2370 N.3   247  GLU247     -0.1245
    123  CA        17.9560    4.0440   10.1140 C.3   247  GLU247      0.1567
    124  C         16.5150    3.6230    9.8090 C.2   247  GLU247      0.2260
    125  O         16.1870    2.4180    9.8980 O.2   247  GLU247     -0.2867
    126  CB        18.8940    2.8720   10.2610 C.3   247  GLU247      0.0388
    127  CG        18.7490    2.0250   11.4900 C.3   247  GLU247      0.1160
    128  CD        19.7310    0.9580   11.4920 C.2   247  GLU247      0.3649
    129  OE1       20.4960    0.7050   12.4580 O.co2 247  GLU247     -0.2457
    130  OE2       19.8950    0.1990   10.4440 O.co2 247  GLU247     -0.2457
    131  N         17.2850  -14.2630   10.0730 N.3   264  TRP264     -0.1241
    132  CA        17.7420  -12.9360    9.7540 C.3   264  TRP264      0.1605
    133  C         16.8420  -12.0950    8.9330 C.2   264  TRP264      0.2264
    134  O         16.6250  -10.9090    9.2050 O.2   264  TRP264     -0.2867
    135  CB        19.1050  -13.0020    9.0970 C.3   264  TRP264      0.0550
    136  CG        20.1900  -13.3210   10.1100 C.ar  264  TRP264      0.0003
    137  CD1       20.8580  -14.5340   10.2540 C.ar  264  TRP264      0.0946
    138  CD2       20.6480  -12.5060   11.1860 C.ar  264  TRP264      0.0152
    139  NE1       21.7320  -14.4750   11.2840 N.ar  264  TRP264     -0.2442
    140  CE2       21.6320  -13.2630   11.8860 C.ar  264  TRP264      0.0810
    141  CE3       20.4030  -11.2030   11.5720 C.ar  264  TRP264      0.0012
    142  CZ2       22.3110  -12.7390   12.9800 C.ar  264  TRP264      0.0191
    143  CZ3       21.1320  -10.6840   12.6680 C.ar  264  TRP264      0.0001
    144  CH2       22.0560  -11.4760   13.3280 C.ar  264  TRP264      0.0015
    145  N         14.9410    1.6470    3.2950 N.3   276  GLN276     -0.1245
    146  CA        15.7120    2.1050    4.4470 C.3   276  GLN276      0.1566
    147  C         16.9120    2.9900    3.9950 C.2   276  GLN276      0.2260
    148  O         17.5050    2.7930    2.9340 O.2   276  GLN276     -0.2867
    149  CB        16.2700    0.8140    5.1450 C.3   276  GLN276      0.0367
    150  CG        17.0350    1.1970    6.4490 C.3   276  GLN276      0.0905
    151  CD        17.4100   -0.0080    7.2230 C.2   276  GLN276      0.2608
    152  OE1       17.8070   -1.0480    6.6800 O.2   276  GLN276     -0.2717
    153  NE2       17.3470    0.0820    8.5480 N.am  276  GLN276     -0.0878
    154  N         20.4750    4.7500    6.2990 N.3   278  GLU278     -0.1245
    155  CA        21.1760    4.7820    7.6010 C.3   278  GLU278      0.1567
    156  C         22.4250    5.6130    7.4840 C.2   278  GLU278      0.2260
    157  O         23.2150    5.4770    6.5650 O.2   278  GLU278     -0.2867
    158  CB        21.5480    3.3810    8.0660 C.3   278  GLU278      0.0388
    159  CG        22.3430    3.3360    9.3610 C.3   278  GLU278      0.1160
    160  CD        22.5900    1.9150    9.8200 C.2   278  GLU278      0.3649
    161  OE1       22.6970    1.0010    8.9350 O.co2 278  GLU278     -0.2457
    162  OE2       22.7140    1.6760   11.0510 O.co2 278  GLU278     -0.2457
@<TRIPOS>BOND
     1    34    33    2
     2   148   147    2
     3    33    32    1
     4    53    54    1
     5   145   146    1
     6   147   146    1
     7    32    31    1
     8    32    35    1
     9   146   149    1
    10    54    55    1
    11    54    57    1
    12    56    55    2
    13   149   150    1
    14    35    36    1
    15    57    58    1
    16    37    38    1
    17    45    46    2
    18    45    44    1
    19   154   155    1
    20   150   151    1
    21    38    39    1
    22    38    41    1
    23   157   156    2
    24    30    29   ar
    25    30    28   ar
    26   152   151    2
    27    39    43   am
    28    39    40    2
    29    43    44    1
    30    29    27   ar
    31    58    59   ar
    32    58    60   ar
    33    44    47    1
    34   151   153   am
    35    61    62    1
    36   156   155    1
    37    28    26   ar
    38   155   158    1
    39    41    42    1
    40   158   159    1
    41    27    25   ar
    42     6     7    1
    43     6     5    1
    44    64    63    2
    45    47    48    1
    46     7     1    1
    47    62    63    1
    48    62    65    1
    49     5     2    1
    50    26    25   ar
    51   133   134    2
    52   133   132    1
    53   161   160   ar
    54    70    71    2
    55    70    69    1
    56    25    24    1
    57   135   132    1
    58   135   136    1
    59    22    23    2
    60    22    21    1
    61   159   160    1
    62    50    48   ar
    63    50    52   ar
    64    48    49   ar
    65    66    65    1
    66   132   131    1
    67    74    73   ar
    68   124   125    2
    69   124   123    1
    70   160   162   ar
    71    65    67    1
    72     1     2    1
    73    69    68    1
    74    69    72    1
    75     2     3    1
    76     3     4    2
    77   136   137   ar
    78   136   138   ar
    79   123   126    1
    80   123   122    1
    81   137   139   ar
    82   126   127    1
    83    21    24    1
    84    21    20    1
    85   130   128   ar
    86    52    51   ar
    87    49    51   ar
    88    73    72    1
    89    73    75   ar
    90   138   141   ar
    91   138   140   ar
    92   139   140   ar
    93   127   128    1
    94   128   129   ar
    95   141   143   ar
    96   140   142   ar
    97    85    83   ar
    98    85    86   ar
    99    83    81   ar
   100    87    86    1
   101    86    84   ar
   102   143   144   ar
   103    81    80    1
   104    81    82   ar
   105   142   144   ar
   106    80    77    1
   107    84    82   ar
   108     8     9    1
   109   110   111    1
   110   110   109    1
   111    11    10    2
   112    12     9    1
   113    12    13    1
   114    79    78    2
   115     9    10    1
   116   103   102   ar
   117   103   101   ar
   118    77    76    1
   119    77    78    1
   120    78    88   am
   121   109   108    1
   122   102   100   ar
   123    15    13   ar
   124    15    17   ar
   125    13    14   ar
   126   121   120   ar
   127   121   119   ar
   128   101    99   ar
   129    91    90    2
   130   120   118   ar
   131    88    89    1
   132    90    89    1
   133    89    92    1
   134    17    18   ar
   135    14    16   ar
   136   100    99   ar
   137   119   117   ar
   138   108   105    1
   139    99    98    1
   140   118   117   ar
   141   107   106    2
   142    94    95    1
   143    18    16   ar
   144    18    19    1
   145   105   106    1
   146   105   104    1
   147   117   116    1
   148    97    96    2
   149   106   112   am
   150    92    93    1
   151    98    95    1
   152    95    96    1
   153   112   113    1
   154   116   113    1
   155   113   114    1
   156   114   115    2
