@<TRIPOS>MOLECULE
tmp/4u71A00.pdb
 143 139 0 0 0
SMALL
GASTEIGER

@<TRIPOS>ATOM
      1  N         -5.9040   -7.3290   14.1820 N.3   103  PRO103     -0.2116
      2  CA        -4.8260   -8.2880   14.1040 C.3   103  PRO103      0.1372
      3  C         -5.2530   -9.7370   14.0760 C.2   103  PRO103      0.2244
      4  O         -4.4770  -10.5930   13.6510 O.2   103  PRO103     -0.2868
      5  CB        -3.9910   -8.0050   15.4360 C.3   103  PRO103      0.0268
      6  CG        -4.2760   -6.5710   15.6900 C.3   103  PRO103      0.0207
      7  CD        -5.7800   -6.4970   15.4050 C.3   103  PRO103      0.0892
      8  N         -4.9240  -11.9690   11.0710 N.3   106  TYR106     -0.1241
      9  CA        -4.2110  -11.3060   10.0080 C.3   106  TYR106      0.1605
     10  C         -2.9500  -12.1220    9.6840 C.2   106  TYR106      0.2264
     11  O         -1.9970  -12.2070   10.5110 O.2   106  TYR106     -0.2867
     12  CB        -3.8680   -9.8460   10.3410 C.3   106  TYR106      0.0534
     13  CG        -3.1980   -9.0620    9.2540 C.ar  106  TYR106     -0.0201
     14  CD1       -3.9360   -8.6590    8.0840 C.ar  106  TYR106     -0.0009
     15  CD2       -1.8500   -8.7490    9.2970 C.ar  106  TYR106     -0.0009
     16  CE1       -3.3400   -7.9150    7.1080 C.ar  106  TYR106      0.0417
     17  CE2       -1.2260   -8.0130    8.2850 C.ar  106  TYR106      0.0417
     18  CZ        -1.9770   -7.6160    7.1760 C.ar  106  TYR106      0.1957
     19  OH        -1.3720   -6.8490    6.1570 O.3   106  TYR106     -0.2866
     20  N         -2.0710  -14.3720   12.4870 N.3   109  PHE109     -0.1241
     21  CA        -1.6870  -13.8150   13.8520 C.3   109  PHE109      0.1605
     22  C         -2.7820  -14.2910   14.7900 C.2   109  PHE109      0.2264
     23  O         -3.9480  -14.1980   14.4950 O.2   109  PHE109     -0.2867
     24  CB        -1.6490  -12.3190   13.8000 C.3   109  PHE109      0.0534
     25  CG        -1.1660  -11.7020   15.0730 C.ar  109  PHE109     -0.0203
     26  CD1        0.2020  -11.6760   15.3530 C.ar  109  PHE109     -0.0042
     27  CD2       -2.0330  -11.2310   15.9870 C.ar  109  PHE109     -0.0042
     28  CE1        0.6490  -11.1820   16.5810 C.ar  109  PHE109     -0.0003
     29  CE2       -1.6020  -10.7650   17.2430 C.ar  109  PHE109     -0.0003
     30  CZ        -0.2680  -10.7180   17.5060 C.ar  109  PHE109     -0.0000
     31  N         -1.0770   -6.7670   19.7540 N.3   114  CYS114     -0.1235
     32  CA         0.3090   -7.1790   19.9550 C.3   114  CYS114      0.1677
     33  C          0.8380   -6.5630   21.2610 C.2   114  CYS114      0.2270
     34  O          0.6870   -5.3370   21.5220 O.2   114  CYS114     -0.2867
     35  CB         1.2030   -6.7260   18.8670 C.3   114  CYS114      0.0956
     36  SG         0.6490   -7.0840   17.1650 S.3   114  CYS114     -0.0801
     37  N          8.5170   -5.4860   17.8800 N.3   122  CYS122     -0.1221
     38  CA         7.0700   -5.4020   17.5660 C.3   122  CYS122      0.1808
     39  C          6.4560   -6.7900   17.3690 C.2   122  CYS122      0.2601
     40  O          7.1640   -7.7840   17.2770 O.2   122  CYS122     -0.2717
     41  CB         6.8050   -4.4780   16.3510 C.3   122  CYS122      0.0970
     42  SG         7.3480   -5.2950   14.8230 S.3   122  CYS122     -0.0800
     43  N          5.1200   -6.8430   17.2690 N.am  123  HIS123     -0.1975
     44  CA         4.3440   -8.0340   17.0130 C.3   123  HIS123      0.1656
     45  C          4.4200   -9.1510   17.9870 C.2   123  HIS123      0.2291
     46  O          4.2380  -10.3140   17.6460 O.2   123  HIS123     -0.2864
     47  CB         4.6550   -8.5280   15.5720 C.3   123  HIS123      0.0771
     48  CG         4.4290   -7.4790   14.5700 C.ar  123  HIS123      0.0820
     49  ND1        4.9640   -7.5350   13.2910 N.ar  123  HIS123     -0.2267
     50  CD2        3.7320   -6.3260   14.6430 C.ar  123  HIS123      0.1154
     51  CE1        4.5650   -6.4630   12.6170 C.ar  123  HIS123      0.1986
     52  NE2        3.8020   -5.7240   13.4000 N.ar  123  HIS123     -0.2212
     53  N         -0.2190   -2.6270   21.0010 N.3   140  ASP140     -0.1225
     54  CA        -0.5390   -2.0800   19.6270 C.3   140  ASP140      0.1805
     55  C         -1.9340   -2.6390   19.3490 C.2   140  ASP140      0.2598
     56  O         -2.1810   -3.8480   19.4850 O.2   140  ASP140     -0.2718
     57  CB         0.5160   -2.5520   18.6700 C.3   140  ASP140      0.1424
     58  CG         0.3740   -1.8690   17.2740 C.2   140  ASP140      0.3668
     59  OD1       -0.6450   -1.4200   16.9660 O.co2 140  ASP140     -0.2456
     60  OD2        1.2990   -1.7050   16.5650 O.co2 140  ASP140     -0.2456
     61  N         -2.7970   -1.7010   19.0700 N.am  141  ILE141     -0.1966
     62  CA        -4.2020   -1.8930   18.8600 C.3   141  ILE141      0.1727
     63  C         -4.5240   -1.5210   17.4420 C.2   141  ILE141      0.2616
     64  O         -4.2310   -0.4020   16.9960 O.2   141  ILE141     -0.2715
     65  CB        -4.9690   -0.9580   19.7830 C.3   141  ILE141      0.0290
     66  CG1       -4.7450   -1.2770   21.3060 C.3   141  ILE141      0.0022
     67  CG2       -6.4330   -0.9220   19.5060 C.3   141  ILE141      0.0023
     68  CD1       -4.9840   -2.7170   21.7480 C.3   141  ILE141      0.0001
     69  N         -5.2860   -2.3550   16.8350 N.am  142  THR142     -0.1951
     70  CA        -5.8670   -1.9740   15.5450 C.3   142  THR142      0.1897
     71  C         -7.3450   -2.4830   15.5090 C.2   142  THR142      0.2313
     72  O         -7.6660   -3.6790   15.8200 O.2   142  THR142     -0.2863
     73  CB        -5.0280   -2.5250   14.3850 C.3   142  THR142      0.1794
     74  OG1       -3.6600   -2.1980   14.4570 O.3   142  THR142     -0.2208
     75  CG2       -5.5960   -1.9540   13.0730 C.3   142  THR142      0.0378
     76  N         -5.3080    2.3850   13.7640 N.3   151  ASP151     -0.1239
     77  CA        -4.1000    1.7410   14.2770 C.3   151  ASP151      0.1674
     78  C         -3.2750    2.7050   15.1920 C.2   151  ASP151      0.2266
     79  O         -2.9130    3.8230   14.8260 O.2   151  ASP151     -0.2867
     80  CB        -3.3040    1.2650   13.0450 C.3   151  ASP151      0.1410
     81  CG        -2.1040    0.3920   13.3550 C.2   151  ASP151      0.3668
     82  OD1       -1.8160    0.0150   14.5230 O.co2 151  ASP151     -0.2456
     83  OD2       -1.4010    0.0400   12.3760 O.co2 151  ASP151     -0.2456
     84  N          2.7380    2.8980    7.4550 N.3   214  HIS214     -0.1241
     85  CA         1.9670    2.3940    6.3090 C.3   214  HIS214      0.1621
     86  C          0.7040    3.1780    6.0820 C.2   214  HIS214      0.2264
     87  O         -0.0080    3.6360    7.0000 O.2   214  HIS214     -0.2867
     88  CB         1.6900    0.9130    6.5370 C.3   214  HIS214      0.0745
     89  CG         1.0000    0.6550    7.8620 C.ar  214  HIS214      0.0817
     90  ND1       -0.3810    0.6710    8.0210 N.ar  214  HIS214     -0.2268
     91  CD2        1.5290    0.4730    9.1150 C.ar  214  HIS214      0.1154
     92  CE1       -0.6640    0.5070    9.3200 C.ar  214  HIS214      0.1986
     93  NE2        0.4710    0.3300    9.9600 N.ar  214  HIS214     -0.2212
     94  N         -5.6340   -2.6230    5.7820 N.3   220  MET220     -0.1230
     95  CA        -4.8430   -2.4200    6.9890 C.3   220  MET220      0.1702
     96  C         -3.4350   -1.9260    6.7370 C.2   220  MET220      0.2592
     97  O         -2.9380   -1.0670    7.4770 O.2   220  MET220     -0.2718
     98  CB        -4.8430   -3.6990    7.7870 C.3   220  MET220      0.0401
     99  CG        -3.9720   -3.3420    8.9570 C.3   220  MET220      0.0596
    100  SD        -4.3660   -4.2050   10.3710 S.3   220  MET220     -0.1393
    101  CE        -4.1120   -5.8510    9.8900 C.3   220  MET220      0.0692
    102  N         -2.7730   -2.5040    5.7350 N.am  221  HIS221     -0.1976
    103  CA        -1.4410   -2.1180    5.2960 C.3   221  HIS221      0.1656
    104  C         -1.4790   -1.8620    3.8010 C.2   221  HIS221      0.2291
    105  O         -1.8070   -2.7840    3.0510 O.2   221  HIS221     -0.2864
    106  CB        -0.4960   -3.1930    5.5280 C.3   221  HIS221      0.0771
    107  CG        -0.2660   -3.4060    7.0120 C.ar  221  HIS221      0.0820
    108  ND1       -0.4470   -4.6160    7.6450 N.ar  221  HIS221     -0.2267
    109  CD2        0.0520   -2.5390    7.9760 C.ar  221  HIS221      0.1154
    110  CE1       -0.2320   -4.4710    8.9480 C.ar  221  HIS221      0.1986
    111  NE2        0.1090   -3.2340    9.1650 N.ar  221  HIS221     -0.2212
    112  N          5.2620    4.8430   12.9320 N.3   247  GLU247     -0.1245
    113  CA         5.4100    3.9350   14.1030 C.3   247  GLU247      0.1567
    114  C          6.8640    3.5420   14.3700 C.2   247  GLU247      0.2260
    115  O          7.2130    2.3520   14.2430 O.2   247  GLU247     -0.2867
    116  CB         4.5160    2.7230   13.9350 C.3   247  GLU247      0.0388
    117  CG         4.6240    1.9070   12.6420 C.3   247  GLU247      0.1160
    118  CD         3.6090    0.8010   12.6290 C.2   247  GLU247      0.3649
    119  OE1        2.7990    0.6710   11.6610 O.co2 247  GLU247     -0.2457
    120  OE2        3.5590    0.0630   13.6430 O.co2 247  GLU247     -0.2457
    121  N          6.1900  -14.2650   14.1130 N.3   264  TRP264     -0.1241
    122  CA         5.7170  -12.8860   14.3620 C.3   264  TRP264      0.1605
    123  C          6.5960  -12.0640   15.2530 C.2   264  TRP264      0.2264
    124  O          6.8730  -10.8530   14.9760 O.2   264  TRP264     -0.2867
    125  CB         4.3290  -13.0100   14.9990 C.3   264  TRP264      0.0550
    126  CG         3.2820  -13.2550   13.9920 C.ar  264  TRP264      0.0003
    127  CD1        2.6550  -14.4600   13.6870 C.ar  264  TRP264      0.0946
    128  CD2        2.8460  -12.3210   13.0070 C.ar  264  TRP264      0.0152
    129  NE1        1.7490  -14.2610   12.6840 N.ar  264  TRP264     -0.2442
    130  CE2        1.8490  -12.9700   12.2390 C.ar  264  TRP264      0.0810
    131  CE3        3.0900  -10.9440   12.7950 C.ar  264  TRP264      0.0012
    132  CZ2        1.1640  -12.3160   11.2500 C.ar  264  TRP264      0.0191
    133  CZ3        2.3700  -10.2930   11.8250 C.ar  264  TRP264      0.0001
    134  CH2        1.4260  -10.9930   11.0710 C.ar  264  TRP264      0.0015
    135  N          2.9210    4.7110   17.8880 N.3   278  GLU278     -0.1245
    136  CA         2.2540    4.8070   16.5830 C.3   278  GLU278      0.1567
    137  C          1.0030    5.6730   16.7030 C.2   278  GLU278      0.2260
    138  O          0.2120    5.5280   17.6810 O.2   278  GLU278     -0.2867
    139  CB         1.8800    3.4210   16.1570 C.3   278  GLU278      0.0388
    140  CG         1.1290    3.3690   14.8160 C.3   278  GLU278      0.1160
    141  CD         0.8500    1.9670   14.3420 C.2   278  GLU278      0.3649
    142  OE1        0.7180    1.0430   15.1900 O.co2 278  GLU278     -0.2457
    143  OE2        0.7360    1.7420   13.0610 O.co2 278  GLU278     -0.2457
@<TRIPOS>BOND
     1   105   104    2
     2   104   103    1
     3   103   106    1
     4   103   102    1
     5   106   107    1
     6   102    96   am
     7    94    95    1
     8    86    85    1
     9    86    87    2
    10    19    18    1
    11    85    88    1
    12    85    84    1
    13    88    89    1
    14    96    95    1
    15    96    97    2
    16    95    98    1
    17   107   108   ar
    18   107   109   ar
    19    16    18   ar
    20    16    14   ar
    21    18    17   ar
    22   108   110   ar
    23    98    99    1
    24    89    90   ar
    25    89    91   ar
    26   109   111   ar
    27    90    92   ar
    28    14    13   ar
    29    17    15   ar
    30   110   111   ar
    31    99   100    1
    32    91    93   ar
    33    13    15   ar
    34    13    12    1
    35    92    93   ar
    36    10     9    1
    37    10    11    2
    38   101   100    1
    39     9    12    1
    40     9     8    1
    41   134   132   ar
    42   134   133   ar
    43   132   130   ar
    44   119   118   ar
    45   133   131   ar
    46   130   129   ar
    47   130   128   ar
    48    83    81   ar
    49    20    21    1
    50    51    49   ar
    51    51    52   ar
    52   118   117    1
    53   118   120   ar
    54   117   116    1
    55   129   127   ar
    56   131   128   ar
    57   112   113    1
    58   128   126   ar
    59    80    81    1
    60    80    77    1
    61   143   141   ar
    62    75    73    1
    63    49    48   ar
    64    81    82   ar
    65    52    50   ar
    66     4     3    2
    67   127   126   ar
    68    76    77    1
    69    24    21    1
    70    24    25    1
    71    21    22    1
    72   116   113    1
    73   126   125    1
    74     3     2    1
    75   113   114    1
    76     2     1    1
    77     2     5    1
    78   121   122    1
    79     1     7    1
    80   115   114    2
    81    77    78    1
    82   141   140    1
    83   141   142   ar
    84   122   125    1
    85   122   123    1
    86    73    74    1
    87    73    70    1
    88    23    22    2
    89    48    50   ar
    90    48    47    1
    91   140   139    1
    92    42    41    1
    93    79    78    2
    94   124   123    2
    95    25    26   ar
    96    25    27   ar
    97    26    28   ar
    98     7     6    1
    99     5     6    1
   100    71    70    1
   101    71    72    2
   102    70    69    1
   103    47    44    1
   104    27    29   ar
   105   139   136    1
   106    41    38    1
   107    60    58   ar
   108    28    30   ar
   109   136   137    1
   110   136   135    1
   111   137   138    2
   112    69    63   am
   113    59    58   ar
   114    64    63    2
   115    44    43    1
   116    44    45    1
   117    36    35    1
   118    29    30   ar
   119    43    39   am
   120    58    57    1
   121    40    39    2
   122    39    38    1
   123    63    62    1
   124    38    37    1
   125    46    45    2
   126    57    54    1
   127    62    61    1
   128    62    65    1
   129    35    32    1
   130    61    55   am
   131    55    56    2
   132    55    54    1
   133    67    65    1
   134    54    53    1
   135    31    32    1
   136    65    66    1
   137    32    33    1
   138    33    34    2
   139    66    68    1
