@<TRIPOS>MOLECULE
tmp/4u75A00.pdb
 135 129 0 0 0
SMALL
GASTEIGER

@<TRIPOS>ATOM
      1  N         -5.7810   -7.3550   14.2910 N.3   103  PRO103     -0.2116
      2  CA        -4.7110   -8.3740   14.2430 C.3   103  PRO103      0.1372
      3  C         -5.1470   -9.8280   14.2090 C.2   103  PRO103      0.2244
      4  O         -4.3900  -10.6620   13.7700 O.2   103  PRO103     -0.2868
      5  CB        -3.9190   -8.0990   15.5500 C.3   103  PRO103      0.0268
      6  CG        -4.1730   -6.6440   15.7930 C.3   103  PRO103      0.0207
      7  CD        -5.6550   -6.5690   15.5230 C.3   103  PRO103      0.0892
      8  N         -4.7940  -12.0420   11.0740 N.3   106  TYR106     -0.1241
      9  CA        -4.0870  -11.3810   10.0440 C.3   106  TYR106      0.1605
     10  C         -2.8360  -12.2430    9.8090 C.2   106  TYR106      0.2264
     11  O         -2.0050  -12.4460   10.7620 O.2   106  TYR106     -0.2867
     12  CB        -3.7350   -9.9540   10.4270 C.3   106  TYR106      0.0534
     13  CG        -3.0410   -9.1400    9.3190 C.ar  106  TYR106     -0.0201
     14  CD1       -3.7520   -8.7200    8.2150 C.ar  106  TYR106     -0.0009
     15  CD2       -1.6800   -8.7830    9.4090 C.ar  106  TYR106     -0.0009
     16  CE1       -3.1600   -8.0280    7.1860 C.ar  106  TYR106      0.0417
     17  CE2       -1.0680   -8.0180    8.3870 C.ar  106  TYR106      0.0417
     18  CZ        -1.8230   -7.6640    7.2630 C.ar  106  TYR106      0.1957
     19  OH        -1.2850   -6.8950    6.2500 O.3   106  TYR106     -0.2866
     20  N         -2.0880  -14.5320   12.7030 N.3   109  PHE109     -0.1241
     21  CA        -1.6790  -14.0340   14.0400 C.3   109  PHE109      0.1605
     22  C         -2.7470  -14.4920   15.0100 C.2   109  PHE109      0.2264
     23  O         -3.9530  -14.3970   14.7130 O.2   109  PHE109     -0.2867
     24  CB        -1.5400  -12.5310   13.9940 C.3   109  PHE109      0.0534
     25  CG        -1.0600  -11.9230   15.2420 C.ar  109  PHE109     -0.0203
     26  CD1        0.3040  -11.8840   15.5490 C.ar  109  PHE109     -0.0042
     27  CD2       -1.9730  -11.4020   16.1500 C.ar  109  PHE109     -0.0042
     28  CE1        0.7370  -11.3100   16.7360 C.ar  109  PHE109     -0.0003
     29  CE2       -1.5460  -10.8750   17.3600 C.ar  109  PHE109     -0.0003
     30  CZ        -0.1990  -10.7830   17.6220 C.ar  109  PHE109     -0.0000
     31  N         -0.9770   -6.7410   19.7980 N.3   114  CYS114     -0.1235
     32  CA         0.4430   -7.1420   20.0100 C.3   114  CYS114      0.1677
     33  C          0.9920   -6.5880   21.3040 C.2   114  CYS114      0.2270
     34  O          0.8800   -5.3790   21.5510 O.2   114  CYS114     -0.2867
     35  CB         1.2960   -6.6610   18.9140 C.3   114  CYS114      0.0956
     36  SG         0.7700   -7.1810   17.2560 S.3   114  CYS114     -0.0801
     37  N          5.2490   -6.9180   17.3490 N.3   123  HIS123     -0.1241
     38  CA         4.4710   -8.1320   17.0320 C.3   123  HIS123      0.1621
     39  C          4.5630   -9.2500   18.0320 C.2   123  HIS123      0.2264
     40  O          4.3520  -10.3990   17.7060 O.2   123  HIS123     -0.2867
     41  CB         4.7770   -8.6510   15.6250 C.3   123  HIS123      0.0745
     42  CG         4.6490   -7.6140   14.5910 C.ar  123  HIS123      0.0817
     43  ND1        5.1160   -7.7910   13.2970 N.ar  123  HIS123     -0.2268
     44  CD2        4.1100   -6.3550   14.6350 C.ar  123  HIS123      0.1154
     45  CE1        4.8690   -6.6990   12.5960 C.ar  123  HIS123      0.1986
     46  NE2        4.2280   -5.8320   13.3640 N.ar  123  HIS123     -0.2212
     47  N          0.0560   -2.6270   21.0550 N.3   140  ASP140     -0.1239
     48  CA        -0.3890   -2.0940   19.7240 C.3   140  ASP140      0.1674
     49  C         -1.8060   -2.6030   19.4710 C.2   140  ASP140      0.2266
     50  O         -2.0620   -3.7880   19.4940 O.2   140  ASP140     -0.2867
     51  CB         0.6640   -2.5320   18.6530 C.3   140  ASP140      0.1410
     52  CG         0.4860   -1.8560   17.3310 C.2   140  ASP140      0.3668
     53  OD1       -0.5780   -1.3680   17.1040 O.co2 140  ASP140     -0.2456
     54  OD2        1.4450   -1.8320   16.5210 O.co2 140  ASP140     -0.2456
     55  N         -5.0930   -2.2730   16.9760 N.3   142  THR142     -0.1218
     56  CA        -5.6790   -1.9940   15.6810 C.3   142  THR142      0.1862
     57  C         -7.1420   -2.4730   15.6290 C.2   142  THR142      0.2287
     58  O         -7.4190   -3.6480   15.9690 O.2   142  THR142     -0.2866
     59  CB        -4.8200   -2.6800   14.5590 C.3   142  THR142      0.1770
     60  OG1       -3.4430   -2.3370   14.7220 O.3   142  THR142     -0.2211
     61  CG2       -5.2220   -2.1320   13.2160 C.3   142  THR142      0.0375
     62  N         -5.2850    2.4850   13.9540 N.3   151  ASP151     -0.1239
     63  CA        -3.9680    1.8560   14.3800 C.3   151  ASP151      0.1674
     64  C         -3.1360    2.7610   15.2930 C.2   151  ASP151      0.2266
     65  O         -2.7980    3.9000   14.9370 O.2   151  ASP151     -0.2867
     66  CB        -3.2070    1.4650   13.1140 C.3   151  ASP151      0.1410
     67  CG        -1.9910    0.5370   13.3760 C.2   151  ASP151      0.3668
     68  OD1       -1.7120    0.0510   14.5070 O.co2 151  ASP151     -0.2456
     69  OD2       -1.2890    0.2700   12.4020 O.co2 151  ASP151     -0.2456
     70  N          8.2370   -0.6140    8.9260 N.3   212  CYS212     -0.1235
     71  CA         7.8970    0.6930    8.4570 C.3   212  CYS212      0.1677
     72  C          6.4590    1.0820    8.7870 C.2   212  CYS212      0.2270
     73  O          5.6110    0.2400    9.0290 O.2   212  CYS212     -0.2867
     74  CB         8.0360    0.6860    6.9110 C.3   212  CYS212      0.0956
     75  SG         9.7330    0.2510    6.3920 S.3   212  CYS212     -0.0801
     76  N          2.8760    2.7860    7.4850 N.3   214  HIS214     -0.1241
     77  CA         2.1310    2.3550    6.3100 C.3   214  HIS214      0.1621
     78  C          0.8160    3.0850    6.1140 C.2   214  HIS214      0.2264
     79  O          0.1800    3.4950    7.0870 O.2   214  HIS214     -0.2867
     80  CB         1.7850    0.8920    6.5060 C.3   214  HIS214      0.0745
     81  CG         1.1210    0.6240    7.8270 C.ar  214  HIS214      0.0817
     82  ND1       -0.2490    0.6750    7.9990 N.ar  214  HIS214     -0.2268
     83  CD2        1.6590    0.4140    9.0650 C.ar  214  HIS214      0.1154
     84  CE1       -0.5230    0.4410    9.2780 C.ar  214  HIS214      0.1986
     85  NE2        0.6100    0.2790    9.9300 N.ar  214  HIS214     -0.2212
     86  N         -5.5080   -2.7790    5.9230 N.3   220  MET220     -0.1230
     87  CA        -4.7540   -2.5360    7.1420 C.3   220  MET220      0.1702
     88  C         -3.3310   -2.0560    6.8810 C.2   220  MET220      0.2592
     89  O         -2.8370   -1.2070    7.6370 O.2   220  MET220     -0.2718
     90  CB        -4.7590   -3.7370    8.0610 C.3   220  MET220      0.0401
     91  CG        -4.4070   -3.2810    9.4860 C.3   220  MET220      0.0596
     92  SD        -4.2040   -4.6190   10.6270 S.3   220  MET220     -0.1393
     93  CE        -2.7640   -5.5040   10.1130 C.3   220  MET220      0.0692
     94  N         -2.6660   -2.6400    5.8690 N.am  221  HIS221     -0.1976
     95  CA        -1.3270   -2.2660    5.4740 C.3   221  HIS221      0.1656
     96  C         -1.3770   -1.9890    3.9620 C.2   221  HIS221      0.2291
     97  O         -1.7080   -2.8650    3.2020 O.2   221  HIS221     -0.2864
     98  CB        -0.3580   -3.3680    5.7090 C.3   221  HIS221      0.0771
     99  CG        -0.0010   -3.5220    7.1470 C.ar  221  HIS221      0.0820
    100  ND1        0.6050   -4.6360    7.6540 N.ar  221  HIS221     -0.2267
    101  CD2       -0.2310   -2.7100    8.1940 C.ar  221  HIS221      0.1154
    102  CE1        0.7620   -4.4900    8.9580 C.ar  221  HIS221      0.1986
    103  NE2        0.2640   -3.3250    9.3090 N.ar  221  HIS221     -0.2212
    104  N          5.3210    5.0030   13.0770 N.3   247  GLU247     -0.1245
    105  CA         5.4270    4.0340   14.1530 C.3   247  GLU247      0.1567
    106  C          6.8910    3.5990   14.4810 C.2   247  GLU247      0.2260
    107  O          7.1760    2.4540   14.5150 O.2   247  GLU247     -0.2867
    108  CB         4.5480    2.8240   13.8820 C.3   247  GLU247      0.0388
    109  CG         4.8310    2.0840   12.6090 C.3   247  GLU247      0.1160
    110  CD         3.8360    0.9840   12.3360 C.2   247  GLU247      0.3649
    111  OE1        2.8940    1.1820   11.6150 O.co2 247  GLU247     -0.2457
    112  OE2        4.0390   -0.0600   12.8640 O.co2 247  GLU247     -0.2457
    113  N          6.3560  -14.3510   14.2460 N.3   264  TRP264     -0.1241
    114  CA         5.8910  -13.0370   14.5250 C.3   264  TRP264      0.1605
    115  C          6.7490  -12.1640   15.3750 C.2   264  TRP264      0.2264
    116  O          6.9410  -10.9910   15.0180 O.2   264  TRP264     -0.2867
    117  CB         4.5120  -13.1020   15.1500 C.3   264  TRP264      0.0550
    118  CG         3.3960  -13.3880   14.1620 C.ar  264  TRP264      0.0003
    119  CD1        2.7630  -14.6070   13.9440 C.ar  264  TRP264      0.0946
    120  CD2        2.9280  -12.5240   13.1560 C.ar  264  TRP264      0.0152
    121  NE1        1.8750  -14.5100   12.9170 N.ar  264  TRP264     -0.2442
    122  CE2        1.9590  -13.2330   12.4020 C.ar  264  TRP264      0.0810
    123  CE3        3.1850  -11.1940   12.8380 C.ar  264  TRP264      0.0012
    124  CZ2        1.2450  -12.6300   11.3780 C.ar  264  TRP264      0.0191
    125  CZ3        2.4920  -10.6050   11.8190 C.ar  264  TRP264      0.0001
    126  CH2        1.5330  -11.3090   11.1020 C.ar  264  TRP264      0.0015
    127  N          3.0580    4.8370   17.9530 N.3   278  GLU278     -0.1245
    128  CA         2.3790    4.9190   16.6750 C.3   278  GLU278      0.1567
    129  C          1.1330    5.7820   16.7690 C.2   278  GLU278      0.2260
    130  O          0.3170    5.5830   17.7000 O.2   278  GLU278     -0.2867
    131  CB         1.9580    3.5330   16.2640 C.3   278  GLU278      0.0388
    132  CG         1.2390    3.4580   14.9490 C.3   278  GLU278      0.1160
    133  CD         0.9640    2.0530   14.4900 C.2   278  GLU278      0.3649
    134  OE1        0.9960    1.0840   15.3160 O.co2 278  GLU278     -0.2457
    135  OE2        0.6570    1.9090   13.2890 O.co2 278  GLU278     -0.2457
@<TRIPOS>BOND
     1    97    96    2
     2    96    95    1
     3    95    98    1
     4    95    94    1
     5    98    99    1
     6    94    88   am
     7    86    87    1
     8    78    77    1
     9    78    79    2
    10    19    18    1
    11    77    80    1
    12    77    76    1
    13    75    74    1
    14    80    81    1
    15    88    87    1
    16    88    89    2
    17    74    71    1
    18    87    90    1
    19    99   100   ar
    20    99   101   ar
    21    16    18   ar
    22    16    14   ar
    23    18    17   ar
    24   100   102   ar
    25    81    82   ar
    26    81    83   ar
    27    82    84   ar
    28    90    91    1
    29   101   103   ar
    30    14    13   ar
    31    17    15   ar
    32    71    72    1
    33    71    70    1
    34    72    73    2
    35   102   103   ar
    36    83    85   ar
    37    84    85   ar
    38    13    15   ar
    39    13    12    1
    40    91    92    1
    41    10     9    1
    42    10    11    2
    43     9    12    1
    44     9     8    1
    45    93    92    1
    46   126   124   ar
    47   126   125   ar
    48   124   122   ar
    49   111   110   ar
    50   125   123   ar
    51   110   109    1
    52   110   112   ar
    53    69    67   ar
    54   122   121   ar
    55   122   120   ar
    56    45    43   ar
    57    45    46   ar
    58   109   108    1
    59    20    21    1
    60   123   120   ar
    61   121   119   ar
    62   104   105    1
    63    66    67    1
    64    66    63    1
    65   120   118   ar
    66    61    59    1
    67   135   133   ar
    68    43    42   ar
    69    46    44   ar
    70    67    68   ar
    71     4     3    2
    72   108   105    1
    73   119   118   ar
    74    62    63    1
    75    24    21    1
    76    24    25    1
    77    21    22    1
    78   105   106    1
    79   118   117    1
    80     3     2    1
    81     2     1    1
    82     2     5    1
    83   113   114    1
    84     1     7    1
    85    63    64    1
    86   106   107    2
    87   133   132    1
    88   133   134   ar
    89   114   117    1
    90   114   115    1
    91    59    60    1
    92    59    56    1
    93    42    44   ar
    94    42    41    1
    95    23    22    2
    96    65    64    2
    97   132   131    1
    98   116   115    2
    99    25    26   ar
   100    25    27   ar
   101     7     6    1
   102    26    28   ar
   103     5     6    1
   104    41    38    1
   105    57    56    1
   106    57    58    2
   107    56    55    1
   108    27    29   ar
   109   131   128    1
   110    54    52   ar
   111   128   129    1
   112   128   127    1
   113    28    30   ar
   114   129   130    2
   115    38    37    1
   116    38    39    1
   117    53    52   ar
   118    36    35    1
   119    52    51    1
   120    29    30   ar
   121    40    39    2
   122    51    48    1
   123    35    32    1
   124    49    50    2
   125    49    48    1
   126    48    47    1
   127    31    32    1
   128    32    33    1
   129    33    34    2
