@<TRIPOS>MOLECULE
tmp/4u79A00.pdb
 205 190 0 0 0
SMALL
GASTEIGER

@<TRIPOS>ATOM
      1  N          2.3770   27.9620  -35.9040 N.3    27  ILE27      -0.1231
      2  CA         2.0010   28.3360  -34.5400 C.3    27  ILE27       0.1692
      3  C          1.8510   27.1430  -33.6130 C.2    27  ILE27       0.2592
      4  O          1.2320   27.2730  -32.5540 O.2    27  ILE27      -0.2718
      5  CB         0.6660   29.1240  -34.5000 C.3    27  ILE27       0.0266
      6  CG1       -0.4800   28.2880  -35.0760 C.3    27  ILE27       0.0019
      7  CG2        0.8060   30.4540  -35.2360 C.3    27  ILE27       0.0020
      8  CD1       -1.8360   28.9570  -35.0180 C.3    27  ILE27       0.0001
      9  N          2.3700   25.9900  -34.0120 N.am   28  GLY28      -0.1957
     10  CA         2.2360   24.7980  -33.2020 C.3    28  GLY28       0.1869
     11  C          2.5770   23.5060  -33.9100 C.2    28  GLY28       0.2309
     12  O          2.1990   23.2940  -35.0540 O.2    28  GLY28      -0.2863
     13  N          0.2010   22.8630  -37.0280 N.3    33  VAL33      -0.1245
     14  CA        -0.7610   23.9620  -37.1040 C.3    33  VAL33       0.1561
     15  C         -0.1450   25.2700  -37.6370 C.2    33  VAL33       0.2260
     16  O          0.9720   25.6370  -37.2690 O.2    33  VAL33      -0.2867
     17  CB        -1.3930   24.2430  -35.7280 C.3    33  VAL33       0.0252
     18  CG1       -2.6130   25.1480  -35.8900 C.3    33  VAL33       0.0019
     19  CG2       -1.7720   22.9360  -35.0490 C.3    33  VAL33       0.0019
     20  N         -6.8940   29.2080  -38.1970 N.3    46  ALA46      -0.1245
     21  CA        -5.8740   28.2490  -37.8670 C.3    46  ALA46       0.1562
     22  C         -6.1260   27.0250  -38.7280 C.2    46  ALA46       0.2260
     23  O         -7.2700   26.5730  -38.8910 O.2    46  ALA46      -0.2867
     24  CB        -5.9520   27.8990  -36.3850 C.3    46  ALA46       0.0290
     25  N         -4.9990   23.1190  -39.3370 N.3    48  LYS48      -0.1245
     26  CA        -4.2940   21.9640  -38.8150 C.3    48  LYS48       0.1561
     27  C         -4.1340   20.8670  -39.8400 C.2    48  LYS48       0.2260
     28  O         -5.1100   20.4120  -40.4130 O.2    48  LYS48      -0.2867
     29  CB        -5.0210   21.3830  -37.6340 C.3    48  LYS48       0.0271
     30  CG        -4.2100   20.2520  -37.0050 C.3    48  LYS48       0.0035
     31  CD        -4.8810   19.7620  -35.7540 C.3    48  LYS48       0.0206
     32  CE        -3.9020   19.3950  -34.6640 C.3    48  LYS48       0.1093
     33  NZ        -4.6910   18.5640  -33.7280 N.3    48  LYS48      -0.1314
     34  N         -3.4770   17.0730  -40.3550 N.3    50  LEU50      -0.1245
     35  CA        -3.3650   15.6500  -39.9820 C.3    50  LEU50       0.1561
     36  C         -2.6740   14.8420  -41.0690 C.2    50  LEU50       0.2260
     37  O         -3.2240   14.6060  -42.1470 O.2    50  LEU50      -0.2867
     38  CB        -4.7470   15.0530  -39.7930 C.3    50  LEU50       0.0270
     39  CG        -5.3730   15.1280  -38.4250 C.3    50  LEU50       0.0019
     40  CD1       -4.7280   16.1500  -37.5230 C.3    50  LEU50       0.0001
     41  CD2       -6.8520   15.3580  -38.6080 C.3    50  LEU50       0.0001
     42  N         -9.2790    8.7050  -32.6900 N.3    62  ARG62      -0.1231
     43  CA        -9.3390   10.0730  -32.2380 C.3    62  ARG62       0.1694
     44  C         -9.7230   10.9990  -33.4060 C.2    62  ARG62       0.2591
     45  O        -10.7230   11.7160  -33.3270 O.2    62  ARG62      -0.2718
     46  CB        -8.0130   10.4240  -31.5680 C.3    62  ARG62       0.0321
     47  CG        -7.4080   11.7590  -31.9100 C.3    62  ARG62       0.0489
     48  CD        -6.8560   12.3840  -30.6430 C.3    62  ARG62       0.2205
     49  NE        -7.9460   12.8570  -29.7920 N.pl3  62  ARG62      -0.0865
     50  CZ        -7.7840   13.6060  -28.7020 C.cat  62  ARG62       0.5346
     51  NH1       -6.5620   13.9840  -28.3260 N.pl3  62  ARG62       0.1354
     52  NH2       -8.8520   13.9950  -27.9960 N.pl3  62  ARG62       0.1354
     53  N         -8.9930   10.9500  -34.5130 N.am   63  ALA63      -0.1980
     54  CA        -9.3110   11.8640  -35.6270 C.3    63  ALA63       0.1597
     55  C        -10.7630   11.7160  -36.0850 C.2    63  ALA63       0.2287
     56  O        -11.4420   12.6810  -36.4340 O.2    63  ALA63      -0.2864
     57  CB        -8.3710   11.6490  -36.7890 C.3    63  ALA63       0.0319
     58  N        -13.3260   13.0870  -33.4190 N.3    66  GLU66      -0.1231
     59  CA       -13.2210   14.5310  -33.4530 C.3    66  GLU66       0.1699
     60  C        -14.0660   15.0980  -34.6300 C.2    66  GLU66       0.2592
     61  O        -14.9860   15.8920  -34.4160 O.2    66  GLU66      -0.2718
     62  CB       -11.7360   14.8890  -33.5760 C.3    66  GLU66       0.0402
     63  CG       -11.1870   15.9490  -32.6470 C.3    66  GLU66       0.1161
     64  CD       -11.2380   15.6340  -31.1490 C.2    66  GLU66       0.3649
     65  OE1      -11.6880   16.5320  -30.4110 O.co2  66  GLU66      -0.2457
     66  OE2      -10.8130   14.5520  -30.6910 O.co2  66  GLU66      -0.2457
     67  N        -13.7920   14.6430  -35.8570 N.am   67  LEU67      -0.1980
     68  CA       -14.5480   15.0720  -37.0530 C.3    67  LEU67       0.1596
     69  C        -16.0510   14.8920  -36.9110 C.2    67  LEU67       0.2287
     70  O        -16.8200   15.8220  -37.1250 O.2    67  LEU67      -0.2864
     71  CB       -14.1140   14.2940  -38.2960 C.3    67  LEU67       0.0297
     72  CG       -13.4490   15.0470  -39.4410 C.3    67  LEU67       0.0022
     73  CD1      -12.0500   15.5130  -39.0620 C.3    67  LEU67       0.0001
     74  CD2      -13.4020   14.1290  -40.6590 C.3    67  LEU67       0.0001
     75  N        -17.7000   17.3050  -34.2940 N.3    70  MET70      -0.1245
     76  CA       -17.7560   18.6830  -34.7190 C.3    70  MET70       0.1570
     77  C        -19.0760   18.9860  -35.3890 C.2    70  MET70       0.2261
     78  O        -19.4140   20.1390  -35.5620 O.2    70  MET70      -0.2867
     79  CB       -16.6100   19.0140  -35.6450 C.3    70  MET70       0.0387
     80  CG       -15.2850   18.5550  -35.1040 C.3    70  MET70       0.0595
     81  SD       -14.2010   19.9100  -34.6810 S.3    70  MET70      -0.1393
     82  CE       -12.6420   19.2520  -35.2280 C.3    70  MET70       0.0692
     83  N        -14.7380   24.3620  -29.9630 N.3    79  ILE79      -0.1245
     84  CA       -14.1630   24.3750  -31.3080 C.3    79  ILE79       0.1561
     85  C        -15.2610   24.1430  -32.3410 C.2    79  ILE79       0.2260
     86  O        -16.1560   23.3050  -32.1490 O.2    79  ILE79      -0.2867
     87  CB       -13.0820   23.2760  -31.4860 C.3    79  ILE79       0.0252
     88  CG1      -12.4950   23.3060  -32.9070 C.3    79  ILE79       0.0019
     89  CG2      -13.6460   21.8780  -31.1850 C.3    79  ILE79       0.0019
     90  CD1      -11.2190   22.5000  -33.0730 C.3    79  ILE79       0.0001
     91  N        -15.6220   23.9120  -36.7250 N.3    81  LEU81      -0.1245
     92  CA       -14.9030   23.7890  -37.9690 C.3    81  LEU81       0.1561
     93  C        -15.4950   24.7210  -39.0090 C.2    81  LEU81       0.2260
     94  O        -16.7050   24.6850  -39.2360 O.2    81  LEU81      -0.2867
     95  CB       -14.9890   22.3580  -38.4900 C.3    81  LEU81       0.0270
     96  CG       -13.6430   21.6580  -38.5970 C.3    81  LEU81       0.0019
     97  CD1      -12.8660   21.7900  -37.2860 C.3    81  LEU81       0.0001
     98  CD2      -13.8720   20.2060  -38.9860 C.3    81  LEU81       0.0001
     99  N         -7.8050   20.8090  -41.4000 N.3    99  LEU99      -0.1231
    100  CA        -8.9600   21.2630  -40.6420 C.3    99  LEU99       0.1693
    101  C         -8.7180   22.7020  -40.3720 C.2    99  LEU99       0.2592
    102  O         -7.5880   23.0670  -40.0390 O.2    99  LEU99      -0.2718
    103  CB        -9.0150   20.5270  -39.3000 C.3    99  LEU99       0.0284
    104  CG        -9.0220   18.9920  -39.4800 C.3    99  LEU99       0.0019
    105  CD1       -8.4750   18.2940  -38.2550 C.3    99  LEU99       0.0001
    106  CD2      -10.4410   18.5470  -39.7310 C.3    99  LEU99       0.0001
    107  N         -9.7710   23.5070  -40.4890 N.am  100  VAL100     -0.1966
    108  CA        -9.6740   24.9580  -40.3730 C.3   100  VAL100      0.1727
    109  C        -10.6510   25.4410  -39.3100 C.2   100  VAL100      0.2619
    110  O        -11.8430   25.0850  -39.3350 O.2   100  VAL100     -0.2715
    111  CB       -10.0530   25.6280  -41.7190 C.3   100  VAL100      0.0290
    112  CG1       -9.8170   27.1260  -41.6910 C.3   100  VAL100      0.0023
    113  CG2       -9.2900   25.0180  -42.8580 C.3   100  VAL100      0.0023
    114  N        -10.1730   26.2730  -38.3940 N.am  101  MET101     -0.1917
    115  CA       -11.0580   26.9350  -37.4150 C.3   101  MET101      0.1952
    116  C        -10.6630   28.3960  -37.2580 C.2   101  MET101      0.2659
    117  O         -9.5890   28.7980  -37.7220 O.2   101  MET101     -0.2711
    118  CB       -10.9490   26.2360  -36.0600 C.2   101  MET101      0.0110
    119  CG        -9.6140   26.3960  -35.3520 C.2   101  MET101      0.0285
    120  SD        -9.5840   25.8510  -33.5910 S.3   101  MET101     -0.1125
    121  CE       -10.8340   26.9070  -32.8470 C.3   101  MET101      0.0742
    122  N        -11.4600   29.1870  -36.5300 N.am  102  GLU102     -0.1960
    123  CA       -11.0320   30.5630  -36.2690 C.3   102  GLU102      0.1733
    124  C         -9.7700   30.6050  -35.4540 C.2   102  GLU102      0.2616
    125  O         -9.5520   29.7540  -34.5870 O.2   102  GLU102     -0.2715
    126  CB       -12.1230   31.4470  -35.6810 C.3   102  GLU102      0.0429
    127  CG       -12.6110   31.1470  -34.2900 C.3   102  GLU102      0.1163
    128  CD       -13.6250   32.1970  -33.8430 C.2   102  GLU102      0.3649
    129  OE1      -14.8220   31.8520  -33.6550 O.co2 102  GLU102     -0.2457
    130  OE2      -13.2240   33.3820  -33.7160 O.co2 102  GLU102     -0.2457
    131  N         -8.9080   31.5550  -35.7890 N.am  103  LEU103     -0.1963
    132  CA        -7.6270   31.7160  -35.1450 C.3   103  LEU103      0.1728
    133  C         -7.8510   32.4020  -33.8010 C.2   103  LEU103      0.2616
    134  O         -8.4890   33.4370  -33.7330 O.2   103  LEU103     -0.2715
    135  CB        -6.6980   32.5840  -35.9820 C.3   103  LEU103      0.0311
    136  CG        -5.3300   32.8530  -35.3510 C.3   103  LEU103      0.0022
    137  CD1       -4.5290   31.5570  -35.3040 C.3   103  LEU103      0.0001
    138  CD2       -4.5370   33.9290  -36.0740 C.3   103  LEU103      0.0001
    139  N         -7.2970   31.8200  -32.7470 N.am  104  MET104     -0.1963
    140  CA        -7.4130   32.3400  -31.4000 C.3   104  MET104      0.1736
    141  C         -6.0330   32.8900  -31.0380 C.2   104  MET104      0.2616
    142  O         -5.0650   32.6710  -31.7690 O.2   104  MET104     -0.2715
    143  CB        -7.8300   31.2180  -30.4470 C.3   104  MET104      0.0427
    144  CG        -9.1280   30.5350  -30.8170 C.3   104  MET104      0.0599
    145  SD       -10.5460   31.6050  -30.5690 S.3   104  MET104     -0.1393
    146  CE       -10.7630   31.5390  -28.7760 C.3   104  MET104      0.0692
    147  N         -5.9330   33.6040  -29.9160 N.am  105  ASP105     -0.1957
    148  CA        -4.6910   34.3130  -29.5890 C.3   105  ASP105      0.1840
    149  C         -3.7770   33.5950  -28.6600 C.2   105  ASP105      0.2622
    150  O         -2.5780   33.8440  -28.6840 O.2   105  ASP105     -0.2715
    151  CB        -5.0040   35.6560  -28.9730 C.3   105  ASP105      0.1450
    152  CG        -5.7630   36.5020  -29.9010 C.2   105  ASP105      0.3671
    153  OD1       -5.5060   36.3500  -31.1070 O.co2 105  ASP105     -0.2456
    154  OD2       -6.6110   37.2970  -29.4540 O.co2 105  ASP105     -0.2456
    155  N         -4.3200   32.7520  -27.7940 N.am  106  ALA106     -0.1963
    156  CA        -3.4720   32.1670  -26.7550 C.3   106  ALA106      0.1728
    157  C         -4.1110   30.9200  -26.2200 C.2   106  ALA106      0.2616
    158  O         -5.3270   30.7400  -26.3560 O.2   106  ALA106     -0.2715
    159  CB        -3.2270   33.1940  -25.6310 C.3   106  ALA106      0.0334
    160  N         -3.3030   30.0420  -25.6450 N.am  107  ASN107     -0.1972
    161  CA        -3.8600   28.9320  -24.8790 C.3   107  ASN107      0.1688
    162  C         -3.7750   29.2270  -23.3990 C.2   107  ASN107      0.2292
    163  O         -3.1330   30.1890  -22.9920 O.2   107  ASN107     -0.2864
    164  CB        -3.1550   27.6320  -25.1890 C.3   107  ASN107      0.1181
    165  CG        -1.7130   27.6530  -24.8110 C.2   107  ASN107      0.2629
    166  OD1       -1.3140   28.2420  -23.8120 O.2   107  ASN107     -0.2716
    167  ND2       -0.9070   27.0320  -25.6240 N.am  107  ASN107     -0.0877
    168  N         -0.5290   29.9850  -21.2750 N.3   110  GLN110     -0.1245
    169  CA         0.0220   31.3580  -21.3270 C.3   110  GLN110      0.1566
    170  C         -0.6910   32.2800  -20.3350 C.2   110  GLN110      0.2260
    171  O         -0.0660   33.1050  -19.6790 O.2   110  GLN110     -0.2867
    172  CB        -0.0790   31.9430  -22.7460 C.3   110  GLN110      0.0367
    173  CG         0.6990   31.1690  -23.8070 C.3   110  GLN110      0.0905
    174  CD         0.3620   31.5920  -25.2390 C.2   110  GLN110      0.2608
    175  OE1       -0.5710   31.0670  -25.8860 O.2   110  GLN110     -0.2717
    176  NE2        1.1290   32.5420  -25.7500 N.am  110  GLN110     -0.0878
    177  N         -3.5650   23.1730  -22.0800 N.3   148  SER148     -0.1217
    178  CA        -3.0820   23.1470  -23.4700 C.3   148  SER148      0.1889
    179  C         -4.1750   22.9350  -24.5030 C.2   148  SER148      0.2288
    180  O         -3.9390   23.1990  -25.6430 O.2   148  SER148     -0.2866
    181  CB        -2.0060   22.0790  -23.6940 C.3   148  SER148      0.2089
    182  OG        -2.4980   20.8060  -23.3210 O.3   148  SER148     -0.2183
    183  N         -8.2460   27.5190  -25.4360 N.3   151  VAL151     -0.1245
    184  CA        -7.6990   28.6820  -26.0880 C.3   151  VAL151      0.1561
    185  C         -8.5950   29.8680  -25.8600 C.2   151  VAL151      0.2260
    186  O         -9.8200   29.7190  -25.6850 O.2   151  VAL151     -0.2867
    187  CB        -7.4590   28.4950  -27.6000 C.3   151  VAL151      0.0252
    188  CG1       -6.2220   27.6600  -27.8220 C.3   151  VAL151      0.0019
    189  CG2       -8.6680   27.9050  -28.3030 C.3   151  VAL151      0.0019
    190  N        -10.8850   22.9440  -27.2210 N.3   161  LEU161     -0.1231
    191  CA       -10.3660   22.5310  -28.5280 C.3   161  LEU161      0.1693
    192  C        -10.6210   21.0800  -28.9150 C.2   161  LEU161      0.2592
    193  O        -10.5750   20.7580  -30.0980 O.2   161  LEU161     -0.2718
    194  CB        -8.8440   22.7520  -28.6220 C.3   161  LEU161      0.0284
    195  CG        -8.3560   24.1840  -28.8430 C.3   161  LEU161      0.0019
    196  CD1       -6.8310   24.2110  -28.9230 C.3   161  LEU161      0.0001
    197  CD2       -8.9620   24.7810  -30.0940 C.3   161  LEU161      0.0001
    198  N        -10.8440   20.1900  -27.9510 N.am  162  ASP162     -0.1974
    199  CA       -11.1190   18.8120  -28.3280 C.3   162  ASP162      0.1709
    200  C        -12.1690   18.1510  -27.4490 C.2   162  ASP162      0.2293
    201  O        -12.7090   18.7650  -26.5010 O.2   162  ASP162     -0.2864
    202  CB        -9.8220   18.0250  -28.3910 C.3   162  ASP162      0.1436
    203  CG        -9.2030   17.7880  -27.0390 C.2   162  ASP162      0.3671
    204  OD1       -9.9480   17.4630  -26.0890 O.co2 162  ASP162     -0.2456
    205  OD2       -7.9510   17.9070  -26.9400 O.co2 162  ASP162     -0.2456
@<TRIPOS>BOND
     1   113   111    1
     2    37    36    2
     3   111   112    1
     4   111   108    1
     5    99   100    1
     6    36    35    1
     7    74    72    1
     8   100   101    1
     9   100   103    1
    10   107   108    1
    11   107   101   am
    12    28    27    2
    13   108   109    1
    14   101   102    2
    15    34    35    1
    16    35    38    1
    17    27    26    1
    18    38    39    1
    19   106   104    1
    20   104   103    1
    21   104   105    1
    22    72    73    1
    23    72    71    1
    24    25    26    1
    25   110   109    2
    26   109   114   am
    27    94    93    2
    28    93    92    1
    29    98    96    1
    30    23    22    2
    31    26    29    1
    32    22    21    1
    33    41    39    1
    34    96    95    1
    35    96    97    1
    36    95    92    1
    37    39    40    1
    38   114   115    1
    39    71    68    1
    40    20    21    1
    41    92    91    1
    42    21    24    1
    43   117   116    2
    44    15    16    2
    45    15    14    1
    46    29    30    1
    47   115   116    1
    48   115   118    1
    49   116   122   am
    50    70    69    2
    51    14    13    1
    52    14    17    1
    53    68    69    1
    54    68    67    1
    55    30    31    1
    56    57    54    1
    57   122   123    1
    58    56    55    2
    59   123   126    1
    60   123   124    1
    61    55    54    1
    62   138   136    1
    63   118   119    2
    64   135   136    1
    65   135   132    1
    66     1     2    1
    67    18    17    1
    68    67    60   am
    69   131   124   am
    70   131   132    1
    71    31    32    1
    72    17    19    1
    73   126   127    1
    74    79    80    1
    75    79    76    1
    76    54    53    1
    77    78    77    2
    78   124   125    2
    79    77    76    1
    80   119   120    1
    81   136   137    1
    82     7     5    1
    83    82    81    1
    84   132   133    1
    85    80    81    1
    86     6     8    1
    87     6     5    1
    88    12    11    2
    89    76    75    1
    90    32    33    1
    91    60    61    2
    92    60    59    1
    93     2     5    1
    94     2     3    1
    95    53    44   am
    96   127   128    1
    97     9     3   am
    98     9    10    1
    99    11    10    1
   100   128   130   ar
   101   128   129   ar
   102   133   134    2
   103   133   139   am
   104     3     4    2
   105   120   121    1
   106    62    59    1
   107    62    63    1
   108    59    58    1
   109    44    45    2
   110    44    43    1
   111    90    88    1
   112    88    87    1
   113   139   140    1
   114    42    43    1
   115    63    64    1
   116    85    86    2
   117    85    84    1
   118    43    46    1
   119    47    46    1
   120    47    48    1
   121   142   141    2
   122    87    84    1
   123    87    89    1
   124   140   141    1
   125   140   143    1
   126    84    83    1
   127    64    66   ar
   128    64    65   ar
   129   153   152   ar
   130   141   147   am
   131   144   145    1
   132   144   143    1
   133    48    49    1
   134   145   146    1
   135   193   192    2
   136   197   195    1
   137   147   148    1
   138   152   154   ar
   139   152   151    1
   140    49    50    2
   141   148   151    1
   142   148   149    1
   143   196   195    1
   144   192   191    1
   145   192   198   am
   146   195   194    1
   147    50    51    1
   148    50    52    1
   149   150   149    2
   150   149   155   am
   151   194   191    1
   152   191   190    1
   153   202   199    1
   154   202   203    1
   155   199   198    1
   156   199   200    1
   157   189   187    1
   158   188   187    1
   159   155   156    1
   160   187   184    1
   161   200   201    2
   162   203   205   ar
   163   203   204   ar
   164   156   157    1
   165   156   159    1
   166   158   157    2
   167   157   160   am
   168   184   185    1
   169   184   183    1
   170   175   174    2
   171   185   186    2
   172   176   174   am
   173   160   161    1
   174   180   179    2
   175   167   165   am
   176   174   173    1
   177   164   161    1
   178   164   165    1
   179   161   162    1
   180   165   166    2
   181   179   178    1
   182   173   172    1
   183   181   178    1
   184   181   182    1
   185   178   177    1
   186   162   163    2
   187   172   169    1
   188   169   168    1
   189   169   170    1
   190   170   171    2
