@<TRIPOS>MOLECULE
tmp/4u7oA00.pdb
 188 180 0 0 0
SMALL
GASTEIGER

@<TRIPOS>ATOM
      1  N        -10.2270   14.9650  -17.5160 N.3    67  GLU67      -0.1245
      2  CA       -10.6980   15.7050  -18.6760 C.3    67  GLU67       0.1567
      3  C        -12.2370   15.6940  -18.8110 C.2    67  GLU67       0.2260
      4  O        -12.8320   16.7230  -19.0500 O.2    67  GLU67      -0.2867
      5  CB       -10.0480   15.1850  -19.9540 C.3    67  GLU67       0.0388
      6  CG        -8.6040   15.6360  -20.1510 C.3    67  GLU67       0.1160
      7  CD        -7.8870   14.7800  -21.1790 C.2    67  GLU67       0.3649
      8  OE1       -8.4830   13.7780  -21.6190 O.co2  67  GLU67      -0.2457
      9  OE2       -6.7450   15.0830  -21.5880 O.co2  67  GLU67      -0.2457
     10  N         -1.7010   22.5720  -24.5020 N.3   139  ASN139     -0.1225
     11  CA        -2.3180   21.5710  -25.3320 C.3   139  ASN139      0.1785
     12  C         -1.8450   21.8090  -26.7700 C.2   139  ASN139      0.2597
     13  O         -1.4240   20.8710  -27.4640 O.2   139  ASN139     -0.2718
     14  CB        -3.8400   21.6600  -25.1610 C.3   139  ASN139      0.1169
     15  CG        -4.6340   20.8670  -26.2210 C.2   139  ASN139      0.2627
     16  OD1       -5.6030   21.3820  -26.7750 O.2   139  ASN139     -0.2716
     17  ND2       -4.2440   19.6210  -26.4780 N.am  139  ASN139     -0.0877
     18  N         -1.8000   23.0740  -27.1860 N.am  140  ILE140     -0.1980
     19  CA        -1.4460   23.3590  -28.5750 C.3   140  ILE140      0.1595
     20  C          0.0490   23.1390  -28.8000 C.2   140  ILE140      0.2287
     21  O          0.4380   22.5290  -29.7850 O.2   140  ILE140     -0.2864
     22  CB        -1.8880   24.7550  -28.9620 C.3   140  ILE140      0.0276
     23  CG1       -3.4210   24.7980  -28.8410 C.3   140  ILE140      0.0022
     24  CG2       -1.4270   25.0700  -30.3950 C.3   140  ILE140      0.0022
     25  CD1       -3.9410   26.1660  -28.7340 C.3   140  ILE140      0.0001
     26  N          0.8050   19.3800  -28.9900 N.3   143  ASN143     -0.1225
     27  CA         0.4370   18.8530  -30.2800 C.3   143  ASN143      0.1785
     28  C          1.4940   19.2630  -31.3280 C.2   143  ASN143      0.2597
     29  O          1.9620   18.4430  -32.1190 O.2   143  ASN143     -0.2718
     30  CB        -0.9600   19.3490  -30.6840 C.3   143  ASN143      0.1169
     31  CG        -2.1050   18.5800  -29.9750 C.2   143  ASN143      0.2627
     32  OD1       -1.9610   17.4440  -29.5730 O.2   143  ASN143     -0.2716
     33  ND2       -3.2240   19.2190  -29.8300 N.am  143  ASN143     -0.0877
     34  N          1.9020   20.5260  -31.2720 N.am  144  ALA144     -0.1979
     35  CA         2.7570   21.0900  -32.2790 C.3   144  ALA144      0.1597
     36  C          4.1010   20.3450  -32.2820 C.2   144  ALA144      0.2287
     37  O          4.6400   20.0080  -33.3320 O.2   144  ALA144     -0.2864
     38  CB         2.9360   22.5450  -32.0070 C.3   144  ALA144      0.0319
     39  N          4.5480   17.1860  -30.8210 N.3   146  LYS146     -0.1231
     40  CA         4.2550   15.8230  -31.1900 C.3   146  LYS146      0.1693
     41  C          4.1360   15.6200  -32.7200 C.2   146  LYS146      0.2592
     42  O          4.6260   14.6260  -33.2350 O.2   146  LYS146     -0.2718
     43  CB         2.9690   15.3980  -30.5040 C.3   146  LYS146      0.0285
     44  CG         2.3370   14.1180  -31.0150 C.3   146  LYS146      0.0035
     45  CD         1.2220   13.6790  -30.0570 C.3   146  LYS146      0.0206
     46  CE         0.7290   12.2630  -30.3450 C.3   146  LYS146      0.1093
     47  NZ        -0.1410   12.1740  -31.5450 N.3   146  LYS146     -0.1314
     48  N          3.5310   16.5520  -33.4520 N.am  147  TYR147     -0.1976
     49  CA         3.3700   16.3350  -34.8860 C.3   147  TYR147      0.1639
     50  C          4.4510   17.0130  -35.7100 C.2   147  TYR147      0.2290
     51  O          4.3560   17.0380  -36.9270 O.2   147  TYR147     -0.2864
     52  CB         1.9900   16.8100  -35.3570 C.3   147  TYR147      0.0560
     53  CG         0.8950   15.9410  -34.7820 C.ar  147  TYR147     -0.0198
     54  CD1        0.6820   14.6360  -35.2390 C.ar  147  TYR147     -0.0009
     55  CD2        0.1110   16.3970  -33.7460 C.ar  147  TYR147     -0.0009
     56  CE1       -0.3120   13.8160  -34.6660 C.ar  147  TYR147      0.0417
     57  CE2       -0.8510   15.5960  -33.1680 C.ar  147  TYR147      0.0417
     58  CZ        -1.0690   14.3150  -33.6350 C.ar  147  TYR147      0.1957
     59  OH        -2.0660   13.5740  -33.0360 O.3   147  TYR147     -0.2866
     60  N          3.4480   24.4760  -36.8780 N.3   171  ASP171     -0.1239
     61  CA         4.3930   23.3730  -36.9960 C.3   171  ASP171      0.1674
     62  C          4.5870   23.0400  -38.4710 C.2   171  ASP171      0.2266
     63  O          3.8650   23.5230  -39.3470 O.2   171  ASP171     -0.2867
     64  CB         3.9100   22.1400  -36.2300 C.3   171  ASP171      0.1410
     65  CG         2.5950   21.5920  -36.7610 C.2   171  ASP171      0.3668
     66  OD1        2.5830   20.9820  -37.8640 O.co2 171  ASP171     -0.2456
     67  OD2        1.5570   21.7690  -36.0640 O.co2 171  ASP171     -0.2456
     68  N          2.6170   16.8550  -40.6970 N.3   174  LEU174     -0.1231
     69  CA         1.7920   16.4370  -41.8390 C.3   174  LEU174      0.1693
     70  C          0.4930   17.2050  -42.0370 C.2   174  LEU174      0.2593
     71  O         -0.1490   17.0760  -43.0660 O.2   174  LEU174     -0.2718
     72  CB         1.5060   14.9360  -41.7810 C.3   174  LEU174      0.0284
     73  CG         2.7890   14.1370  -42.0460 C.3   174  LEU174      0.0019
     74  CD1        2.5470   12.6340  -41.9720 C.3   174  LEU174      0.0001
     75  CD2        3.4310   14.5360  -43.3840 C.3   174  LEU174      0.0001
     76  N          0.1190   18.0300  -41.0790 N.am  175  GLY175     -0.1942
     77  CA        -1.0980   18.8020  -41.2250 C.3   175  GLY175      0.2014
     78  C         -2.3890   18.0310  -40.9800 C.2   175  GLY175      0.2638
     79  O         -2.3700   16.8920  -40.5220 O.2   175  GLY175     -0.2714
     80  N         -3.5060   18.6440  -41.3510 N.am  176  ILE176     -0.1977
     81  CA        -4.8330   18.0880  -41.1040 C.3   176  ILE176      0.1596
     82  C         -5.7210   18.1240  -42.3470 C.2   176  ILE176      0.2287
     83  O         -5.8500   19.1610  -42.9790 O.2   176  ILE176     -0.2864
     84  CB        -5.5280   18.8630  -39.9780 C.3   176  ILE176      0.0276
     85  CG1       -4.6590   18.8400  -38.7280 C.3   176  ILE176      0.0022
     86  CG2       -6.8840   18.2810  -39.6820 C.3   176  ILE176      0.0022
     87  CD1       -4.9390   20.0130  -37.7840 C.3   176  ILE176      0.0001
     88  N        -11.4780   18.7150  -35.3970 N.3   184  VAL184     -0.1245
     89  CA       -10.3960   18.4370  -34.4560 C.3   184  VAL184      0.1561
     90  C        -10.7040   19.0310  -33.0860 C.2   184  VAL184      0.2260
     91  O        -10.0940   18.6730  -32.0850 O.2   184  VAL184     -0.2867
     92  CB        -9.0050   18.9710  -34.9280 C.3   184  VAL184      0.0252
     93  CG1       -8.4630   18.1370  -36.1030 C.3   184  VAL184      0.0019
     94  CG2       -9.0460   20.4610  -35.2360 C.3   184  VAL184      0.0019
     95  N        -12.4150   13.4340  -30.9270 N.3   189  PHE189     -0.1227
     96  CA       -11.9300   13.3300  -32.2900 C.3   189  PHE189      0.1736
     97  C        -10.4080   13.1990  -32.3310 C.2   189  PHE189      0.2595
     98  O         -9.7120   14.1300  -31.9430 O.2   189  PHE189     -0.2718
     99  CB       -12.3110   14.5410  -33.1200 C.3   189  PHE189      0.0547
    100  CG       -11.9520   14.3850  -34.5600 C.ar  189  PHE189     -0.0202
    101  CD1      -12.8530   13.8240  -35.4460 C.ar  189  PHE189     -0.0042
    102  CD2      -10.6830   14.6880  -35.0050 C.ar  189  PHE189     -0.0042
    103  CE1      -12.5100   13.6340  -36.7760 C.ar  189  PHE189     -0.0003
    104  CE2      -10.3350   14.4870  -36.3260 C.ar  189  PHE189     -0.0003
    105  CZ       -11.2510   13.9650  -37.2110 C.ar  189  PHE189     -0.0000
    106  N         -9.8790   12.0730  -32.8070 N.am  190  ARG190     -0.1966
    107  CA        -8.4300   11.9740  -33.0620 C.3   190  ARG190      0.1729
    108  C         -8.3330   11.5500  -34.5240 C.2   190  ARG190      0.2616
    109  O         -9.0030   10.6020  -34.8930 O.2   190  ARG190     -0.2715
    110  CB        -7.7460   10.9380  -32.1550 C.3   190  ARG190      0.0348
    111  CG        -8.1060   10.9780  -30.6760 C.3   190  ARG190      0.0492
    112  CD        -7.6480    9.7290  -29.9000 C.3   190  ARG190      0.2205
    113  NE        -6.1990    9.5000  -29.9710 N.pl3 190  ARG190     -0.0865
    114  CZ        -5.5820    8.3670  -29.6130 C.cat 190  ARG190      0.5346
    115  NH1       -6.2840    7.3480  -29.1270 N.pl3 190  ARG190      0.1354
    116  NH2       -4.2550    8.2590  -29.7180 N.pl3 190  ARG190      0.1354
    117  N         -7.5310   12.2110  -35.3590 N.am  191  VAL191     -0.1963
    118  CA        -7.3860   11.7760  -36.7580 C.3   191  VAL191      0.1727
    119  C         -6.7450   10.3920  -36.8420 C.2   191  VAL191      0.2616
    120  O         -6.9590    9.6520  -37.7980 O.2   191  VAL191     -0.2715
    121  CB        -6.5580   12.7980  -37.5990 C.3   191  VAL191      0.0290
    122  CG1       -6.1790   12.2620  -38.9730 C.3   191  VAL191      0.0023
    123  CG2       -7.3300   14.0780  -37.7610 C.3   191  VAL191      0.0023
    124  N         -6.0250   10.0080  -35.8020 N.am  192  ASP192     -0.1971
    125  CA        -5.2510    8.7910  -35.8700 C.3   192  ASP192      0.1709
    126  C         -5.8740    7.6470  -35.1070 C.2   192  ASP192      0.2293
    127  O         -6.9390    7.7840  -34.5140 O.2   192  ASP192     -0.2864
    128  CB        -3.8650    9.0750  -35.3520 C.3   192  ASP192      0.1436
    129  CG        -3.1130    9.9980  -36.2670 C.2   192  ASP192      0.3671
    130  OD1       -3.2000    9.7790  -37.4890 O.co2 192  ASP192     -0.2456
    131  OD2       -2.4920   10.9740  -35.7830 O.co2 192  ASP192     -0.2456
    132  N         -3.5770    9.3150  -25.2260 N.3   196  GLY196     -0.1210
    133  CA        -4.0890   10.4810  -25.9180 C.3   196  GLY196      0.1956
    134  C         -5.5910   10.2780  -25.9720 C.2   196  GLY196      0.2613
    135  O         -6.0670    9.2550  -26.4280 O.2   196  GLY196     -0.2717
    136  N         -6.3510   11.2320  -25.4860 N.am  197  THR197     -0.1938
    137  CA        -7.7650   11.0170  -25.2790 C.3   197  THR197      0.2028
    138  C         -8.6150   11.5290  -26.4510 C.2   197  THR197      0.2643
    139  O         -9.6510   10.9630  -26.7810 O.2   197  THR197     -0.2714
    140  CB        -8.2150   11.6980  -23.9600 C.3   197  THR197      0.1808
    141  OG1       -7.8470   13.0950  -23.9850 O.3   197  THR197     -0.2208
    142  CG2       -7.5620   11.0280  -22.7470 C.3   197  THR197      0.0379
    143  N         -8.1450   12.5890  -27.0930 N.am  198  GLY198     -0.1939
    144  CA        -8.9250   13.3270  -28.0740 C.3   198  GLY198      0.2014
    145  C         -9.8900   14.3180  -27.4160 C.2   198  GLY198      0.2639
    146  O        -10.8470   14.7990  -28.0430 O.2   198  GLY198     -0.2714
    147  N         -9.5940   14.6940  -26.1760 N.am  199  LEU199     -0.1963
    148  CA       -10.4220   15.6610  -25.4700 C.3   199  LEU199      0.1728
    149  C         -9.7100   16.9890  -25.3220 C.2   199  LEU199      0.2617
    150  O        -10.3720   17.9880  -25.0310 O.2   199  LEU199     -0.2715
    151  CB       -10.8540   15.1470  -24.0840 C.3   199  LEU199      0.0311
    152  CG       -11.6610   13.8470  -24.1070 C.3   199  LEU199      0.0022
    153  CD1      -11.7090   13.1920  -22.7380 C.3   199  LEU199      0.0001
    154  CD2      -13.0520   14.0990  -24.6070 C.3   199  LEU199      0.0001
    155  N         -8.3770   17.0180  -25.4460 N.am  200  GLY200     -0.1940
    156  CA        -7.6170   18.2350  -25.1860 C.3   200  GLY200      0.2014
    157  C         -8.0910   19.4550  -25.9650 C.2   200  GLY200      0.2639
    158  O         -8.2610   20.5510  -25.4060 O.2   200  GLY200     -0.2714
    159  N         -8.3140   19.3030  -27.2720 N.am  201  LEU201     -0.1963
    160  CA        -8.6810   20.4720  -28.0370 C.3   201  LEU201      0.1728
    161  C        -10.1300   20.8690  -27.7540 C.2   201  LEU201      0.2616
    162  O        -10.4950   22.0150  -27.9360 O.2   201  LEU201     -0.2715
    163  CB        -8.4560   20.2540  -29.5200 C.3   201  LEU201      0.0311
    164  CG        -7.0150   20.3950  -30.0110 C.3   201  LEU201      0.0022
    165  CD1       -6.9100   20.0220  -31.4620 C.3   201  LEU201      0.0001
    166  CD2       -6.5580   21.8490  -29.8180 C.3   201  LEU201      0.0001
    167  N        -10.9450   19.9230  -27.3010 N.am  202  ALA202     -0.1977
    168  CA       -12.3480   20.1940  -26.9530 C.3   202  ALA202      0.1597
    169  C        -12.4050   21.0250  -25.6960 C.2   202  ALA202      0.2287
    170  O        -13.1900   21.9580  -25.5960 O.2   202  ALA202     -0.2864
    171  CB       -13.1020   18.9220  -26.7580 C.3   202  ALA202      0.0319
    172  N          0.5680   22.9120  -39.7340 N.3   225  SER225     -0.1217
    173  CA        -0.6650   23.4920  -39.2560 C.3   225  SER225      0.1889
    174  C         -0.3590   24.7790  -38.5560 C.2   225  SER225      0.2288
    175  O          0.7450   24.9800  -38.0470 O.2   225  SER225     -0.2866
    176  CB        -1.3870   22.5380  -38.2960 C.3   225  SER225      0.2089
    177  OG        -1.7450   21.3440  -38.9700 O.3   225  SER225     -0.2183
    178  N         -2.4100   26.9140  -35.5690 N.3   227  PHE227     -0.1241
    179  CA        -3.5370   27.1600  -34.6660 C.3   227  PHE227      0.1605
    180  C         -3.5630   28.6140  -34.2510 C.2   227  PHE227      0.2264
    181  O         -2.5180   29.2320  -34.0300 O.2   227  PHE227     -0.2867
    182  CB        -3.4420   26.2770  -33.4450 C.3   227  PHE227      0.0534
    183  CG        -3.8400   24.8600  -33.7040 C.ar  227  PHE227     -0.0203
    184  CD1       -2.9680   23.9850  -34.3360 C.ar  227  PHE227     -0.0042
    185  CD2       -5.0890   24.4010  -33.3010 C.ar  227  PHE227     -0.0042
    186  CE1       -3.3200   22.6840  -34.5790 C.ar  227  PHE227     -0.0003
    187  CE2       -5.4780   23.0960  -33.5460 C.ar  227  PHE227     -0.0003
    188  CZ        -4.6020   22.2250  -34.1780 C.ar  227  PHE227     -0.0000
@<TRIPOS>BOND
     1    75    73    1
     2    71    70    2
     3    83    82    2
     4    82    81    1
     5    73    74    1
     6    73    72    1
     7    70    69    1
     8    70    76   am
     9    69    72    1
    10    69    68    1
    11    80    81    1
    12    80    78   am
    13    77    76    1
    14    77    78    1
    15    81    84    1
    16    78    79    2
    17    84    86    1
    18    84    85    1
    19   172   173    1
    20    63    62    2
    21   173   174    1
    22   173   176    1
    23   122   121    1
    24   177   176    1
    25    85    87    1
    26   174   175    2
    27    62    61    1
    28    66    65   ar
    29   120   119    2
    30   123   121    1
    31   121   118    1
    32   130   129   ar
    33   105   103   ar
    34   105   104   ar
    35    61    60    1
    36    61    64    1
    37    51    50    2
    38   119   118    1
    39   119   124   am
    40   103   101   ar
    41    65    64    1
    42    65    67   ar
    43   118   117    1
    44   104   102   ar
    45   129   131   ar
    46   129   128    1
    47    93    92    1
    48   125   124    1
    49   125   128    1
    50   125   126    1
    51    50    49    1
    52   178   179    1
    53   101   100   ar
    54    88    89    1
    55   117   108   am
    56    52    49    1
    57    52    53    1
    58    54    53   ar
    59    54    56   ar
    60    94    92    1
    61   126   127    2
    62   102   100   ar
    63    92    89    1
    64   109   108    2
    65    49    48    1
    66    53    55   ar
    67    56    58   ar
    68   179   180    1
    69   179   182    1
    70   186   184   ar
    71   186   188   ar
    72   100    99    1
    73   108   107    1
    74    89    90    1
    75   184   183   ar
    76   180   181    2
    77   188   187   ar
    78    55    57   ar
    79   183   182    1
    80   183   185   ar
    81    58    57   ar
    82    58    59    1
    83   187   185   ar
    84    48    41   am
    85    37    36    2
    86    42    41    2
    87    99    96    1
    88    90    91    2
    89   107   106    1
    90   107   110    1
    91   106    97   am
    92    41    40    1
    93    97    96    1
    94    97    98    2
    95    96    95    1
    96    36    35    1
    97    35    38    1
    98    35    34    1
    99   110   111    1
   100    29    28    2
   101    47    46    1
   102   165   164    1
   103    28    34   am
   104    28    27    1
   105    40    39    1
   106    40    43    1
   107    44    43    1
   108    44    45    1
   109    30    27    1
   110    30    31    1
   111   111   112    1
   112    24    22    1
   113    46    45    1
   114    27    26    1
   115   164   166    1
   116   164   163    1
   117    31    33   am
   118    31    32    2
   119   113   112    1
   120   113   114    2
   121    21    20    2
   122   116   114    1
   123   114   115    1
   124   163   160    1
   125    22    23    1
   126    22    19    1
   127    23    25    1
   128    20    19    1
   129    19    18    1
   130   144   145    1
   131   144   143    1
   132   146   145    2
   133   160   161    1
   134   160   159    1
   135   162   161    2
   136   161   167   am
   137    13    12    2
   138   145   147   am
   139   167   168    1
   140   159   157   am
   141    18    12   am
   142   143   138   am
   143   168   171    1
   144   168   169    1
   145   139   138    2
   146    16    15    2
   147    12    11    1
   148    17    15   am
   149   138   137    1
   150   135   134    2
   151    15    14    1
   152   147   148    1
   153   134   133    1
   154   134   136   am
   155   157   158    2
   156   157   156    1
   157   133   132    1
   158   169   170    2
   159   136   137    1
   160   148   149    1
   161   148   151    1
   162   155   149   am
   163   155   156    1
   164    11    14    1
   165    11    10    1
   166   149   150    2
   167   137   140    1
   168   154   152    1
   169   152   151    1
   170   152   153    1
   171   141   140    1
   172   140   142    1
   173     8     7   ar
   174     9     7   ar
   175     7     6    1
   176     6     5    1
   177     5     2    1
   178     4     3    2
   179     3     2    1
   180     2     1    1
