@<TRIPOS>MOLECULE
tmp/4u7pA00.pdb
 182 175 0 0 0
SMALL
GASTEIGER

@<TRIPOS>ATOM
      1  N        -69.5510   70.6680   -1.7480 N.3   167  PHE167     -0.1227
      2  CA       -68.8390   71.7070   -1.0100 C.3   167  PHE167      0.1736
      3  C        -67.4290   71.2260   -0.6720 C.2   167  PHE167      0.2595
      4  O        -67.1360   70.9060    0.4850 O.2   167  PHE167     -0.2718
      5  CB       -69.5600   72.0870    0.2850 C.3   167  PHE167      0.0547
      6  CG       -71.0530   72.1030    0.1820 C.ar  167  PHE167     -0.0202
      7  CD1      -71.7060   73.0990   -0.5190 C.ar  167  PHE167     -0.0042
      8  CD2      -71.8060   71.1420    0.8310 C.ar  167  PHE167     -0.0042
      9  CE1      -73.0840   73.1230   -0.5910 C.ar  167  PHE167     -0.0003
     10  CE2      -73.1770   71.1600    0.7670 C.ar  167  PHE167     -0.0003
     11  CZ       -73.8210   72.1490    0.0530 C.ar  167  PHE167     -0.0000
     12  N        -66.5710   71.1490   -1.6840 N.am  168  ASP168     -0.1960
     13  CA       -65.2240   70.6240   -1.5080 C.3   168  ASP168      0.1840
     14  C        -64.2930   71.6390   -0.8510 C.2   168  ASP168      0.2623
     15  O        -63.5970   71.3240    0.1150 O.2   168  ASP168     -0.2715
     16  CB       -64.6510   70.1970   -2.8600 C.3   168  ASP168      0.1450
     17  CG       -63.3170   69.4870   -2.7350 C.2   168  ASP168      0.3671
     18  OD1      -63.2430   68.5000   -1.9720 O.co2 168  ASP168     -0.2456
     19  OD2      -62.3440   69.9210   -3.3950 O.co2 168  ASP168     -0.2456
     20  N        -64.2940   72.8620   -1.3770 N.am  169  GLY169     -0.1940
     21  CA       -63.3530   73.8830   -0.9490 C.3   169  GLY169      0.2014
     22  C        -61.9350   73.4790   -1.3050 C.2   169  GLY169      0.2638
     23  O        -61.6660   73.0380   -2.4240 O.2   169  GLY169     -0.2714
     24  N        -61.0240   73.6370   -0.3520 N.am  170  ILE170     -0.1977
     25  CA       -59.6830   73.0900   -0.4860 C.3   170  ILE170      0.1596
     26  C        -59.7850   71.5730   -0.4800 C.2   170  ILE170      0.2287
     27  O        -60.4610   71.0020    0.3730 O.2   170  ILE170     -0.2864
     28  CB       -58.7710   73.5500    0.6460 C.3   170  ILE170      0.0276
     29  CG1      -58.7210   75.0700    0.6920 C.3   170  ILE170      0.0022
     30  CG2      -57.3910   73.0210    0.4420 C.3   170  ILE170      0.0022
     31  CD1      -58.2350   75.6000    2.0080 C.3   170  ILE170      0.0001
     32  N        -59.4200   68.8520    0.7250 N.3   172  THR172     -0.1218
     33  CA       -59.0500   68.1300    1.9410 C.3   172  THR172      0.1862
     34  C        -59.2650   66.6420    1.7640 C.2   172  THR172      0.2287
     35  O        -58.4600   65.8260    2.2020 O.2   172  THR172     -0.2866
     36  CB       -59.8680   68.5950    3.1740 C.3   172  THR172      0.1770
     37  OG1      -59.7840   70.0190    3.3170 O.3   172  THR172     -0.2211
     38  CG2      -59.3440   67.9320    4.4380 C.3   172  THR172      0.0375
     39  N        -67.9970   69.3730   -6.1430 N.3   190  SER190     -0.1202
     40  CA       -68.7960   70.5560   -6.4280 C.3   190  SER190      0.2020
     41  C        -68.3780   71.7170   -5.5520 C.2   190  SER190      0.2619
     42  O        -68.6390   71.7100   -4.3490 O.2   190  SER190     -0.2717
     43  CB       -70.2790   70.2690   -6.2110 C.3   190  SER190      0.2103
     44  OG       -71.0450   71.4480   -6.3460 O.3   190  SER190     -0.2182
     45  N        -67.7470   72.7190   -6.1570 N.am  191  GLU191     -0.1965
     46  CA       -67.2600   73.8750   -5.4060 C.3   191  GLU191      0.1733
     47  C        -67.4530   75.1720   -6.1990 C.2   191  GLU191      0.2616
     48  O        -67.4350   75.1640   -7.4310 O.2   191  GLU191     -0.2715
     49  CB       -65.7850   73.6780   -5.0320 C.3   191  GLU191      0.0429
     50  CG       -65.1550   74.8260   -4.2520 C.3   191  GLU191      0.1163
     51  CD       -65.9360   75.1960   -3.0010 C.2   191  GLU191      0.3649
     52  OE1      -66.3610   74.2840   -2.2590 O.co2 191  GLU191     -0.2457
     53  OE2      -66.1240   76.4060   -2.7640 O.co2 191  GLU191     -0.2457
     54  N        -67.6520   76.2750   -5.4850 N.am  192  VAL192     -0.1963
     55  CA       -67.8990   77.5600   -6.1110 C.3   192  VAL192      0.1727
     56  C        -66.6880   78.4890   -6.0470 C.2   192  VAL192      0.2616
     57  O        -66.1790   78.9110   -7.0810 O.2   192  VAL192     -0.2715
     58  CB       -69.0890   78.2480   -5.4660 C.3   192  VAL192      0.0290
     59  CG1      -69.5510   79.3990   -6.3420 C.3   192  VAL192      0.0023
     60  CG2      -70.1960   77.2620   -5.2900 C.3   192  VAL192      0.0023
     61  N        -66.2720   78.8370   -4.8270 N.am  193  CYS193     -0.1968
     62  CA       -65.1520   79.7580   -4.5760 C.3   193  CYS193      0.1712
     63  C        -63.9350   79.4730   -5.4440 C.2   193  CYS193      0.2296
     64  O        -63.2000   78.5160   -5.2060 O.2   193  CYS193     -0.2864
     65  CB       -64.7380   79.7090   -3.0980 C.3   193  CYS193      0.0983
     66  SG       -63.2490   80.6780   -2.7080 S.3   193  CYS193     -0.0798
     67  N        -60.5860   78.2210   -4.0890 N.3   196  SER196     -0.1217
     68  CA       -60.6220   76.8240   -3.6700 C.3   196  SER196      0.1889
     69  C        -60.4110   75.8980   -4.8720 C.2   196  SER196      0.2288
     70  O        -59.6160   74.9330   -4.8360 O.2   196  SER196     -0.2866
     71  CB       -61.9570   76.5140   -2.9790 C.3   196  SER196      0.2089
     72  OG       -62.2950   77.4960   -2.0080 O.3   196  SER196     -0.2183
     73  N        -70.4350   72.7210  -10.8920 N.3   212  GLY212     -0.1210
     74  CA       -70.8360   73.9950  -10.3120 C.3   212  GLY212      0.1956
     75  C        -71.4620   73.9110   -8.9340 C.2   212  GLY212      0.2612
     76  O        -70.9130   73.2950   -8.0260 O.2   212  GLY212     -0.2717
     77  N        -72.6250   74.5340   -8.7830 N.am  213  ASP213     -0.1959
     78  CA       -73.3700   74.4710   -7.5320 C.3   213  ASP213      0.1840
     79  C        -73.7680   73.0550   -7.2390 C.2   213  ASP213      0.2622
     80  O        -73.8480   72.2290   -8.1400 O.2   213  ASP213     -0.2715
     81  CB       -74.6360   75.3090   -7.5920 C.3   213  ASP213      0.1450
     82  CG       -74.3800   76.7550   -7.3520 C.2   213  ASP213      0.3671
     83  OD1      -73.3600   77.2650   -7.8560 O.co2 213  ASP213     -0.2456
     84  OD2      -75.1990   77.3850   -6.6580 O.co2 213  ASP213     -0.2456
     85  N        -74.0400   72.7670   -5.9780 N.am  214  VAL214     -0.1963
     86  CA       -74.6840   71.5130   -5.6710 C.3   214  VAL214      0.1727
     87  C        -76.0680   71.5200   -6.3110 C.2   214  VAL214      0.2616
     88  O        -76.6540   70.4620   -6.5310 O.2   214  VAL214     -0.2715
     89  CB       -74.7880   71.2760   -4.1680 C.3   214  VAL214      0.0290
     90  CG1      -73.4930   70.6860   -3.6580 C.3   214  VAL214      0.0023
     91  CG2      -75.1150   72.5770   -3.4570 C.3   214  VAL214      0.0023
     92  N        -76.5770   72.7080   -6.6370 N.am  215  ARG215     -0.1977
     93  CA       -77.8920   72.8260   -7.2710 C.3   215  ARG215      0.1597
     94  C        -77.8380   72.4730   -8.7670 C.2   215  ARG215      0.2287
     95  O        -78.8160   71.9770   -9.3390 O.2   215  ARG215     -0.2864
     96  CB       -78.4620   74.2360   -7.0890 C.3   215  ARG215      0.0334
     97  CG       -78.5060   74.7490   -5.6520 C.3   215  ARG215      0.0492
     98  CD       -77.2140   75.4570   -5.3120 C.3   215  ARG215      0.2205
     99  NE       -77.4070   76.6340   -4.4750 N.pl3 215  ARG215     -0.0865
    100  CZ       -77.5970   77.8630   -4.9430 C.cat 215  ARG215      0.5346
    101  NH1      -77.6310   78.0770   -6.2510 N.pl3 215  ARG215      0.1354
    102  NH2      -77.7500   78.8770   -4.1000 N.pl3 215  ARG215      0.1354
    103  N        -69.0350   69.1610    3.5760 N.3   234  GLY234     -0.1210
    104  CA       -69.2270   70.0620    4.6890 C.3   234  GLY234      0.1956
    105  C        -69.9080   71.3110    4.1850 C.2   234  GLY234      0.2613
    106  O        -69.2630   72.1540    3.5780 O.2   234  GLY234     -0.2717
    107  N        -71.2130   71.4210    4.4140 N.am  235  SER235     -0.1938
    108  CA       -71.9750   72.5940    3.9910 C.3   235  SER235      0.2040
    109  C        -71.5770   73.8140    4.8040 C.2   235  SER235      0.2485
    110  O        -71.3470   73.7010    6.0090 O.2   235  SER235     -0.2729
    111  CB       -73.4750   72.3580    4.1450 C.3   235  SER235      0.2129
    112  OG       -73.9130   72.7840    5.4270 O.3   235  SER235     -0.2179
    113  N        -71.5040   74.9890    4.1540 N.am  236  PRO236     -0.2726
    114  CA       -71.1670   76.2230    4.8730 C.3   236  PRO236      0.1402
    115  C        -72.1120   76.4710    6.0450 C.2   236  PRO236      0.2269
    116  O        -73.3090   76.1810    5.9510 O.2   236  PRO236     -0.2865
    117  CB       -71.3090   77.3140    3.8020 C.3   236  PRO236      0.0296
    118  CG       -72.1030   76.7000    2.7160 C.3   236  PRO236      0.0237
    119  CD       -71.7750   75.2440    2.7310 C.3   236  PRO236      0.0939
    120  N        -77.8370   80.4930    3.5810 N.3   254  THR254     -0.1218
    121  CA       -76.8540   79.4850    3.1980 C.3   254  THR254      0.1862
    122  C        -77.1150   78.1330    3.8790 C.2   254  THR254      0.2287
    123  O        -76.4240   77.1440    3.6160 O.2   254  THR254     -0.2866
    124  CB       -75.4340   79.9660    3.5280 C.3   254  THR254      0.1770
    125  OG1      -74.4800   78.9590    3.1710 O.3   254  THR254     -0.2211
    126  CG2      -75.3260   80.2540    4.9980 C.3   254  THR254      0.0375
    127  N        -78.3970   74.7530    1.7670 N.3   257  LEU257     -0.1245
    128  CA       -77.4210   73.9110    1.0880 C.3   257  LEU257      0.1561
    129  C        -77.3440   72.5160    1.6880 C.2   257  LEU257      0.2260
    130  O        -77.0290   71.5500    0.9830 O.2   257  LEU257     -0.2867
    131  CB       -76.0520   74.5770    1.1140 C.3   257  LEU257      0.0270
    132  CG       -76.0480   75.9430    0.4350 C.3   257  LEU257      0.0019
    133  CD1      -74.6360   76.3750    0.1010 C.3   257  LEU257      0.0001
    134  CD2      -76.9070   75.9160   -0.8170 C.3   257  LEU257      0.0001
    135  N        -70.3240   67.0370    7.5250 N.3   283  GLU283     -0.1245
    136  CA       -69.7490   67.7720    8.6570 C.3   283  GLU283      0.1567
    137  C        -70.3770   69.1520    8.8190 C.2   283  GLU283      0.2260
    138  O        -70.7090   69.8110    7.8280 O.2   283  GLU283     -0.2867
    139  CB       -68.2260   67.9050    8.4910 C.3   283  GLU283      0.0388
    140  CG       -67.5670   68.9420    9.4010 C.3   283  GLU283      0.1160
    141  CD       -67.5520   70.3510    8.8060 C.2   283  GLU283      0.3649
    142  OE1      -67.3880   70.4760    7.5720 O.co2 283  GLU283     -0.2457
    143  OE2      -67.7150   71.3280    9.5720 O.co2 283  GLU283     -0.2457
    144  N        -59.6460   80.7680    3.4750 N.3   402  LEU402     -0.1245
    145  CA       -59.7810   79.3870    3.0200 C.3   402  LEU402      0.1561
    146  C        -59.4590   78.3830    4.1210 C.2   402  LEU402      0.2260
    147  O        -60.2520   77.4780    4.3780 O.2   402  LEU402     -0.2867
    148  CB       -58.8880   79.1250    1.8070 C.3   402  LEU402      0.0270
    149  CG       -59.5450   79.1880    0.4260 C.3   402  LEU402      0.0019
    150  CD1      -60.1880   80.5510    0.1690 C.3   402  LEU402      0.0001
    151  CD2      -58.5310   78.8510   -0.6580 C.3   402  LEU402      0.0001
    152  N        -62.0300   77.7980    7.0900 N.3   405  ARG405     -0.1231
    153  CA       -63.2460   77.0170    6.9210 C.3   405  ARG405      0.1694
    154  C        -62.9490   75.6270    6.3720 C.2   405  ARG405      0.2593
    155  O        -63.8160   74.9860    5.7810 O.2   405  ARG405     -0.2718
    156  CB       -64.2330   77.7500    6.0030 C.3   405  ARG405      0.0321
    157  CG       -63.7230   78.0060    4.5940 C.3   405  ARG405      0.0489
    158  CD       -64.6650   78.9250    3.8260 C.3   405  ARG405      0.2205
    159  NE       -64.1810   79.1760    2.4720 N.pl3 405  ARG405     -0.0865
    160  CZ       -64.5670   80.1990    1.7180 C.cat 405  ARG405      0.5346
    161  NH1      -65.4460   81.0760    2.1880 N.pl3 405  ARG405      0.1354
    162  NH2      -64.0710   80.3470    0.4960 N.pl3 405  ARG405      0.1354
    163  N        -61.7270   75.1520    6.5760 N.am  406  SER406     -0.1938
    164  CA       -61.3660   73.8300    6.0860 C.3   406  SER406      0.2055
    165  C        -61.5460   72.7600    7.1580 C.2   406  SER406      0.2643
    166  O        -61.8530   73.0610    8.3100 O.2   406  SER406     -0.2714
    167  CB       -59.9260   73.8220    5.5720 C.3   406  SER406      0.2130
    168  OG       -59.0270   74.2730    6.5680 O.3   406  SER406     -0.2179
    169  N        -61.3960   71.5050    6.7480 N.am  407  TRP407     -0.1973
    170  CA       -61.3610   70.3720    7.6660 C.3   407  TRP407      0.1640
    171  C        -59.9780   70.2100    8.2840 C.2   407  TRP407      0.2290
    172  O        -58.9690   70.5450    7.6550 O.2   407  TRP407     -0.2864
    173  CB       -61.7340   69.0820    6.9420 C.3   407  TRP407      0.0576
    174  CG       -63.1930   68.8840    6.7120 C.ar  407  TRP407      0.0006
    175  CD1      -64.2180   69.2600    7.5290 C.ar  407  TRP407      0.0946
    176  CD2      -63.7950   68.2540    5.5790 C.ar  407  TRP407      0.0152
    177  NE1      -65.4240   68.8980    6.9740 N.ar  407  TRP407     -0.2442
    178  CE2      -65.1880   68.2820    5.7770 C.ar  407  TRP407      0.0810
    179  CE3      -63.2840   67.6700    4.4160 C.ar  407  TRP407      0.0012
    180  CZ2      -66.0780   67.7500    4.8530 C.ar  407  TRP407      0.0191
    181  CZ3      -64.1700   67.1430    3.4990 C.ar  407  TRP407      0.0001
    182  CH2      -65.5510   67.1870    3.7220 C.ar  407  TRP407      0.0015
@<TRIPOS>BOND
     1    73    74    1
     2    74    75    1
     3    95    94    2
     4    75    77   am
     5    75    76    2
     6    77    78    1
     7    94    93    1
     8    80    79    2
     9    83    82   ar
    10    81    78    1
    11    81    82    1
    12    78    79    1
    13    48    47    2
    14    82    84   ar
    15    93    96    1
    16    93    92    1
    17    79    85   am
    18    96    97    1
    19    57    56    2
    20    92    87   am
    21    88    87    2
    22    40    43    1
    23    40    39    1
    24    40    41    1
    25    44    43    1
    26    59    58    1
    27    87    86    1
    28   101   100    1
    29    47    54   am
    30    47    46    1
    31    45    41   am
    32    45    46    1
    33    55    56    1
    34    55    54    1
    35    55    58    1
    36    56    61   am
    37    85    86    1
    38    86    89    1
    39    97    98    1
    40    41    42    2
    41    58    60    1
    42    63    64    2
    43    63    62    1
    44    46    49    1
    45    98    99    1
    46    49    50    1
    47   100    99    2
    48   100   102    1
    49    69    70    2
    50    69    68    1
    51    61    62    1
    52    62    65    1
    53    50    51    1
    54    89    90    1
    55    89    91    1
    56    67    68    1
    57    68    71    1
    58    19    17   ar
    59    65    66    1
    60    51    53   ar
    61    51    52   ar
    62    71    72    1
    63    16    17    1
    64    16    13    1
    65    17    18   ar
    66    23    22    2
    67     1     2    1
    68    12    13    1
    69    12     3   am
    70    13    14    1
    71    20    21    1
    72    20    14   am
    73    22    21    1
    74    22    24   am
    75     2     3    1
    76     2     5    1
    77    14    15    2
    78   134   132    1
    79     3     4    2
    80   151   149    1
    81     9     7   ar
    82     9    11   ar
    83     7     6   ar
    84    25    26    1
    85    25    24    1
    86    25    28    1
    87    26    27    2
    88    11    10   ar
    89   133   132    1
    90   150   149    1
    91     6     5    1
    92     6     8   ar
    93   149   148    1
    94   132   131    1
    95    30    28    1
    96   162   160    1
    97    28    29    1
    98    29    31    1
    99    32    33    1
   100    10     8   ar
   101   130   129    2
   102   128   131    1
   103   128   129    1
   104   128   127    1
   105   160   161    1
   106   160   159    2
   107    34    33    1
   108    34    35    2
   109   148   145    1
   110    33    36    1
   111   159   158    1
   112   118   119    1
   113   118   117    1
   114   119   113    1
   115   145   144    1
   116   145   146    1
   117   125   124    1
   118    36    37    1
   119    36    38    1
   120   121   124    1
   121   121   120    1
   122   121   122    1
   123   181   182   ar
   124   181   179   ar
   125   124   126    1
   126   103   104    1
   127   106   105    2
   128   123   122    2
   129   182   180   ar
   130   117   114    1
   131   158   157    1
   132   108   111    1
   133   108   107    1
   134   108   109    1
   135   146   147    2
   136   111   112    1
   137   113   109   am
   138   113   114    1
   139   105   107   am
   140   105   104    1
   141   179   176   ar
   142   157   156    1
   143   109   110    2
   144   180   178   ar
   145   114   115    1
   146   167   164    1
   147   167   168    1
   148   176   178   ar
   149   176   174   ar
   150   178   177   ar
   151   155   154    2
   152   116   115    2
   153   156   153    1
   154   164   163    1
   155   164   165    1
   156   154   163   am
   157   154   153    1
   158   174   173    1
   159   174   175   ar
   160   169   165   am
   161   169   170    1
   162   153   152    1
   163   173   170    1
   164   177   175   ar
   165   165   166    2
   166   135   136    1
   167   142   141   ar
   168   172   171    2
   169   170   171    1
   170   138   137    2
   171   139   136    1
   172   139   140    1
   173   136   137    1
   174   141   140    1
   175   141   143   ar
