@<TRIPOS>MOLECULE
tmp/4u7qB00.pdb
 109 103 0 0 0
SMALL
GASTEIGER

@<TRIPOS>ATOM
      1  N        -24.1740   -9.1040  -12.8520 N.3    23  LEU23      -0.1245
      2  CA       -24.6790   -8.1010  -11.9400 C.3    23  LEU23       0.1561
      3  C        -25.3190   -6.9990  -12.7210 C.2    23  LEU23       0.2260
      4  O        -24.6480   -6.4000  -13.5690 O.2    23  LEU23      -0.2867
      5  CB       -23.4750   -7.5000  -11.1650 C.3    23  LEU23       0.0270
      6  CG       -23.6960   -6.5050  -10.0080 C.3    23  LEU23       0.0019
      7  CD1      -24.4190   -7.1020   -8.8120 C.3    23  LEU23       0.0001
      8  CD2      -22.3290   -6.0500   -9.5590 C.3    23  LEU23       0.0001
      9  N        -26.1210   -3.4100  -13.1340 N.3    25  ASP25      -0.1239
     10  CA       -25.2680   -2.3850  -12.5570 C.3    25  ASP25       0.1674
     11  C        -25.5120   -1.0170  -13.1610 C.2    25  ASP25       0.2266
     12  O        -24.9970   -0.6450  -14.2740 O.2    25  ASP25      -0.2867
     13  CB       -23.8440   -2.7890  -12.7760 C.3    25  ASP25       0.1410
     14  CG       -22.8590   -1.8180  -12.1520 C.2    25  ASP25       0.3668
     15  OD1      -23.3070   -0.8570  -11.4940 O.co2  25  ASP25      -0.2456
     16  OD2      -21.6660   -2.0290  -12.3720 O.co2  25  ASP25      -0.2456
     17  N        -24.5330    1.6950  -12.1300 N.3    27  GLY27      -0.1210
     18  CA       -23.2700    2.4340  -12.1140 C.3    27  GLY27       0.1956
     19  C        -22.3410    2.2510  -13.3320 C.2    27  GLY27       0.2612
     20  O        -21.2920    2.8820  -13.3860 O.2    27  GLY27      -0.2717
     21  N        -22.7280    1.3840  -14.2790 N.am   28  ALA28      -0.1965
     22  CA       -21.9280    1.0340  -15.4740 C.3    28  ALA28       0.1728
     23  C        -22.5060    1.5190  -16.7760 C.2    28  ALA28       0.2616
     24  O        -23.6880    1.2510  -17.1280 O.2    28  ALA28      -0.2715
     25  CB       -21.6430   -0.4970  -15.4710 C.3    28  ALA28       0.0334
     26  N        -21.7410    2.3490  -17.5320 N.am   29  ASP29      -0.1957
     27  CA       -22.2140    2.7760  -18.8510 C.3    29  ASP29       0.1840
     28  C        -22.2410    1.6200  -19.8110 C.2    29  ASP29       0.2622
     29  O        -23.1460    1.4480  -20.6680 O.2    29  ASP29      -0.2715
     30  CB       -21.2340    3.7930  -19.4870 C.3    29  ASP29       0.1450
     31  CG       -21.4120    5.1830  -18.9700 C.2    29  ASP29       0.3671
     32  OD1      -22.3370    5.4760  -18.1590 O.co2  29  ASP29      -0.2456
     33  OD2      -20.6020    6.0220  -19.4600 O.co2  29  ASP29      -0.2456
     34  N        -21.2480    0.7600  -19.5960 N.am   30  ASP30      -0.1971
     35  CA       -20.9970   -0.3810  -20.5090 C.3    30  ASP30       0.1709
     36  C        -21.1560   -1.7490  -19.7910 C.2    30  ASP30       0.2293
     37  O        -21.0250   -1.8740  -18.5410 O.2    30  ASP30      -0.2864
     38  CB       -19.5690   -0.2950  -21.0510 C.3    30  ASP30       0.1436
     39  CG       -19.2560    1.0590  -21.7010 C.2    30  ASP30       0.3671
     40  OD1      -20.0440    1.4700  -22.5790 O.co2  30  ASP30      -0.2456
     41  OD2      -18.2060    1.6270  -21.3390 O.co2  30  ASP30      -0.2456
     42  N        -19.5690   -5.3830  -19.4550 N.3    32  VAL32      -0.1245
     43  CA       -18.2820   -6.0900  -19.4590 C.3    32  VAL32       0.1561
     44  C        -18.2710   -7.4720  -18.7710 C.2    32  VAL32       0.2260
     45  O        -18.5450   -7.6190  -17.5800 O.2    32  VAL32      -0.2867
     46  CB       -17.2020   -5.2020  -18.8430 C.3    32  VAL32       0.0252
     47  CG1      -17.1650   -5.2810  -17.3160 C.3    32  VAL32       0.0019
     48  CG2      -15.8320   -5.4960  -19.4560 C.3    32  VAL32       0.0019
     49  N        -10.4770    0.8440  -23.6150 N.3    46  MET46      -0.1230
     50  CA        -9.9870    0.7760  -22.2200 C.3    46  MET46       0.1702
     51  C        -10.9560    1.4870  -21.2510 C.2    46  MET46       0.2592
     52  O        -11.4320    2.5810  -21.5600 O.2    46  MET46      -0.2718
     53  CB        -8.6400    1.4890  -22.1270 C.3    46  MET46       0.0401
     54  CG        -7.4960    0.8380  -22.9010 C.3    46  MET46       0.0596
     55  SD        -6.0790    1.9370  -23.1570 S.3    46  MET46      -0.1393
     56  CE        -6.8530    3.2480  -24.0980 C.3    46  MET46       0.0692
     57  N        -11.2240    0.8950  -20.0810 N.am   47  ILE47      -0.1966
     58  CA       -12.2510    1.4040  -19.1370 C.3    47  ILE47       0.1727
     59  C        -11.8260    1.5060  -17.6660 C.2    47  ILE47       0.2617
     60  O        -11.0140    0.7110  -17.2160 O.2    47  ILE47      -0.2715
     61  CB       -13.4770    0.4700  -19.1840 C.3    47  ILE47       0.0290
     62  CG1      -13.2110   -0.8470  -18.4720 C.3    47  ILE47       0.0022
     63  CG2      -13.8840    0.1830  -20.6160 C.3    47  ILE47       0.0023
     64  CD1      -14.4340   -1.7190  -18.3220 C.3    47  ILE47       0.0001
     65  N        -12.4100    2.4430  -16.9000 N.am   48  GLY48      -0.1940
     66  CA       -12.0060    2.6860  -15.5060 C.3    48  GLY48       0.2014
     67  C        -12.9890    2.5160  -14.3620 C.2    48  GLY48       0.2639
     68  O        -14.1830    2.6230  -14.5800 O.2    48  GLY48      -0.2714
     69  N        -12.4890    2.2980  -13.1440 N.am   49  GLY49      -0.1939
     70  CA       -13.3280    2.1930  -11.9200 C.3    49  GLY49       0.2014
     71  C        -12.6540    2.5940  -10.6280 C.2    49  GLY49       0.2638
     72  O        -11.7120    3.3650  -10.6680 O.2    49  GLY49      -0.2714
     73  N        -13.1350    2.0620   -9.5030 N.am   50  ILE50      -0.1977
     74  CA       -12.8160    2.5100   -8.1780 C.3    50  ILE50       0.1596
     75  C        -11.3330    2.3580   -7.7910 C.2    50  ILE50       0.2287
     76  O        -10.8160    3.2200   -7.0710 O.2    50  ILE50      -0.2864
     77  CB       -13.7610    1.8560   -7.1360 C.3    50  ILE50       0.0276
     78  CG1      -14.0030    2.7450   -5.9280 C.3    50  ILE50       0.0022
     79  CG2      -13.1670    0.5570   -6.6290 C.3    50  ILE50       0.0022
     80  CD1      -14.8170    4.0020   -6.1350 C.3    50  ILE50       0.0001
     81  N        -12.6680   -8.9180  -15.1860 N.3    80  THR80      -0.1204
     82  CA       -13.4280   -8.3370  -14.0650 C.3    80  THR80       0.1979
     83  C        -13.6590   -9.4490  -13.0380 C.2    80  THR80       0.2460
     84  O        -13.7870  -10.6040  -13.4220 O.2    80  THR80      -0.2732
     85  CB       -14.8190   -7.8730  -14.5560 C.3    80  THR80       0.1783
     86  OG1      -14.7110   -7.1430  -15.7910 O.3    80  THR80      -0.2211
     87  CG2      -15.4940   -7.0150  -13.5170 C.3    80  THR80       0.0376
     88  N        -13.7180   -9.1340  -11.7360 N.am   81  PRO81      -0.2717
     89  CA       -14.1230  -10.1650  -10.7480 C.3    81  PRO81       0.1535
     90  C        -15.6070  -10.6120  -10.7980 C.2    81  PRO81       0.2598
     91  O        -16.0290  -11.6390  -10.1670 O.2    81  PRO81      -0.2715
     92  CB       -13.8190   -9.4920   -9.3880 C.3    81  PRO81       0.0310
     93  CG       -13.7900   -8.0380   -9.6830 C.3    81  PRO81       0.0237
     94  CD       -13.2580   -7.8950  -11.0850 C.3    81  PRO81       0.0939
     95  N        -16.4090   -9.7880  -11.4570 N.am   82  VAL82      -0.1978
     96  CA       -17.7980  -10.0590  -11.6630 C.3    82  VAL82       0.1596
     97  C        -18.2230   -9.6610  -13.1220 C.2    82  VAL82       0.2287
     98  O        -17.7150   -8.7610  -13.7450 O.2    82  VAL82      -0.2864
     99  CB       -18.6190   -9.4450  -10.4690 C.3    82  VAL82       0.0276
    100  CG1      -18.2540   -7.9810  -10.2450 C.3    82  VAL82       0.0022
    101  CG2      -20.1260   -9.6260  -10.6120 C.3    82  VAL82       0.0022
    102  N        -20.7700   -7.9390  -15.4210 N.3    84  ILE84      -0.1245
    103  CA       -21.5120   -6.6770  -15.2160 C.3    84  ILE84       0.1561
    104  C        -22.3370   -6.2910  -16.4570 C.2    84  ILE84       0.2260
    105  O        -21.8560   -6.2500  -17.6360 O.2    84  ILE84      -0.2867
    106  CB       -20.5150   -5.5230  -14.9070 C.3    84  ILE84       0.0252
    107  CG1      -19.7730   -5.7610  -13.5950 C.3    84  ILE84       0.0019
    108  CG2      -21.2630   -4.1830  -14.9420 C.3    84  ILE84       0.0019
    109  CD1      -18.4900   -4.9760  -13.5080 C.3    84  ILE84       0.0001
@<TRIPOS>BOND
     1    56    55    1
     2    49    50    1
     3    55    54    1
     4    54    53    1
     5    40    39   ar
     6    50    53    1
     7    50    51    1
     8    39    41   ar
     9    39    38    1
    10    52    51    2
    11    51    57   am
    12    38    35    1
    13    29    28    2
    14    63    61    1
    15    35    36    1
    16    35    34    1
    17    57    58    1
    18    28    34   am
    19    28    27    1
    20    36    37    2
    21    30    31    1
    22    30    27    1
    23    33    31   ar
    24    43    42    1
    25    43    46    1
    26    43    44    1
    27    48    46    1
    28    61    58    1
    29    61    62    1
    30    58    59    1
    31    31    32   ar
    32    27    26    1
    33    46    47    1
    34    44    45    2
    35    62    64    1
    36    59    60    2
    37    59    65   am
    38   105   104    2
    39    26    23   am
    40    24    23    2
    41    65    66    1
    42    23    22    1
    43   104   103    1
    44    86    85    1
    45    66    67    1
    46    22    25    1
    47    22    21    1
    48   102   103    1
    49   103   106    1
    50    81    82    1
    51   108   106    1
    52   106   107    1
    53    68    67    2
    54    85    82    1
    55    85    87    1
    56    67    69   am
    57    21    19   am
    58    12    11    2
    59    82    83    1
    60    98    97    2
    61   107   109    1
    62     4     3    2
    63    84    83    2
    64    20    19    2
    65    19    18    1
    66    11    10    1
    67    69    70    1
    68     9    10    1
    69    97    96    1
    70    83    88   am
    71     1     2    1
    72    13    10    1
    73    13    14    1
    74     3     2    1
    75    16    14   ar
    76    14    15   ar
    77    17    18    1
    78     2     5    1
    79    70    71    1
    80    88    94    1
    81    88    89    1
    82    96    95    1
    83    96    99    1
    84    95    90   am
    85     5     6    1
    86    94    93    1
    87    90    89    1
    88    90    91    2
    89    89    92    1
    90    72    71    2
    91    71    73   am
    92   101    99    1
    93    99   100    1
    94     6     8    1
    95     6     7    1
    96    93    92    1
    97    73    74    1
    98    74    75    1
    99    74    77    1
   100    75    76    2
   101    77    79    1
   102    77    78    1
   103    80    78    1
