@<TRIPOS>MOLECULE
tmp/4u7tC00.pdb
 194 185 0 0 0
SMALL
GASTEIGER

@<TRIPOS>ATOM
      1  N        -30.4220   89.1660  -13.8930 N.3    47  CYS47      -0.1235
      2  CA       -29.1030   89.5700  -13.4600 C.3    47  CYS47       0.1677
      3  C        -29.0100   89.6110  -11.9270 C.2    47  CYS47       0.2270
      4  O        -28.0690   89.0900  -11.3440 O.2    47  CYS47      -0.2867
      5  CB       -28.7650   90.9350  -14.0550 C.3    47  CYS47       0.0956
      6  SG       -27.1020   91.4780  -13.7100 S.3    47  CYS47      -0.0801
      7  N        -26.3930   87.7050   -9.4890 N.3    51  CYS51      -0.1235
      8  CA       -25.3070   88.5810   -9.0380 C.3    51  CYS51       0.1677
      9  C        -25.3520   89.1400   -7.6220 C.2    51  CYS51       0.2270
     10  O        -24.2990   89.3480   -7.0160 O.2    51  CYS51      -0.2867
     11  CB       -25.1990   89.7830   -9.9830 C.3    51  CYS51       0.0956
     12  SG       -24.5620   89.3950  -11.6060 S.3    51  CYS51      -0.0801
     13  N        -23.1790   87.6890   -4.9180 N.3    54  GLN54      -0.1245
     14  CA       -21.8150   87.3280   -5.2820 C.3    54  GLN54       0.1566
     15  C        -20.8440   88.2690   -4.5980 C.2    54  GLN54       0.2260
     16  O        -20.9480   89.4900   -4.7320 O.2    54  GLN54      -0.2867
     17  CB       -21.6170   87.3760   -6.7910 C.3    54  GLN54       0.0367
     18  CG       -22.3300   86.2760   -7.5270 C.3    54  GLN54       0.0905
     19  CD       -21.8790   86.1650   -8.9640 C.2    54  GLN54       0.2608
     20  OE1      -21.6220   85.0680   -9.4700 O.2    54  GLN54      -0.2717
     21  NE2      -21.7640   87.3070   -9.6280 N.am   54  GLN54      -0.0878
     22  N        -16.6760   89.1540   -3.5510 N.3    56  ASP56      -0.1239
     23  CA       -15.2770   88.9410   -3.9140 C.3    56  ASP56       0.1674
     24  C        -14.4730   88.4370   -2.7270 C.2    56  ASP56       0.2266
     25  O        -15.0200   88.1760   -1.6490 O.2    56  ASP56      -0.2867
     26  CB       -14.6420   90.2290   -4.4340 C.3    56  ASP56       0.1410
     27  CG       -15.1660   90.6410   -5.7880 C.2    56  ASP56       0.3668
     28  OD1      -15.4480   89.7500   -6.6110 O.co2  56  ASP56      -0.2456
     29  OD2      -15.2920   91.8590   -6.0290 O.co2  56  ASP56      -0.2456
     30  N        -12.4150   90.0840   -1.0880 N.3    58  ASP58      -0.1239
     31  CA       -12.2950   91.1050   -0.0740 C.3    58  ASP58       0.1674
     32  C        -13.4590   91.0690    0.8920 C.2    58  ASP58       0.2266
     33  O        -13.4660   91.8000    1.8780 O.2    58  ASP58      -0.2867
     34  CB       -12.1840   92.4920   -0.7040 C.3    58  ASP58       0.1410
     35  CG       -13.3410   92.8240   -1.5960 C.2    58  ASP58       0.3668
     36  OD1      -14.1300   91.9140   -1.8940 O.co2  58  ASP58      -0.2456
     37  OD2      -13.4760   94.0050   -1.9830 O.co2  58  ASP58      -0.2456
     38  N        -16.4300   91.9860    0.1040 N.3    60  TYR60      -0.1227
     39  CA       -17.4210   92.9250   -0.3860 C.3    60  TYR60       0.1736
     40  C        -18.0820   92.3700   -1.6450 C.2    60  TYR60       0.2595
     41  O        -17.5270   91.4870   -2.3160 O.2    60  TYR60      -0.2718
     42  CB       -16.7840   94.2800   -0.6670 C.3    60  TYR60       0.0548
     43  CG       -16.4470   95.0530    0.5910 C.ar   60  TYR60      -0.0200
     44  CD1      -15.3650   94.6860    1.3890 C.ar   60  TYR60      -0.0009
     45  CD2      -17.2110   96.1510    0.9820 C.ar   60  TYR60      -0.0009
     46  CE1      -15.0550   95.3890    2.5480 C.ar   60  TYR60       0.0417
     47  CE2      -16.9060   96.8640    2.1390 C.ar   60  TYR60       0.0417
     48  CZ       -15.8270   96.4760    2.9160 C.ar   60  TYR60       0.1957
     49  OH       -15.5220   97.1720    4.0590 O.3    60  TYR60      -0.2866
     50  N        -19.2700   92.8880   -1.9550 N.am   61  GLN61      -0.1965
     51  CA       -20.0330   92.4620   -3.1260 C.3    61  GLN61       0.1733
     52  C        -19.1920   92.5720   -4.3910 C.2    61  GLN61       0.2617
     53  O        -18.3340   93.4480   -4.4930 O.2    61  GLN61      -0.2715
     54  CB       -21.2970   93.3000   -3.2780 C.3    61  GLN61       0.0408
     55  CG       -22.5080   92.7690   -2.5500 C.3    61  GLN61       0.0908
     56  CD       -23.6980   93.6890   -2.7180 C.2    61  GLN61       0.2608
     57  OE1      -23.5920   94.7570   -3.3300 O.2    61  GLN61      -0.2717
     58  NE2      -24.8360   93.2870   -2.1770 N.am   61  GLN61      -0.0878
     59  N        -19.4240   91.6810   -5.3480 N.am   62  SER62      -0.1936
     60  CA       -18.6410   91.7010   -6.5750 C.3    62  SER62       0.2055
     61  C        -19.0920   92.8300   -7.4770 C.2    62  SER62       0.2643
     62  O        -18.2840   93.3630   -8.2390 O.2    62  SER62      -0.2714
     63  CB       -18.7450   90.3760   -7.3140 C.3    62  SER62       0.2130
     64  OG       -18.6710   89.2930   -6.4060 O.3    62  SER62      -0.2179
     65  N        -20.3800   93.1860   -7.3810 N.am   63  TYR63      -0.1973
     66  CA       -20.9910   94.2020   -8.2450 C.3    63  TYR63       0.1639
     67  C        -21.9050   95.1250   -7.4900 C.2    63  TYR63       0.2290
     68  O        -22.2370   94.8680   -6.3410 O.2    63  TYR63      -0.2864
     69  CB       -21.7900   93.5540   -9.3630 C.3    63  TYR63       0.0560
     70  CG       -20.9850   92.6000  -10.1810 C.ar   63  TYR63      -0.0198
     71  CD1      -20.0540   93.0620  -11.0980 C.ar   63  TYR63      -0.0009
     72  CD2      -21.1340   91.2350  -10.0220 C.ar   63  TYR63      -0.0009
     73  CE1      -19.2980   92.1870  -11.8430 C.ar   63  TYR63       0.0417
     74  CE2      -20.3840   90.3530  -10.7620 C.ar   63  TYR63       0.0417
     75  CZ       -19.4710   90.8320  -11.6710 C.ar   63  TYR63       0.1957
     76  OH       -18.7260   89.9450  -12.4060 O.3    63  TYR63      -0.2866
     77  N        -26.5370   95.7300  -10.2650 N.3    68  CYS68      -0.1221
     78  CA       -25.8720   94.4240  -10.3500 C.3    68  CYS68       0.1808
     79  C        -24.8270   94.3690  -11.4720 C.2    68  CYS68       0.2602
     80  O        -24.4200   93.2860  -11.9050 O.2    68  CYS68      -0.2717
     81  CB       -26.9010   93.2940  -10.5170 C.3    68  CYS68       0.0970
     82  SG       -27.7060   92.7780   -8.9510 S.3    68  CYS68      -0.0800
     83  N        -24.3780   95.5480  -11.9000 N.am   69  GLY69      -0.1942
     84  CA       -23.2410   95.6930  -12.7930 C.3    69  GLY69       0.2014
     85  C        -22.3050   96.7740  -12.2730 C.2    69  GLY69       0.2639
     86  O        -21.9580   96.7800  -11.0920 O.2    69  GLY69      -0.2714
     87  N        -21.8960   97.6980  -13.1390 N.am   70  GLY70      -0.1939
     88  CA       -21.0650   98.8150  -12.7120 C.3    70  GLY70       0.2014
     89  C        -19.5800   98.5270  -12.8710 C.2    70  GLY70       0.2639
     90  O        -19.1450   97.3990  -12.6370 O.2    70  GLY70      -0.2714
     91  N        -18.7990   99.5340  -13.2650 N.am   71  ARG71      -0.1963
     92  CA       -17.3760   99.3160  -13.5350 C.3    71  ARG71       0.1729
     93  C        -16.4700   99.6600  -12.3470 C.2    71  ARG71       0.2616
     94  O        -15.4890   98.9570  -12.0850 O.2    71  ARG71      -0.2715
     95  CB       -16.9370  100.1100  -14.7630 C.3    71  ARG71       0.0348
     96  CG       -15.7470   99.4950  -15.4660 C.3    71  ARG71       0.0492
     97  CD       -15.3620  100.2700  -16.7100 C.3    71  ARG71       0.2205
     98  NE       -14.2290   99.6580  -17.3980 N.pl3  71  ARG71      -0.0865
     99  CZ       -13.7710  100.0520  -18.5820 C.cat  71  ARG71       0.5346
    100  NH1      -14.3590  101.0550  -19.2220 N.pl3  71  ARG71       0.1354
    101  NH2      -12.7350   99.4350  -19.1330 N.pl3  71  ARG71       0.1354
    102  N        -16.7950  100.7240  -11.6190 N.am   72  GLU72      -0.1963
    103  CA       -16.0420  101.0400  -10.4140 C.3    72  GLU72       0.1733
    104  C        -16.9820  101.3240   -9.2520 C.2    72  GLU72       0.2616
    105  O        -17.8590  102.1770   -9.3490 O.2    72  GLU72      -0.2715
    106  CB       -15.1320  102.2460  -10.6370 C.3    72  GLU72       0.0429
    107  CG       -14.1920  102.5040   -9.4670 C.3    72  GLU72       0.1163
    108  CD       -14.0000  103.9730   -9.1710 C.2    72  GLU72       0.3649
    109  OE1      -12.9070  104.3450   -8.6910 O.co2  72  GLU72      -0.2457
    110  OE2      -14.9410  104.7530   -9.4310 O.co2  72  GLU72      -0.2457
    111  N        -16.7900  100.6210   -8.1460 N.am   73  VAL73      -0.1963
    112  CA       -17.6990  100.7600   -7.0200 C.3    73  VAL73       0.1727
    113  C        -17.0690  101.3810   -5.7770 C.2    73  VAL73       0.2616
    114  O        -15.8490  101.3860   -5.6050 O.2    73  VAL73      -0.2715
    115  CB       -18.2880   99.4000   -6.6190 C.3    73  VAL73       0.0290
    116  CG1      -18.8980   98.7280   -7.8250 C.3    73  VAL73       0.0023
    117  CG2      -17.2180   98.5170   -6.0160 C.3    73  VAL73       0.0023
    118  N        -17.9420  101.8970   -4.9170 N.am   74  LEU74      -0.1963
    119  CA       -17.5960  102.3800   -3.5880 C.3    74  LEU74       0.1728
    120  C        -18.0290  101.3330   -2.5770 C.2    74  LEU74       0.2616
    121  O        -19.2240  100.9810   -2.5050 O.2    74  LEU74      -0.2715
    122  CB       -18.2890  103.7030   -3.2660 C.3    74  LEU74       0.0311
    123  CG       -18.4650  104.7160   -4.3810 C.3    74  LEU74       0.0022
    124  CD1      -18.9710  105.9990   -3.7710 C.3    74  LEU74       0.0001
    125  CD2      -17.1580  104.9410   -5.1170 C.3    74  LEU74       0.0001
    126  N        -17.0640  100.8330   -1.8100 N.am   75  MET75      -0.1977
    127  CA       -17.3400   99.8390   -0.7820 C.3    75  MET75       0.1605
    128  C        -17.9200  100.5230    0.4500 C.2    75  MET75       0.2287
    129  O        -17.8460  101.7380    0.5880 O.2    75  MET75      -0.2864
    130  CB       -16.0730   99.0640   -0.4650 C.3    75  MET75       0.0413
    131  CG       -15.4490   98.4980   -1.7240 C.3    75  MET75       0.0598
    132  SD       -14.0320   97.4360   -1.4430 S.3    75  MET75      -0.1393
    133  CE       -12.6850   98.5710   -1.7780 C.3    75  MET75       0.0692
    134  N        -18.3940  101.4470    4.4070 N.3    77  GLY77      -0.1225
    135  CA       -17.5650  101.5760    5.5830 C.3    77  GLY77       0.1811
    136  C        -18.1430  100.9180    6.8110 C.2    77  GLY77       0.2280
    137  O        -17.3980  100.3360    7.5960 O.2    77  GLY77      -0.2866
    138  N        -21.8120   97.4340   -2.2920 N.3    84  CYS84      -0.1235
    139  CA       -21.0320   98.3380   -3.1200 C.3    84  CYS84       0.1677
    140  C        -21.9780   99.1940   -3.9220 C.2    84  CYS84       0.2270
    141  O        -23.1080   98.7890   -4.1790 O.2    84  CYS84      -0.2867
    142  CB       -20.1180   97.5770   -4.0680 C.3    84  CYS84       0.0956
    143  SG       -19.0230   96.4150   -3.2930 S.3    84  CYS84      -0.0801
    144  N        -18.4910  110.7740   -1.7240 N.3   102  ALA102     -0.1231
    145  CA       -18.3850  109.5910   -0.8750 C.3   102  ALA102      0.1694
    146  C        -16.9710  109.0080   -0.9120 C.2   102  ALA102      0.2591
    147  O        -16.5000  108.4670    0.0840 O.2   102  ALA102     -0.2718
    148  CB       -19.3950  108.5490   -1.2830 C.3   102  ALA102      0.0304
    149  N        -16.3020  109.1230   -2.0600 N.am  103  ILE103     -0.1980
    150  CA       -14.9280  108.6460   -2.2170 C.3   103  ILE103      0.1595
    151  C        -14.0110  109.3680   -1.2380 C.2   103  ILE103      0.2287
    152  O        -13.1590  108.7510   -0.5870 O.2   103  ILE103     -0.2864
    153  CB       -14.4010  108.8570   -3.6670 C.3   103  ILE103      0.0276
    154  CG1      -15.1030  107.9140   -4.6530 C.3   103  ILE103      0.0022
    155  CG2      -12.8910  108.6500   -3.7380 C.3   103  ILE103      0.0022
    156  CD1      -14.7210  108.1360   -6.1230 C.3   103  ILE103      0.0001
    157  N        -14.9820  110.9840    1.4170 N.3   105  GLU105     -0.1231
    158  CA       -15.5090  110.9540    2.7790 C.3   105  GLU105      0.1699
    159  C        -15.0380  109.7050    3.5170 C.2   105  GLU105      0.2592
    160  O        -15.6550  108.6500    3.3910 O.2   105  GLU105     -0.2718
    161  CB       -17.0350  111.0070    2.7410 C.3   105  GLU105      0.0402
    162  CG       -17.7210  111.0010    4.0920 C.3   105  GLU105      0.1161
    163  CD       -19.2340  111.0060    3.9520 C.2   105  GLU105      0.3649
    164  OE1      -19.7100  111.2280    2.8160 O.co2 105  GLU105     -0.2457
    165  OE2      -19.9430  110.7800    4.9610 O.co2 105  GLU105     -0.2457
    166  N        -13.9630  109.8240    4.2990 N.am  106  ASP106     -0.1974
    167  CA       -13.2710  108.6340    4.8120 C.3   106  ASP106      0.1709
    168  C        -14.1520  107.7180    5.6680 C.2   106  ASP106      0.2293
    169  O        -14.1600  106.5060    5.4500 O.2   106  ASP106     -0.2864
    170  CB       -12.0140  109.0090    5.6040 C.3   106  ASP106      0.1436
    171  CG       -11.1890  107.7880    5.9820 C.2   106  ASP106      0.3671
    172  OD1      -11.5610  107.0840    6.9480 O.co2 106  ASP106     -0.2456
    173  OD2      -10.1770  107.5200    5.3010 O.co2 106  ASP106     -0.2456
    174  N        -17.4250  106.5200    5.5360 N.3   108  TRP108     -0.1241
    175  CA       -18.6300  106.5660    4.6970 C.3   108  TRP108      0.1605
    176  C        -19.6620  105.4770    4.9600 C.2   108  TRP108      0.2264
    177  O        -19.3320  104.3020    5.1420 O.2   108  TRP108     -0.2867
    178  CB       -18.2630  106.5100    3.2130 C.3   108  TRP108      0.0550
    179  CG       -19.4840  106.6120    2.3020 C.ar  108  TRP108      0.0003
    180  CD1      -20.2600  107.7220    2.0910 C.ar  108  TRP108      0.0946
    181  CD2      -20.0610  105.5670    1.4960 C.ar  108  TRP108      0.0152
    182  NE1      -21.2800  107.4320    1.2080 N.ar  108  TRP108     -0.2442
    183  CE2      -21.1790  106.1200    0.8280 C.ar  108  TRP108      0.0810
    184  CE3      -19.7430  104.2220    1.2740 C.ar  108  TRP108      0.0012
    185  CZ2      -21.9700  105.3780   -0.0410 C.ar  108  TRP108      0.0191
    186  CZ3      -20.5290  103.4890    0.4070 C.ar  108  TRP108      0.0001
    187  CH2      -21.6270  104.0700   -0.2420 C.ar  108  TRP108      0.0015
    188  N        -14.9510   83.8230  -11.8280 N.3   327  VAL327     -0.1245
    189  CA       -13.7570   83.5230  -12.6220 C.3   327  VAL327      0.1561
    190  C        -12.7580   82.5890  -11.9060 C.2   327  VAL327      0.2260
    191  O        -12.0980   81.7710  -12.5470 O.2   327  VAL327     -0.2867
    192  CB       -13.0430   84.8230  -13.0460 C.3   327  VAL327      0.0252
    193  CG1      -12.4410   85.5360  -11.8290 C.3   327  VAL327      0.0019
    194  CG2      -12.0020   84.5290  -14.1490 C.3   327  VAL327      0.0019
@<TRIPOS>BOND
     1   100    99    1
     2   101    99    1
     3    99    98    2
     4    98    97    1
     5    97    96    1
     6    96    95    1
     7    95    92    1
     8   194   192    1
     9     5     6    1
    10     5     2    1
    11     1     2    1
    12    92    91    1
    13    92    93    1
    14     2     3    1
    15    91    89   am
    16    87    88    1
    17    87    85   am
    18   192   189    1
    19   192   193    1
    20    89    88    1
    21    89    90    2
    22    84    85    1
    23    84    83    1
    24   189   190    1
    25   189   188    1
    26   191   190    2
    27    76    75    1
    28    93    94    2
    29    93   102   am
    30    85    86    2
    31     3     4    2
    32    80    79    2
    33    83    79   am
    34    73    75   ar
    35    73    71   ar
    36    75    74   ar
    37   102   103    1
    38    12    11    1
    39    79    78    1
    40    71    70   ar
    41    74    72   ar
    42   106   103    1
    43   106   107    1
    44    81    78    1
    45    81    82    1
    46   103   104    1
    47    78    77    1
    48    70    72   ar
    49    70    69    1
    50    11     8    1
    51    21    19   am
    52     7     8    1
    53    20    19    2
    54   107   108    1
    55   110   108   ar
    56    69    66    1
    57   105   104    2
    58   104   111   am
    59   108   109   ar
    60     8     9    1
    61    19    18    1
    62    66    67    1
    63    66    65    1
    64    62    61    2
    65   111   112    1
    66   116   115    1
    67     9    10    2
    68    18    17    1
    69    67    68    2
    70    61    65   am
    71    61    60    1
    72    63    60    1
    73    63    64    1
    74   112   115    1
    75   112   113    1
    76    17    14    1
    77   115   117    1
    78    28    27   ar
    79    60    59    1
    80   156   154    1
    81    29    27   ar
    82    27    26    1
    83   113   114    2
    84   113   118   am
    85    59    52   am
    86    14    13    1
    87    14    15    1
    88   125   123    1
    89   118   119    1
    90    16    15    2
    91   154   153    1
    92    53    52    2
    93    26    23    1
    94    52    51    1
    95   123   124    1
    96   123   122    1
    97   141   140    2
    98   142   143    1
    99   142   139    1
   100   140   139    1
   101    23    22    1
   102    23    24    1
   103   155   153    1
   104   153   150    1
   105   119   122    1
   106   119   120    1
   107    57    56    2
   108    54    51    1
   109    54    55    1
   110    51    50    1
   111   139   138    1
   112    24    25    2
   113    56    55    1
   114    56    58   am
   115   120   121    2
   116   120   126   am
   117    41    40    2
   118   150   149    1
   119   150   151    1
   120   149   146   am
   121    37    35   ar
   122    50    40   am
   123    36    35   ar
   124   126   127    1
   125   133   132    1
   126   144   145    1
   127   131   132    1
   128   131   130    1
   129    40    39    1
   130    35    34    1
   131   148   145    1
   132   151   152    2
   133    30    31    1
   134   146   145    1
   135   146   147    2
   136   127   130    1
   137   127   128    1
   138    34    31    1
   139    42    39    1
   140    42    43    1
   141    39    38    1
   142   187   185   ar
   143   187   186   ar
   144    31    32    1
   145   185   183   ar
   146   186   184   ar
   147   128   129    2
   148    43    45   ar
   149    43    44   ar
   150   183   182   ar
   151   183   181   ar
   152    32    33    2
   153    45    47   ar
   154   182   180   ar
   155   184   181   ar
   156    44    46   ar
   157   157   158    1
   158   181   179   ar
   159   180   179   ar
   160    47    48   ar
   161   179   178    1
   162    46    48   ar
   163   161   158    1
   164   161   162    1
   165   158   159    1
   166   164   163   ar
   167    48    49    1
   168   178   175    1
   169   160   159    2
   170   159   166   am
   171   163   162    1
   172   163   165   ar
   173   166   167    1
   174   134   135    1
   175   175   176    1
   176   175   174    1
   177   167   170    1
   178   167   168    1
   179   176   177    2
   180   173   171   ar
   181   169   168    2
   182   135   136    1
   183   170   171    1
   184   171   172   ar
   185   136   137    2
