@<TRIPOS>MOLECULE
tmp/4u7vB00.pdb
 101 95 0 0 0
SMALL
GASTEIGER

@<TRIPOS>ATOM
      1  N         20.1430   16.9860   13.2830 N.3    23  LEU23      -0.1245
      2  CA        19.5710   17.9360   12.4030 C.3    23  LEU23       0.1561
      3  C         19.0200   19.1070   13.1690 C.2    23  LEU23       0.2260
      4  O         18.1810   18.8840   14.0780 O.2    23  LEU23      -0.2867
      5  CB        18.4650   17.2310   11.6450 C.3    23  LEU23       0.0270
      6  CG        17.7050   17.7580   10.4830 C.3    23  LEU23       0.0019
      7  CD1       18.6560   18.0590    9.3670 C.3    23  LEU23       0.0001
      8  CD2       16.6560   16.7300   10.0900 C.3    23  LEU23       0.0001
      9  N         16.2750   21.4780   13.5160 N.3    25  ASP25      -0.1239
     10  CA        14.9790   21.2580   12.8960 C.3    25  ASP25       0.1674
     11  C         13.9670   22.2730   13.4560 C.2    25  ASP25       0.2266
     12  O         13.3240   22.0340   14.5090 O.2    25  ASP25      -0.2867
     13  CB        14.4470   19.8690   13.1030 C.3    25  ASP25       0.1410
     14  CG        13.0840   19.7100   12.4040 C.2    25  ASP25       0.3668
     15  OD1       12.7380   20.6290   11.6550 O.co2  25  ASP25      -0.2456
     16  OD2       12.6950   18.5570   12.4400 O.co2  25  ASP25      -0.2456
     17  N         11.0230   22.8310   12.4390 N.3    27  GLY27      -0.1210
     18  CA         9.6910   22.3360   12.4340 C.3    27  GLY27       0.1956
     19  C          9.3750   21.4520   13.5850 C.2    27  GLY27       0.2612
     20  O          8.1930   21.1060   13.7650 O.2    27  GLY27      -0.2717
     21  N         10.3590   21.0440   14.3690 N.am   28  ALA28      -0.1965
     22  CA        10.1720   20.1270   15.5150 C.3    28  ALA28       0.1728
     23  C         10.0260   20.9070   16.7920 C.2    28  ALA28       0.2616
     24  O         10.8540   21.7060   17.1470 O.2    28  ALA28      -0.2715
     25  CB        11.3590   19.1570   15.5810 C.3    28  ALA28       0.0334
     26  N          8.9260   20.6090   17.4790 N.am   29  ASP29      -0.1957
     27  CA         8.7370   21.2930   18.7920 C.3    29  ASP29       0.1840
     28  C          9.7230   20.7380   19.8380 C.2    29  ASP29       0.2622
     29  O         10.2540   21.5050   20.6750 O.2    29  ASP29      -0.2715
     30  CB         7.3440   21.1060   19.4050 C.3    29  ASP29       0.1450
     31  CG         6.2280   21.6680   18.5470 C.2    29  ASP29       0.3671
     32  OD1        6.4270   22.5980   17.7510 O.co2  29  ASP29      -0.2456
     33  OD2        5.1050   21.1150   18.7470 O.co2  29  ASP29      -0.2456
     34  N         10.0110   19.4690   19.7190 N.am   30  ASP30      -0.1971
     35  CA        10.7660   18.6960   20.6920 C.3    30  ASP30       0.1709
     36  C         12.0210   18.0660   20.0430 C.2    30  ASP30       0.2293
     37  O         12.1980   18.0350   18.8010 O.2    30  ASP30      -0.2864
     38  CB         9.8950   17.4780   21.1230 C.3    30  ASP30       0.1436
     39  CG         8.5670   17.8480   21.8660 C.2    30  ASP30       0.3671
     40  OD1        8.5500   18.8750   22.5510 O.co2  30  ASP30      -0.2456
     41  OD2        7.6270   17.0190   21.6240 O.co2  30  ASP30      -0.2456
     42  N         14.4000   14.8030   19.4940 N.3    32  VAL32      -0.1245
     43  CA        14.1840   13.3500   19.4370 C.3    32  VAL32       0.1561
     44  C         15.4490   12.7080   18.8930 C.2    32  VAL32       0.2260
     45  O         15.9270   13.0270   17.8270 O.2    32  VAL32      -0.2867
     46  CB        13.0120   12.8890   18.4910 C.3    32  VAL32       0.0252
     47  CG1       12.6330   11.4380   18.8350 C.3    32  VAL32       0.0019
     48  CG2       11.7920   13.7980   18.5450 C.3    32  VAL32       0.0019
     49  N          4.6950   10.4480   20.3490 N.3    47  ILE47      -0.1231
     50  CA         4.7990   11.6850   19.5790 C.3    47  ILE47       0.1692
     51  C          4.3910   11.4070   18.1630 C.2    47  ILE47       0.2593
     52  O          4.5760   10.3050   17.7090 O.2    47  ILE47      -0.2718
     53  CB         6.2110   12.3490   19.5880 C.3    47  ILE47       0.0266
     54  CG1        7.2520   11.4090   19.0010 C.3    47  ILE47       0.0019
     55  CG2        6.5450   12.8570   20.9750 C.3    47  ILE47       0.0020
     56  CD1        8.6250   12.0210   18.8170 C.3    47  ILE47       0.0001
     57  N          3.8400   12.4070   17.4880 N.am   48  GLY48      -0.1942
     58  CA         3.3730   12.1860   16.1380 C.3    48  GLY48       0.2014
     59  C          4.1280   13.0150   15.1180 C.2    48  GLY48       0.2639
     60  O          4.5770   14.1050   15.3900 O.2    48  GLY48      -0.2714
     61  N          4.2710   12.4590   13.9320 N.am   49  GLY49      -0.1939
     62  CA         4.9360   13.1280   12.8160 C.3    49  GLY49       0.2014
     63  C          4.2540   12.7460   11.5220 C.2    49  GLY49       0.2638
     64  O          3.1640   12.1990   11.4790 O.2    49  GLY49      -0.2714
     65  N          4.9800   12.9220   10.4320 N.am   50  ILE50      -0.1977
     66  CA         4.4380   12.4590    9.1700 C.3    50  ILE50       0.1596
     67  C          4.5620   10.9340    9.2570 C.2    50  ILE50       0.2287
     68  O          5.6360   10.3810    9.6120 O.2    50  ILE50      -0.2864
     69  CB         5.1980   13.1260    7.9950 C.3    50  ILE50       0.0276
     70  CG1        4.3050   14.2810    7.5310 C.3    50  ILE50       0.0022
     71  CG2        5.4230   12.1950    6.8400 C.3    50  ILE50       0.0022
     72  CD1        4.9620   15.2690    6.6300 C.3    50  ILE50       0.0001
     73  N         13.4340    7.0480   16.0060 N.3    80  THR80      -0.1204
     74  CA        13.4810    8.0310   14.9510 C.3    80  THR80       0.1979
     75  C         14.3810    7.6880   13.7120 C.2    80  THR80       0.2460
     76  O         15.4830    7.2490   13.8490 O.2    80  THR80      -0.2732
     77  CB        13.8160    9.4450   15.5010 C.3    80  THR80       0.1783
     78  OG1       13.8680   10.3280   14.4000 O.3    80  THR80      -0.2211
     79  CG2       15.0690    9.5180   16.2540 C.3    80  THR80       0.0376
     80  N         13.9420    8.0180   12.4780 N.am   81  PRO81      -0.2717
     81  CA        14.9360    7.8300   11.3710 C.3    81  PRO81       0.1535
     82  C         16.2280    8.7540   11.4060 C.2    81  PRO81       0.2598
     83  O         17.1630    8.5070   10.6180 O.2    81  PRO81      -0.2715
     84  CB        14.1470    8.0400   10.1010 C.3    81  PRO81       0.0310
     85  CG        12.8730    8.6170   10.5470 C.3    81  PRO81       0.0237
     86  CD        12.6260    8.4080   11.9930 C.3    81  PRO81       0.0939
     87  N         16.2890    9.7640   12.2970 N.am   82  VAL82      -0.1978
     88  CA        17.2840   10.8550   12.2540 C.3    82  VAL82       0.1596
     89  C         17.3270   11.5080   13.6560 C.2    82  VAL82       0.2287
     90  O         16.2520   11.6500   14.2900 O.2    82  VAL82      -0.2864
     91  CB        16.8600   11.9440   11.2540 C.3    82  VAL82       0.0276
     92  CG1       18.0440   12.8370   10.8960 C.3    82  VAL82       0.0022
     93  CG2       16.2650   11.3490    9.9760 C.3    82  VAL82       0.0022
     94  N         17.0940   14.6310   15.8710 N.3    84  ILE84      -0.1245
     95  CA        16.4650   15.9300   15.6120 C.3    84  ILE84       0.1561
     96  C         16.6380   16.8200   16.8050 C.2    84  ILE84       0.2260
     97  O         16.2080   16.4590   17.9020 O.2    84  ILE84      -0.2867
     98  CB        14.9740   15.6480   15.2830 C.3    84  ILE84       0.0252
     99  CG1       14.8370   14.8230   14.0150 C.3    84  ILE84       0.0019
    100  CG2       14.1680   16.9150   15.3560 C.3    84  ILE84       0.0019
    101  CD1       13.4760   14.2260   13.8100 C.3    84  ILE84       0.0001
@<TRIPOS>BOND
     1    72    70    1
     2    71    69    1
     3    70    69    1
     4    69    66    1
     5    66    67    1
     6    66    65    1
     7    67    68    2
     8     7     6    1
     9    93    91    1
    10     8     6    1
    11    84    85    1
    12    84    81    1
    13    65    63   am
    14     6     5    1
    15    85    86    1
    16    83    82    2
    17    92    91    1
    18    91    88    1
    19    81    82    1
    20    81    80    1
    21    82    87   am
    22    64    63    2
    23    63    62    1
    24     5     2    1
    25    15    14   ar
    26    86    80    1
    27    88    87    1
    28    88    89    1
    29     2     3    1
    30     2     1    1
    31    14    16   ar
    32    14    13    1
    33    18    17    1
    34    18    19    1
    35    80    75   am
    36    62    61    1
    37    10    13    1
    38    10    11    1
    39    10     9    1
    40     3     4    2
    41    11    12    2
    42    19    20    2
    43    19    21   am
    44    89    90    2
    45    75    76    2
    46    75    74    1
    47   101    99    1
    48    61    59   am
    49    99    98    1
    50    21    22    1
    51    78    77    1
    52    74    77    1
    53    74    73    1
    54    59    60    2
    55    59    58    1
    56    98   100    1
    57    98    95    1
    58    77    79    1
    59    22    25    1
    60    22    23    1
    61    95    94    1
    62    95    96    1
    63    58    57    1
    64    23    24    2
    65    23    26   am
    66    96    97    2
    67    26    27    1
    68    57    51   am
    69    52    51    2
    70    32    31   ar
    71    45    44    2
    72    51    50    1
    73    46    48    1
    74    46    47    1
    75    46    43    1
    76    31    33   ar
    77    31    30    1
    78    27    30    1
    79    27    28    1
    80    37    36    2
    81    56    54    1
    82    44    43    1
    83    54    53    1
    84    43    42    1
    85    50    53    1
    86    50    49    1
    87    53    55    1
    88    34    28   am
    89    34    35    1
    90    28    29    2
    91    36    35    1
    92    35    38    1
    93    38    39    1
    94    41    39   ar
    95    39    40   ar
