@<TRIPOS>MOLECULE
tmp/4u7zA00.pdb
 189 176 0 0 0
SMALL
GASTEIGER

@<TRIPOS>ATOM
      1  N        -21.1740   28.8190   16.3880 N.3    17  GLY17      -0.1210
      2  CA       -21.0610   29.0650   14.9780 C.3    17  GLY17       0.1956
      3  C        -21.9580   30.2220   14.6390 C.2    17  GLY17       0.2612
      4  O        -23.1510   30.1870   14.9340 O.2    17  GLY17      -0.2717
      5  N        -21.3650   31.2580   14.0640 N.am   18  ASN18      -0.1960
      6  CA       -22.0900   32.3150   13.3500 C.3    18  ASN18       0.1819
      7  C        -23.3870   32.8440   13.9470 C.2    18  ASN18       0.2622
      8  O        -24.4770   32.5190   13.4750 O.2    18  ASN18      -0.2715
      9  CB       -22.3200   31.9140   11.8880 C.3    18  ASN18       0.1195
     10  CG       -21.0460   31.9490   11.0780 C.2    18  ASN18       0.2630
     11  OD1      -19.9530   32.0720   11.6320 O.2    18  ASN18      -0.2716
     12  ND2      -21.1750   31.8420    9.7630 N.am   18  ASN18      -0.0877
     13  N        -23.2580   33.6850   14.9640 N.am   19  GLY19      -0.1940
     14  CA       -24.4030   34.3890   15.5030 C.3    19  GLY19       0.2014
     15  C        -24.9890   33.7090   16.7150 C.2    19  GLY19       0.2639
     16  O        -25.8270   34.2950   17.4060 O.2    19  GLY19      -0.2714
     17  N        -24.5470   32.4810   16.9820 N.am   20  GLY20      -0.1954
     18  CA       -25.0510   31.7340   18.1210 C.3    20  GLY20       0.1869
     19  C        -24.0740   30.7880   18.7930 C.2    20  GLY20       0.2309
     20  O        -23.1730   30.2370   18.1670 O.2    20  GLY20      -0.2863
     21  N        -29.5940   27.8070   23.3570 N.3    37  LYS37      -0.1245
     22  CA       -28.8810   28.6110   22.3630 C.3    37  LYS37       0.1561
     23  C        -28.9730   30.0700   22.7310 C.2    37  LYS37       0.2260
     24  O        -30.0710   30.6000   22.9050 O.2    37  LYS37      -0.2867
     25  CB       -29.4630   28.4260   20.9600 C.3    37  LYS37       0.0271
     26  CG       -28.6240   29.0760   19.8570 C.3    37  LYS37       0.0035
     27  CD       -29.3410   29.1040   18.5060 C.3    37  LYS37       0.0206
     28  CE       -29.2320   27.7830   17.7400 C.3    37  LYS37       0.1093
     29  NZ       -28.1120   27.7750   16.7480 N.3    37  LYS37      -0.1314
     30  N        -28.3020   33.8590   21.3620 N.3    39  ILE39      -0.1245
     31  CA       -28.0690   34.6400   20.1500 C.3    39  ILE39       0.1561
     32  C        -27.8870   36.1240   20.4540 C.2    39  ILE39       0.2260
     33  O        -28.8460   36.7980   20.8310 O.2    39  ILE39      -0.2867
     34  CB       -29.2350   34.5070   19.1600 C.3    39  ILE39       0.0252
     35  CG1      -29.4620   33.0380   18.7840 C.3    39  ILE39       0.0019
     36  CG2      -28.9790   35.3780   17.9260 C.3    39  ILE39       0.0019
     37  CD1      -30.5390   32.8180   17.7270 C.3    39  ILE39       0.0001
     38  N        -41.2860   33.5030   18.4760 N.3    55  LEU55      -0.1245
     39  CA       -40.6000   32.2420   18.7360 C.3    55  LEU55       0.1561
     40  C        -41.4900   31.2910   19.4750 C.2    55  LEU55       0.2260
     41  O        -41.2390   30.0890   19.4780 O.2    55  LEU55      -0.2867
     42  CB       -39.3400   32.4750   19.5600 C.3    55  LEU55       0.0270
     43  CG       -38.1690   32.9530   18.7220 C.3    55  LEU55       0.0019
     44  CD1      -36.9310   33.1950   19.5580 C.3    55  LEU55       0.0001
     45  CD2      -37.9260   31.8930   17.6810 C.3    55  LEU55       0.0001
     46  N        -42.9710   27.8490   18.3510 N.3    58  LEU58      -0.1245
     47  CA       -42.2160   26.6370   18.5430 C.3    58  LEU58       0.1561
     48  C        -42.8880   25.7110   19.5490 C.2    58  LEU58       0.2260
     49  O        -42.6510   24.5010   19.5250 O.2    58  LEU58      -0.2867
     50  CB       -40.7920   26.9570   18.9860 C.3    58  LEU58       0.0270
     51  CG       -39.8910   27.5940   17.9360 C.3    58  LEU58       0.0019
     52  CD1      -38.5370   27.8880   18.5340 C.3    58  LEU58       0.0001
     53  CD2      -39.7550   26.6990   16.7120 C.3    58  LEU58       0.0001
     54  N        -37.0370   19.0820   16.4670 N.3    67  VAL67      -0.1245
     55  CA       -36.4480   19.2400   17.7990 C.3    67  VAL67       0.1561
     56  C        -37.3700   19.9140   18.8130 C.2    67  VAL67       0.2260
     57  O        -37.9880   20.9330   18.5240 O.2    67  VAL67      -0.2867
     58  CB       -35.1280   20.0320   17.7400 C.3    67  VAL67       0.0252
     59  CG1      -34.6350   20.3730   19.1400 C.3    67  VAL67       0.0019
     60  CG2      -34.0700   19.2550   16.9700 C.3    67  VAL67       0.0019
     61  N        -39.0460   21.9910   21.7720 N.3    69  PHE69      -0.1241
     62  CA       -38.8530   23.3410   22.2760 C.3    69  PHE69       0.1605
     63  C        -39.2870   23.4230   23.7310 C.2    69  PHE69       0.2264
     64  O        -40.3150   22.8610   24.1130 O.2    69  PHE69      -0.2867
     65  CB       -39.6730   24.3030   21.4350 C.3    69  PHE69       0.0534
     66  CG       -39.6800   25.7140   21.9410 C.ar   69  PHE69      -0.0203
     67  CD1      -40.8010   26.2310   22.5610 C.ar   69  PHE69      -0.0042
     68  CD2      -38.5800   26.5400   21.7610 C.ar   69  PHE69      -0.0042
     69  CE1      -40.8160   27.5450   23.0040 C.ar   69  PHE69      -0.0003
     70  CE2      -38.5890   27.8540   22.2020 C.ar   69  PHE69      -0.0003
     71  CZ       -39.7140   28.3580   22.8150 C.ar   69  PHE69      -0.0000
     72  N        -32.9220   30.3670   23.2800 N.3    81  ILE81      -0.1245
     73  CA       -33.8890   29.3780   22.8710 C.3    81  ILE81       0.1561
     74  C        -33.4640   28.1010   23.5590 C.2    81  ILE81       0.2260
     75  O        -32.3210   27.6600   23.4500 O.2    81  ILE81      -0.2867
     76  CB       -33.9570   29.2340   21.3470 C.3    81  ILE81       0.0252
     77  CG1      -34.2390   30.6000   20.7210 C.3    81  ILE81       0.0019
     78  CG2      -35.0410   28.2580   20.9550 C.3    81  ILE81       0.0019
     79  CD1      -34.3790   30.5730   19.2350 C.3    81  ILE81       0.0001
     80  N        -33.9120   24.1180   24.1000 N.3    83  MET83      -0.1245
     81  CA       -34.4270   22.9930   23.3430 C.3    83  MET83       0.1570
     82  C        -33.9370   21.6720   23.8780 C.2    83  MET83       0.2261
     83  O        -32.9640   21.6000   24.6370 O.2    83  MET83      -0.2867
     84  CB       -34.0270   23.1300   21.8890 C.3    83  MET83       0.0387
     85  CG       -32.6070   23.5380   21.7620 C.3    83  MET83       0.0595
     86  SD       -32.0850   23.7190   20.0680 S.3    83  MET83      -0.1393
     87  CE       -30.6840   24.8250   20.3230 C.3    83  MET83       0.0692
     88  N        -35.1350   27.1590    5.5500 N.3   129  ARG129     -0.1231
     89  CA       -34.2220   28.2640    5.2020 C.3   129  ARG129      0.1694
     90  C        -32.7600   28.0260    5.5020 C.2   129  ARG129      0.2592
     91  O        -31.9330   28.7300    4.9770 O.2   129  ARG129     -0.2718
     92  CB       -34.6170   29.5960    5.8190 C.3   129  ARG129      0.0321
     93  CG       -36.0610   29.9270    5.7250 C.3   129  ARG129      0.0489
     94  CD       -36.3060   31.2980    6.2670 C.3   129  ARG129      0.2205
     95  NE       -35.8120   32.3020    5.3570 N.pl3 129  ARG129     -0.0865
     96  CZ       -36.5900   32.9300    4.4960 C.cat 129  ARG129      0.5346
     97  NH1      -37.8920   32.6490    4.4610 N.pl3 129  ARG129      0.1354
     98  NH2      -36.0710   33.8430    3.6900 N.pl3 129  ARG129      0.1354
     99  N        -32.4470   27.0500    6.3400 N.am  130  ASP130     -0.1974
    100  CA       -31.0690   26.7690    6.6800 C.3   130  ASP130      0.1709
    101  C        -30.8920   25.2470    6.8400 C.2   130  ASP130      0.2293
    102  O        -30.4820   24.7470    7.8890 O.2   130  ASP130     -0.2864
    103  CB       -30.7100   27.5160    7.9580 C.3   130  ASP130      0.1436
    104  CG       -29.2170   27.5870    8.2060 C.2   130  ASP130      0.3671
    105  OD1      -28.8380   27.9650    9.3380 O.co2 130  ASP130     -0.2456
    106  OD2      -28.4260   27.2700    7.2900 O.co2 130  ASP130     -0.2456
    107  N        -28.8070   22.1110    6.4160 N.3   132  LYS132     -0.1245
    108  CA       -27.4390   21.6350    6.2260 C.3   132  LYS132      0.1561
    109  C        -27.1660   20.6680    7.3780 C.2   132  LYS132      0.2260
    110  O        -27.9670   20.5730    8.2990 O.2   132  LYS132     -0.2867
    111  CB       -26.4640   22.8020    6.2470 C.3   132  LYS132      0.0271
    112  CG       -26.4570   23.5410    7.5740 C.3   132  LYS132      0.0035
    113  CD       -25.8840   24.9270    7.4360 C.3   132  LYS132      0.0206
    114  CE       -25.4560   25.4280    8.7940 C.3   132  LYS132      0.1093
    115  NZ       -25.3200   26.9150    8.8270 N.3   132  LYS132     -0.1314
    116  N        -27.6890   21.3560   11.1940 N.3   135  ASN135     -0.1240
    117  CA       -29.0350   21.6360   11.6880 C.3   135  ASN135      0.1653
    118  C        -29.9560   20.4340   11.5470 C.2   135  ASN135      0.2266
    119  O        -31.1780   20.5770   11.5570 O.2   135  ASN135     -0.2867
    120  CB       -29.6520   22.8860   11.0480 C.3   135  ASN135      0.1155
    121  CG       -28.8810   24.1580   11.3730 C.2   135  ASN135      0.2627
    122  OD1      -28.2830   24.2840   12.4450 O.2   135  ASN135     -0.2716
    123  ND2      -28.8790   25.1060   10.4350 N.am  135  ASN135     -0.0877
    124  N        -33.6290   21.4100   13.2280 N.3   147  CYS147     -0.1221
    125  CA       -33.6680   22.5790   14.1160 C.3   147  CYS147      0.1808
    126  C        -33.2860   23.8210   13.3550 C.2   147  CYS147      0.2601
    127  O        -33.0690   23.7650   12.1340 O.2   147  CYS147     -0.2717
    128  CB       -32.7310   22.4200   15.3140 C.3   147  CYS147      0.0970
    129  SG       -31.0060   22.2090   14.8590 S.3   147  CYS147     -0.0800
    130  N        -33.2010   24.9350   14.0790 N.am  148  ASP148     -0.1959
    131  CA       -32.7100   26.1730   13.5040 C.3   148  ASP148      0.1840
    132  C        -33.4780   26.5100   12.2100 C.2   148  ASP148      0.2622
    133  O        -32.8960   26.9650   11.2400 O.2   148  ASP148     -0.2715
    134  CB       -31.1910   26.0790   13.2470 C.3   148  ASP148      0.1450
    135  CG       -30.3670   25.9220   14.5380 C.2   148  ASP148      0.3671
    136  OD1      -30.9390   25.7340   15.6370 O.co2 148  ASP148     -0.2456
    137  OD2      -29.1240   25.9710   14.4490 O.co2 148  ASP148     -0.2456
    138  N        -34.7820   26.2620   12.1890 N.am  149  PHE149     -0.1960
    139  CA       -35.5890   26.6710   11.0490 C.3   149  PHE149      0.1771
    140  C        -36.1980   28.0440   11.2960 C.2   149  PHE149      0.2620
    141  O        -36.2780   28.5100   12.4200 O.2   149  PHE149     -0.2715
    142  CB       -36.6660   25.6410   10.6940 C.3   149  PHE149      0.0574
    143  CG       -37.4030   25.0950   11.8770 C.ar  149  PHE149     -0.0200
    144  CD1      -38.5240   25.7300   12.3710 C.ar  149  PHE149     -0.0042
    145  CD2      -36.9720   23.9300   12.4950 C.ar  149  PHE149     -0.0042
    146  CE1      -39.1910   25.2230   13.4640 C.ar  149  PHE149     -0.0003
    147  CE2      -37.6390   23.4160   13.5850 C.ar  149  PHE149     -0.0003
    148  CZ       -38.7500   24.0630   14.0710 C.ar  149  PHE149     -0.0000
    149  N        -36.6250   28.6960   10.2260 N.am  150  GLY150     -0.1940
    150  CA       -37.0200   30.0880   10.3170 C.3   150  GLY150      0.2014
    151  C        -38.4250   30.3020   10.8250 C.2   150  GLY150      0.2639
    152  O        -39.3160   30.6610   10.0560 O.2   150  GLY150     -0.2714
    153  N        -38.6250   30.0980   12.1210 N.am  151  VAL151     -0.1963
    154  CA       -39.9460   30.2570   12.6950 C.3   151  VAL151      0.1727
    155  C        -40.3430   31.7150   12.8930 C.2   151  VAL151      0.2616
    156  O        -41.5270   32.0320   12.8160 O.2   151  VAL151     -0.2715
    157  CB       -40.1090   29.4640   14.0170 C.3   151  VAL151      0.0290
    158  CG1      -38.9270   29.6890   14.9460 C.3   151  VAL151      0.0023
    159  CG2      -41.3920   29.8550   14.7000 C.3   151  VAL151      0.0023
    160  N        -39.3820   32.6000   13.1570 N.am  152  SER152     -0.1950
    161  CA       -39.7490   33.9830   13.4470 C.3   152  SER152      0.1924
    162  C        -39.3050   34.9180   12.3500 C.2   152  SER152      0.2314
    163  O        -38.1140   35.0230   12.0610 O.2   152  SER152     -0.2863
    164  CB       -39.1650   34.4570   14.7820 C.3   152  SER152      0.2116
    165  OG       -39.0120   35.8720   14.7870 O.3   152  SER152     -0.2180
    166  N        -36.7920   37.5700   13.2210 N.3   155  LEU155     -0.1231
    167  CA       -35.4480   37.0400   13.4230 C.3   155  LEU155      0.1693
    168  C        -34.7780   36.9130   12.0750 C.2   155  LEU155      0.2591
    169  O        -33.6020   37.2450   11.9200 O.2   155  LEU155     -0.2718
    170  CB       -35.4740   35.6840   14.1190 C.3   155  LEU155      0.0284
    171  CG       -34.6280   35.5170   15.3820 C.3   155  LEU155      0.0019
    172  CD1      -34.3810   34.0590   15.6220 C.3   155  LEU155      0.0001
    173  CD2      -33.3120   36.2760   15.3310 C.3   155  LEU155      0.0001
    174  N        -35.5420   36.4170   11.1060 N.am  156  ILE156     -0.1980
    175  CA       -35.1230   36.4120    9.7170 C.3   156  ILE156      0.1595
    176  C        -34.5330   37.7740    9.3420 C.2   156  ILE156      0.2287
    177  O        -33.4290   37.8420    8.7800 O.2   156  ILE156     -0.2864
    178  CB       -36.2940   36.0600    8.8030 C.3   156  ILE156      0.0276
    179  CG1      -36.8070   34.6670    9.1550 C.3   156  ILE156      0.0022
    180  CG2      -35.8770   36.0930    7.3560 C.3   156  ILE156      0.0022
    181  CD1      -37.9100   34.1740    8.2760 C.3   156  ILE156      0.0001
    182  N        -31.2560   38.9230   11.4580 N.3   159  MET159     -0.1245
    183  CA       -30.0470   38.1520   11.2330 C.3   159  MET159      0.1570
    184  C        -29.5810   38.3220    9.7970 C.2   159  MET159      0.2261
    185  O        -28.5690   37.7430    9.3920 O.2   159  MET159     -0.2867
    186  CB       -30.2690   36.6710   11.5600 C.3   159  MET159      0.0387
    187  CG       -30.7480   36.4180   12.9830 C.3   159  MET159      0.0595
    188  SD       -30.3840   34.7660   13.6050 S.3   159  MET159     -0.1393
    189  CE       -28.6090   34.9010   13.7820 C.3   159  MET159      0.0692
@<TRIPOS>BOND
     1    98    96    1
     2    97    96    1
     3    96    95    2
     4    91    90    2
     5    89    90    1
     6    89    88    1
     7    89    92    1
     8    95    94    1
     9    90    99   am
    10    93    92    1
    11    93    94    1
    12   108   111    1
    13   108   107    1
    14   108   109    1
    15   111   112    1
    16    99   100    1
    17   100   101    1
    18   100   103    1
    19   101   102    2
    20   106   104   ar
    21   180   178    1
    22   109   110    2
    23   113   112    1
    24   113   114    1
    25   103   104    1
    26   104   105   ar
    27   181   179    1
    28   177   176    2
    29   114   115    1
    30   178   179    1
    31   178   175    1
    32   176   175    1
    33   185   184    2
    34   175   174    1
    35    12    10   am
    36   184   183    1
    37   152   151    2
    38   149   150    1
    39   149   140   am
    40   150   151    1
    41   123   121   am
    42   142   139    1
    43   142   143    1
    44   151   153   am
    45   120   121    1
    46   120   117    1
    47   139   140    1
    48   139   138    1
    49    10    11    2
    50    10     9    1
    51   174   168   am
    52   116   117    1
    53   183   182    1
    54   183   186    1
    55   133   132    2
    56   140   141    2
    57   121   122    2
    58   118   119    2
    59   118   117    1
    60   186   187    1
    61   143   144   ar
    62   143   145   ar
    63     9     6    1
    64   169   168    2
    65   163   162    2
    66   168   167    1
    67   153   154    1
    68   127   126    2
    69   138   132   am
    70   132   131    1
    71   162   161    1
    72   144   146   ar
    73   145   147   ar
    74   154   155    1
    75   154   157    1
    76   156   155    2
    77   155   160   am
    78   187   188    1
    79   160   161    1
    80   166   167    1
    81   124   125    1
    82   134   131    1
    83   134   135    1
    84     6     7    1
    85     6     5    1
    86   126   130   am
    87   126   125    1
    88   167   170    1
    89   161   164    1
    90   146   148   ar
    91     8     7    2
    92   131   130    1
    93   147   148   ar
    94   188   189    1
    95     7    13   am
    96   157   159    1
    97   157   158    1
    98     5     3   am
    99   125   128    1
   100   170   171    1
   101   137   135   ar
   102   135   136   ar
   103     3     4    2
   104     3     2    1
   105   164   165    1
   106   129   128    1
   107    13    14    1
   108     2     1    1
   109   173   171    1
   110   171   172    1
   111    14    15    1
   112    54    55    1
   113    53    51    1
   114    15    17   am
   115    15    16    2
   116    29    28    1
   117    60    58    1
   118    17    18    1
   119    45    43    1
   120    37    35    1
   121    28    27    1
   122    58    55    1
   123    58    59    1
   124    55    56    1
   125    36    34    1
   126    51    52    1
   127    51    50    1
   128    18    19    1
   129    20    19    2
   130    46    47    1
   131    38    39    1
   132    27    26    1
   133    57    56    2
   134    47    50    1
   135    47    48    1
   136    43    44    1
   137    43    42    1
   138    39    40    1
   139    39    42    1
   140    35    34    1
   141    34    31    1
   142    79    77    1
   143    40    41    2
   144    49    48    2
   145    26    25    1
   146    86    87    1
   147    86    85    1
   148    31    32    1
   149    31    30    1
   150    32    33    2
   151    77    76    1
   152    78    76    1
   153    25    22    1
   154    76    73    1
   155    65    66    1
   156    65    62    1
   157    68    66   ar
   158    68    70   ar
   159    85    84    1
   160    61    62    1
   161    84    81    1
   162    66    67   ar
   163    70    71   ar
   164    62    63    1
   165    22    23    1
   166    22    21    1
   167    67    69   ar
   168    23    24    2
   169    71    69   ar
   170    73    72    1
   171    73    74    1
   172    81    82    1
   173    81    80    1
   174    75    74    2
   175    63    64    2
   176    82    83    2
