@<TRIPOS>MOLECULE
tmp/4u7zA01.pdb
 176 163 0 0 0
SMALL
GASTEIGER

@<TRIPOS>ATOM
      1  N        -21.9230   22.9460   23.8340 N.3    14  LEU14      -0.1231
      2  CA       -22.1730   21.9830   22.7590 C.3    14  LEU14       0.1693
      3  C        -21.5540   22.4790   21.4580 C.2    14  LEU14       0.2593
      4  O        -21.3490   21.7150   20.5280 O.2    14  LEU14      -0.2718
      5  CB       -23.6680   21.7020   22.5970 C.3    14  LEU14       0.0284
      6  CG       -24.2880   20.9990   23.8130 C.3    14  LEU14       0.0019
      7  CD1      -25.8040   21.2380   23.9270 C.3    14  LEU14       0.0001
      8  CD2      -23.9630   19.4950   23.8170 C.3    14  LEU14       0.0001
      9  N        -21.2300   23.7630   21.4100 N.am   15  GLY15      -0.1942
     10  CA       -20.5530   24.3110   20.2620 C.3    15  GLY15       0.2014
     11  C        -21.0830   25.6800   19.9280 C.2    15  GLY15       0.2639
     12  O        -21.9520   26.2060   20.6220 O.2    15  GLY15      -0.2714
     13  N        -20.5480   26.2540   18.8550 N.am   16  ALA16      -0.1963
     14  CA       -20.9670   27.5640   18.4040 C.3    16  ALA16       0.1728
     15  C        -20.9620   27.6200   16.8960 C.2    16  ALA16       0.2617
     16  O        -20.7710   26.6160   16.2110 O.2    16  ALA16      -0.2715
     17  CB       -20.0540   28.6260   18.9570 C.3    16  ALA16       0.0334
     18  N        -21.1740   28.8190   16.3880 N.am   17  GLY17      -0.1940
     19  CA       -21.0610   29.0650   14.9780 C.3    17  GLY17       0.2014
     20  C        -21.9580   30.2220   14.6390 C.2    17  GLY17       0.2638
     21  O        -23.1510   30.1870   14.9340 O.2    17  GLY17      -0.2714
     22  N        -21.3650   31.2580   14.0640 N.am   18  ASN18      -0.1972
     23  CA       -22.0900   32.3150   13.3500 C.3    18  ASN18       0.1688
     24  C        -23.3870   32.8440   13.9470 C.2    18  ASN18       0.2292
     25  O        -24.4770   32.5190   13.4750 O.2    18  ASN18      -0.2864
     26  CB       -22.3200   31.9140   11.8880 C.3    18  ASN18       0.1181
     27  CG       -21.0460   31.9490   11.0780 C.2    18  ASN18       0.2629
     28  OD1      -19.9530   32.0720   11.6320 O.2    18  ASN18      -0.2716
     29  ND2      -21.1750   31.8420    9.7630 N.am   18  ASN18      -0.0877
     30  N        -24.5470   32.4810   16.9820 N.3    20  GLY20      -0.1225
     31  CA       -25.0510   31.7340   18.1210 C.3    20  GLY20       0.1811
     32  C        -24.0740   30.7880   18.7930 C.2    20  GLY20       0.2280
     33  O        -23.1730   30.2370   18.1670 O.2    20  GLY20      -0.2866
     34  N        -24.4310   27.4780   21.7180 N.3    22  VAL22      -0.1245
     35  CA       -25.3700   26.6650   22.4580 C.3    22  VAL22       0.1561
     36  C        -24.6690   25.8780   23.5520 C.2    22  VAL22       0.2260
     37  O        -23.5910   25.3110   23.3430 O.2    22  VAL22      -0.2867
     38  CB       -26.2340   25.7810   21.5240 C.3    22  VAL22       0.0252
     39  CG1      -25.7430   25.8480   20.0680 C.3    22  VAL22       0.0019
     40  CG2      -26.3260   24.3620   22.0450 C.3    22  VAL22       0.0019
     41  N        -30.6660   22.0690   25.9150 N.3    35  ALA35      -0.1245
     42  CA       -29.7040   22.7900   25.0930 C.3    35  ALA35       0.1562
     43  C        -30.2160   24.1940   24.9870 C.2    35  ALA35       0.2260
     44  O        -31.3540   24.4270   24.5730 O.2    35  ALA35      -0.2867
     45  CB       -29.5920   22.1630   23.7080 C.3    35  ALA35       0.0290
     46  N        -29.5940   27.8070   23.3570 N.3    37  LYS37      -0.1245
     47  CA       -28.8810   28.6110   22.3630 C.3    37  LYS37       0.1561
     48  C        -28.9730   30.0700   22.7310 C.2    37  LYS37       0.2260
     49  O        -30.0710   30.6000   22.9050 O.2    37  LYS37      -0.2867
     50  CB       -29.4630   28.4260   20.9600 C.3    37  LYS37       0.0271
     51  CG       -28.6240   29.0760   19.8570 C.3    37  LYS37       0.0035
     52  CD       -29.3410   29.1040   18.5060 C.3    37  LYS37       0.0206
     53  CE       -29.2320   27.7830   17.7400 C.3    37  LYS37       0.1093
     54  NZ       -28.1120   27.7750   16.7480 N.3    37  LYS37      -0.1314
     55  N        -37.0370   19.0820   16.4670 N.3    67  VAL67      -0.1245
     56  CA       -36.4480   19.2400   17.7990 C.3    67  VAL67       0.1561
     57  C        -37.3700   19.9140   18.8130 C.2    67  VAL67       0.2260
     58  O        -37.9880   20.9330   18.5240 O.2    67  VAL67      -0.2867
     59  CB       -35.1280   20.0320   17.7400 C.3    67  VAL67       0.0252
     60  CG1      -34.6350   20.3730   19.1400 C.3    67  VAL67       0.0019
     61  CG2      -34.0700   19.2550   16.9700 C.3    67  VAL67       0.0019
     62  N        -33.9120   24.1180   24.1000 N.3    83  MET83      -0.1230
     63  CA       -34.4270   22.9930   23.3430 C.3    83  MET83       0.1702
     64  C        -33.9370   21.6720   23.8780 C.2    83  MET83       0.2592
     65  O        -32.9640   21.6000   24.6370 O.2    83  MET83      -0.2718
     66  CB       -34.0270   23.1300   21.8890 C.3    83  MET83       0.0401
     67  CG       -32.6070   23.5380   21.7620 C.3    83  MET83       0.0596
     68  SD       -32.0850   23.7190   20.0680 S.3    83  MET83      -0.1393
     69  CE       -30.6840   24.8250   20.3230 C.3    83  MET83       0.0692
     70  N        -34.6660   20.6360   23.4810 N.am   84  GLU84      -0.1966
     71  CA       -34.2620   19.2500   23.6330 C.3    84  GLU84       0.1733
     72  C        -32.7740   19.0850   23.4530 C.2    84  GLU84       0.2616
     73  O        -32.2220   19.4860   22.4450 O.2    84  GLU84      -0.2715
     74  CB       -34.9720   18.4230   22.5800 C.3    84  GLU84       0.0429
     75  CG       -34.6600   16.9620   22.6310 C.3    84  GLU84       0.1163
     76  CD       -35.6420   16.1530   21.8020 C.2    84  GLU84       0.3649
     77  OE1      -35.6050   14.9070   21.8980 O.co2  84  GLU84      -0.2457
     78  OE2      -36.4420   16.7670   21.0540 O.co2  84  GLU84      -0.2457
     79  N        -32.1130   18.5150   24.4440 N.am   85  HIS85      -0.1959
     80  CA       -30.7370   18.1090   24.2450 C.3    85  HIS85       0.1787
     81  C        -30.7020   16.8520   23.3650 C.2    85  HIS85       0.2620
     82  O        -31.4320   15.8920   23.6050 O.2    85  HIS85      -0.2715
     83  CB       -30.0630   17.8470   25.5790 C.3    85  HIS85       0.0785
     84  CG       -28.6960   17.2570   25.4490 C.ar   85  HIS85       0.0821
     85  ND1      -28.3570   16.0370   25.9910 N.ar   85  HIS85      -0.2267
     86  CD2      -27.5850   17.7140   24.8240 C.ar   85  HIS85       0.1154
     87  CE1      -27.0940   15.7710   25.7150 C.ar   85  HIS85       0.1986
     88  NE2      -26.6020   16.7720   25.0080 N.ar   85  HIS85      -0.2212
     89  N        -29.8780   16.8700   22.3260 N.am   86  MET86      -0.1977
     90  CA       -29.7250   15.7070   21.4560 C.3    86  MET86       0.1605
     91  C        -28.3410   15.1160   21.6910 C.2    86  MET86       0.2287
     92  O        -27.3400   15.6080   21.1700 O.2    86  MET86      -0.2864
     93  CB       -29.9100   16.0830   19.9830 C.3    86  MET86       0.0413
     94  CG       -31.3070   16.5990   19.6260 C.3    86  MET86       0.0598
     95  SD       -32.6080   15.3220   19.6040 S.3    86  MET86      -0.1393
     96  CE       -32.3900   14.6070   17.9840 C.3    86  MET86       0.0692
     97  N        -25.7290   14.7650   18.7840 N.3    89  GLY89      -0.1210
     98  CA       -25.1510   15.8740   18.0470 C.3    89  GLY89       0.1956
     99  C        -25.7450   16.1230   16.6780 C.2    89  GLY89       0.2612
    100  O        -26.8620   15.6840   16.3800 O.2    89  GLY89      -0.2717
    101  N        -25.0040   16.8600   15.8550 N.am   90  SER90      -0.1952
    102  CA       -25.4520   17.2000   14.5120 C.3    90  SER90       0.1924
    103  C        -24.7970   16.2620   13.5110 C.2    90  SER90       0.2314
    104  O        -23.7470   15.6640   13.7920 O.2    90  SER90      -0.2863
    105  CB       -25.1150   18.6480   14.1710 C.3    90  SER90       0.2116
    106  OG       -23.7250   18.8940   14.2750 O.3    90  SER90      -0.2180
    107  N        -23.3200   16.9750   10.9510 N.3    92  ASP92      -0.1225
    108  CA       -21.9990   17.4750   10.6130 C.3    92  ASP92       0.1805
    109  C        -20.9230   16.9750   11.5980 C.2    92  ASP92       0.2597
    110  O        -19.7850   16.6930   11.2050 O.2    92  ASP92      -0.2718
    111  CB       -22.0200   19.0020   10.4560 C.3    92  ASP92       0.1424
    112  CG       -21.3120   19.7170   11.5620 C.2    92  ASP92       0.3668
    113  OD1      -21.9350   19.9230   12.6290 O.co2  92  ASP92      -0.2456
    114  OD2      -20.1390   20.0960   11.3490 O.co2  92  ASP92      -0.2456
    115  N        -21.3110   16.8320   12.8640 N.am   93  GLN93      -0.1979
    116  CA       -20.4610   16.2160   13.8810 C.3    93  GLN93       0.1601
    117  C        -20.2410   14.7150   13.6410 C.2    93  GLN93       0.2287
    118  O        -19.1020   14.2470   13.6320 O.2    93  GLN93      -0.2864
    119  CB       -21.0530   16.4240   15.2750 C.3    93  GLN93       0.0394
    120  CG       -20.7130   17.7520   15.9110 C.3    93  GLN93       0.0908
    121  CD       -21.4980   18.0160   17.1860 C.2    93  GLN93       0.2608
    122  OE1      -22.7260   17.9590   17.1980 O.2    93  GLN93      -0.2717
    123  NE2      -20.7930   18.3120   18.2620 N.am   93  GLN93      -0.0878
    124  N        -32.4470   27.0500    6.3400 N.3   130  ASP130     -0.1239
    125  CA       -31.0690   26.7690    6.6800 C.3   130  ASP130      0.1674
    126  C        -30.8920   25.2470    6.8400 C.2   130  ASP130      0.2266
    127  O        -30.4820   24.7470    7.8890 O.2   130  ASP130     -0.2867
    128  CB       -30.7100   27.5160    7.9580 C.3   130  ASP130      0.1410
    129  CG       -29.2170   27.5870    8.2060 C.2   130  ASP130      0.3668
    130  OD1      -28.8380   27.9650    9.3380 O.co2 130  ASP130     -0.2456
    131  OD2      -28.4260   27.2700    7.2900 O.co2 130  ASP130     -0.2456
    132  N        -28.8070   22.1110    6.4160 N.3   132  LYS132     -0.1245
    133  CA       -27.4390   21.6350    6.2260 C.3   132  LYS132      0.1561
    134  C        -27.1660   20.6680    7.3780 C.2   132  LYS132      0.2260
    135  O        -27.9670   20.5730    8.2990 O.2   132  LYS132     -0.2867
    136  CB       -26.4640   22.8020    6.2470 C.3   132  LYS132      0.0271
    137  CG       -26.4570   23.5410    7.5740 C.3   132  LYS132      0.0035
    138  CD       -25.8840   24.9270    7.4360 C.3   132  LYS132      0.0206
    139  CE       -25.4560   25.4280    8.7940 C.3   132  LYS132      0.1093
    140  NZ       -25.3200   26.9150    8.8270 N.3   132  LYS132     -0.1314
    141  N        -25.3830   20.4840   10.0780 N.3   134  SER134     -0.1202
    142  CA       -25.2990   20.9020   11.4690 C.3   134  SER134      0.2020
    143  C        -26.6820   21.1860   12.0500 C.2   134  SER134      0.2618
    144  O        -26.8320   21.2770   13.2700 O.2   134  SER134     -0.2717
    145  CB       -24.4060   22.1410   11.6210 C.3   134  SER134      0.2103
    146  OG       -25.0690   23.3130   11.1670 O.3   134  SER134     -0.2182
    147  N        -27.6890   21.3560   11.1940 N.am  135  ASN135     -0.1974
    148  CA       -29.0350   21.6360   11.6880 C.3   135  ASN135      0.1688
    149  C        -29.9560   20.4340   11.5470 C.2   135  ASN135      0.2292
    150  O        -31.1780   20.5770   11.5570 O.2   135  ASN135     -0.2864
    151  CB       -29.6520   22.8860   11.0480 C.3   135  ASN135      0.1181
    152  CG       -28.8810   24.1580   11.3730 C.2   135  ASN135      0.2629
    153  OD1      -28.2830   24.2840   12.4450 O.2   135  ASN135     -0.2716
    154  ND2      -28.8790   25.1060   10.4350 N.am  135  ASN135     -0.0877
    155  N        -30.2140   17.2080   13.8560 N.3   137  LEU137     -0.1245
    156  CA       -29.7230   16.6030   15.0970 C.3   137  LEU137      0.1561
    157  C        -30.1250   15.1280   15.2510 C.2   137  LEU137      0.2260
    158  O        -31.1570   14.6920   14.7500 O.2   137  LEU137     -0.2867
    159  CB       -30.2080   17.4130   16.3020 C.3   137  LEU137      0.0270
    160  CG       -29.3880   18.6570   16.6500 C.3   137  LEU137      0.0019
    161  CD1      -28.8030   19.2290   15.4040 C.3   137  LEU137      0.0001
    162  CD2      -30.2200   19.7090   17.3600 C.3   137  LEU137      0.0001
    163  N        -33.6290   21.4100   13.2280 N.3   147  CYS147     -0.1221
    164  CA       -33.6680   22.5790   14.1160 C.3   147  CYS147      0.1808
    165  C        -33.2860   23.8210   13.3550 C.2   147  CYS147      0.2601
    166  O        -33.0690   23.7650   12.1340 O.2   147  CYS147     -0.2717
    167  CB       -32.7310   22.4200   15.3140 C.3   147  CYS147      0.0970
    168  SG       -31.0060   22.2090   14.8590 S.3   147  CYS147     -0.0800
    169  N        -33.2010   24.9350   14.0790 N.am  148  ASP148     -0.1973
    170  CA       -32.7100   26.1730   13.5040 C.3   148  ASP148      0.1709
    171  C        -33.4780   26.5100   12.2100 C.2   148  ASP148      0.2293
    172  O        -32.8960   26.9650   11.2400 O.2   148  ASP148     -0.2864
    173  CB       -31.1910   26.0790   13.2470 C.3   148  ASP148      0.1436
    174  CG       -30.3670   25.9220   14.5380 C.2   148  ASP148      0.3671
    175  OD1      -30.9390   25.7340   15.6370 O.co2 148  ASP148     -0.2456
    176  OD2      -29.1240   25.9710   14.4490 O.co2 148  ASP148     -0.2456
@<TRIPOS>BOND
     1   133   136    1
     2   133   132    1
     3   133   134    1
     4   136   137    1
     5   124   125    1
     6   125   126    1
     7   125   128    1
     8   126   127    2
     9   131   129   ar
    10   134   135    2
    11   138   137    1
    12   138   139    1
    13   128   129    1
    14   129   130   ar
    15   139   140    1
    16    29    27   am
    17   141   142    1
    18   154   152   am
    19   111   108    1
    20   111   112    1
    21   108   107    1
    22   108   109    1
    23   151   152    1
    24   151   148    1
    25    27    28    2
    26    27    26    1
    27   146   145    1
    28   147   148    1
    29   147   143   am
    30   110   109    2
    31   172   171    2
    32   114   112   ar
    33   152   153    2
    34   142   145    1
    35   142   143    1
    36   149   150    2
    37   149   148    1
    38   112   113   ar
    39   109   115   am
    40    26    23    1
    41   143   144    2
    42   166   165    2
    43   171   170    1
    44   115   116    1
    45   163   164    1
    46   173   170    1
    47   173   174    1
    48    23    24    1
    49    23    22    1
    50   165   169   am
    51   165   164    1
    52    25    24    2
    53   170   169    1
    54   103   104    2
    55   103   102    1
    56   118   117    2
    57   117   116    1
    58   155   156    1
    59   116   119    1
    60    22    20   am
    61   164   167    1
    62   105   106    1
    63   105   102    1
    64   176   174   ar
    65   102   101    1
    66   174   175   ar
    67    20    21    2
    68    20    19    1
    69   158   157    2
    70   168   167    1
    71    19    18    1
    72   156   157    1
    73   156   159    1
    74   119   120    1
    75   161   160    1
    76   101    99   am
    77   120   121    1
    78    16    15    2
    79   159   160    1
    80   100    99    2
    81    18    15   am
    82    55    56    1
    83   160   162    1
    84    99    98    1
    85    54    53    1
    86    15    14    1
    87    61    59    1
    88    30    31    1
    89   121   122    2
    90   121   123   am
    91    53    52    1
    92    59    56    1
    93    59    60    1
    94    56    57    1
    95    96    95    1
    96    98    97    1
    97    31    32    1
    98    33    32    2
    99    14    13    1
   100    14    17    1
   101    52    51    1
   102    58    57    2
   103    13    11   am
   104    95    94    1
   105    94    93    1
   106    51    50    1
   107    11    10    1
   108    11    12    2
   109    93    90    1
   110    39    38    1
   111    68    69    1
   112    68    67    1
   113    10     9    1
   114     4     3    2
   115    50    47    1
   116    78    76   ar
   117    92    91    2
   118     9     3   am
   119    90    91    1
   120    90    89    1
   121     3     2    1
   122    38    40    1
   123    38    35    1
   124    34    35    1
   125    67    66    1
   126    76    77   ar
   127    76    75    1
   128    66    63    1
   129    89    81   am
   130    47    48    1
   131    47    46    1
   132    73    72    2
   133    35    36    1
   134    74    75    1
   135    74    71    1
   136     5     2    1
   137     5     6    1
   138    48    49    2
   139     2     1    1
   140    37    36    2
   141    63    64    1
   142    63    62    1
   143    81    82    2
   144    81    80    1
   145    72    71    1
   146    72    79   am
   147    70    71    1
   148    70    64   am
   149    45    42    1
   150     6     8    1
   151     6     7    1
   152    64    65    2
   153    80    79    1
   154    80    83    1
   155    44    43    2
   156    86    88   ar
   157    86    84   ar
   158    43    42    1
   159    88    87   ar
   160    42    41    1
   161    84    83    1
   162    84    85   ar
   163    87    85   ar
