@<TRIPOS>MOLECULE
tmp/4u80A01.pdb
 182 170 0 0 0
SMALL
GASTEIGER

@<TRIPOS>ATOM
      1  N        -21.5330   28.7800   16.1350 N.3    17  GLY17      -0.1210
      2  CA       -21.6360   28.9810   14.7120 C.3    17  GLY17       0.1956
      3  C        -21.6510   30.4610   14.4100 C.2    17  GLY17       0.2612
      4  O        -21.3220   31.2960   15.2690 O.2    17  GLY17      -0.2717
      5  N        -22.0200   30.7770   13.1740 N.am   18  ASN18      -0.1960
      6  CA       -22.1580   32.1500   12.7190 C.3    18  ASN18       0.1819
      7  C        -23.3890   32.7520   13.4080 C.2    18  ASN18       0.2622
      8  O        -24.5120   32.5660   12.9490 O.2    18  ASN18      -0.2715
      9  CB       -22.2950   32.1790   11.1780 C.3    18  ASN18       0.1195
     10  CG       -21.7750   33.4860   10.5310 C.2    18  ASN18       0.2630
     11  OD1      -22.5600   34.3530   10.1260 O.2    18  ASN18      -0.2716
     12  ND2      -20.4520   33.6040   10.4000 N.am   18  ASN18      -0.0877
     13  N        -23.1770   33.4330   14.5340 N.am   19  GLY19      -0.1940
     14  CA       -24.2350   34.2000   15.1740 C.3    19  GLY19       0.2014
     15  C        -24.7470   33.6730   16.5000 C.2    19  GLY19       0.2639
     16  O        -25.2300   34.4500   17.3360 O.2    19  GLY19      -0.2714
     17  N        -24.6470   32.3580   16.6960 N.am   20  GLY20      -0.1954
     18  CA       -25.1600   31.7290   17.9000 C.3    20  GLY20       0.1869
     19  C        -24.2060   30.7930   18.6200 C.2    20  GLY20       0.2309
     20  O        -23.3230   30.2020   18.0170 O.2    20  GLY20      -0.2863
     21  N        -29.6420   27.7410   23.1460 N.3    37  LYS37      -0.1245
     22  CA       -28.9630   28.5580   22.1390 C.3    37  LYS37       0.1561
     23  C        -29.1220   30.0230   22.4720 C.2    37  LYS37       0.2260
     24  O        -30.2360   30.5020   22.6950 O.2    37  LYS37      -0.2867
     25  CB       -29.5130   28.3100   20.7350 C.3    37  LYS37       0.0271
     26  CG       -28.7640   29.0720   19.6470 C.3    37  LYS37       0.0035
     27  CD       -29.4810   29.0260   18.3010 C.3    37  LYS37       0.0206
     28  CE       -29.1890   27.7540   17.5150 C.3    37  LYS37       0.1093
     29  NZ       -27.9610   27.8700   16.6810 N.3    37  LYS37      -0.1314
     30  N        -28.4550   33.9340   21.1440 N.3    39  ILE39      -0.1245
     31  CA       -28.1770   34.7070   19.9450 C.3    39  ILE39       0.1561
     32  C        -27.9900   36.1780   20.2690 C.2    39  ILE39       0.2260
     33  O        -28.9330   36.8410   20.6990 O.2    39  ILE39      -0.2867
     34  CB       -29.2990   34.5450   18.9110 C.3    39  ILE39       0.0252
     35  CG1      -29.5860   33.0570   18.6850 C.3    39  ILE39       0.0019
     36  CG2      -28.9240   35.2290   17.6170 C.3    39  ILE39       0.0019
     37  CD1      -30.6850   32.7670   17.6900 C.3    39  ILE39       0.0001
     38  N        -41.6010   33.3820   18.5450 N.3    55  LEU55      -0.1245
     39  CA       -40.9580   32.1050   18.8070 C.3    55  LEU55       0.1561
     40  C        -41.8710   31.1770   19.5490 C.2    55  LEU55       0.2260
     41  O        -41.5820   29.9940   19.6600 O.2    55  LEU55      -0.2867
     42  CB       -39.6900   32.2970   19.6190 C.3    55  LEU55       0.0270
     43  CG       -38.4830   32.7480   18.8170 C.3    55  LEU55       0.0019
     44  CD1      -37.2760   32.9000   19.7200 C.3    55  LEU55       0.0001
     45  CD2      -38.2330   31.7270   17.7450 C.3    55  LEU55       0.0001
     46  N        -43.1490   27.7450   18.3800 N.3    58  LEU58      -0.1245
     47  CA       -42.3610   26.5440   18.5720 C.3    58  LEU58       0.1561
     48  C        -43.0080   25.5670   19.5590 C.2    58  LEU58       0.2260
     49  O        -42.7800   24.3580   19.4790 O.2    58  LEU58      -0.2867
     50  CB       -40.9640   26.9100   19.0390 C.3    58  LEU58       0.0270
     51  CG       -40.1020   27.5610   17.9760 C.3    58  LEU58       0.0019
     52  CD1      -38.7640   27.8640   18.5890 C.3    58  LEU58       0.0001
     53  CD2      -39.9680   26.6570   16.7530 C.3    58  LEU58       0.0001
     54  N        -36.9910   19.0010   16.4120 N.3    67  VAL67      -0.1231
     55  CA       -36.4430   19.1560   17.7530 C.3    67  VAL67       0.1692
     56  C        -37.4160   19.8670   18.6900 C.2    67  VAL67       0.2593
     57  O        -38.0130   20.8800   18.3340 O.2    67  VAL67      -0.2718
     58  CB       -35.0900   19.9110   17.7200 C.3    67  VAL67       0.0266
     59  CG1      -34.6260   20.2800   19.1140 C.3    67  VAL67       0.0020
     60  CG2      -34.0340   19.0810   17.0160 C.3    67  VAL67       0.0020
     61  N        -37.5560   19.3190   19.8940 N.am   68  GLY68      -0.1942
     62  CA       -38.4890   19.8230   20.8750 C.3    68  GLY68       0.2014
     63  C        -38.1480   21.1950   21.4010 C.2    68  GLY68       0.2638
     64  O        -36.9830   21.5740   21.5040 O.2    68  GLY68      -0.2714
     65  N        -39.1860   21.9440   21.7420 N.am   69  PHE69      -0.1973
     66  CA       -39.0250   23.2820   22.2660 C.3    69  PHE69       0.1639
     67  C        -39.4440   23.3240   23.7290 C.2    69  PHE69       0.2290
     68  O        -40.4840   22.7830   24.0940 O.2    69  PHE69      -0.2864
     69  CB       -39.8840   24.2210   21.4490 C.3    69  PHE69       0.0560
     70  CG       -39.8310   25.6570   21.8890 C.ar   69  PHE69      -0.0200
     71  CD1      -40.9700   26.2880   22.3770 C.ar   69  PHE69      -0.0042
     72  CD2      -38.6640   26.3940   21.7690 C.ar   69  PHE69      -0.0042
     73  CE1      -40.9370   27.6310   22.7440 C.ar   69  PHE69      -0.0003
     74  CE2      -38.6270   27.7340   22.1360 C.ar   69  PHE69      -0.0003
     75  CZ       -39.7700   28.3520   22.6210 C.ar   69  PHE69      -0.0000
     76  N        -33.0150   30.3650   23.1150 N.3    81  ILE81      -0.1245
     77  CA       -33.9950   29.3780   22.7250 C.3    81  ILE81       0.1561
     78  C        -33.5910   28.1300   23.4550 C.2    81  ILE81       0.2260
     79  O        -32.4540   27.6800   23.3500 O.2    81  ILE81      -0.2867
     80  CB       -34.0080   29.1540   21.1940 C.3    81  ILE81       0.0252
     81  CG1      -34.3330   30.4670   20.4810 C.3    81  ILE81       0.0019
     82  CG2      -35.0310   28.1100   20.8060 C.3    81  ILE81       0.0019
     83  CD1      -34.2540   30.3860   18.9840 C.3    81  ILE81       0.0001
     84  N        -34.1240   24.1260   24.0400 N.3    83  MET83      -0.1245
     85  CA       -34.6270   23.0010   23.2840 C.3    83  MET83       0.1570
     86  C        -34.0630   21.6830   23.7630 C.2    83  MET83       0.2261
     87  O        -33.0950   21.6280   24.5330 O.2    83  MET83      -0.2867
     88  CB       -34.2630   23.1790   21.8270 C.3    83  MET83       0.0387
     89  CG       -32.8100   23.4800   21.6870 C.3    83  MET83       0.0595
     90  SD       -32.2990   23.7310   20.0100 S.3    83  MET83      -0.1393
     91  CE       -31.2000   25.1260   20.2140 C.3    83  MET83       0.0692
     92  N        -32.5740   26.9740    6.2760 N.3   130  ASP130     -0.1239
     93  CA       -31.2000   26.6730    6.6130 C.3   130  ASP130      0.1674
     94  C        -30.9950   25.1750    6.8080 C.2   130  ASP130      0.2266
     95  O        -30.7300   24.6900    7.9050 O.2   130  ASP130     -0.2867
     96  CB       -30.7580   27.4660    7.8390 C.3   130  ASP130      0.1410
     97  CG       -29.2520   27.5410    7.9620 C.2   130  ASP130      0.3668
     98  OD1      -28.7630   28.0020    9.0150 O.co2 130  ASP130     -0.2456
     99  OD2      -28.5590   27.1280    7.0040 O.co2 130  ASP130     -0.2456
    100  N        -28.7270   22.0880    6.3840 N.3   132  LYS132     -0.1245
    101  CA       -27.3650   21.6020    6.1840 C.3   132  LYS132      0.1561
    102  C        -27.1150   20.5580    7.2760 C.2   132  LYS132      0.2260
    103  O        -27.9350   20.4080    8.1650 O.2   132  LYS132     -0.2867
    104  CB       -26.3780   22.7630    6.2780 C.3   132  LYS132      0.0271
    105  CG       -26.4650   23.5370    7.5870 C.3   132  LYS132      0.0035
    106  CD       -25.9360   24.9330    7.4460 C.3   132  LYS132      0.0206
    107  CE       -25.1890   25.3420    8.7010 C.3   132  LYS132      0.1093
    108  NZ       -25.2550   26.8130    8.9280 N.3   132  LYS132     -0.1314
    109  N        -27.6830   21.3320   11.1570 N.3   135  ASN135     -0.1240
    110  CA       -29.0270   21.5730   11.6520 C.3   135  ASN135      0.1653
    111  C        -29.9210   20.3470   11.4800 C.2   135  ASN135      0.2266
    112  O        -31.1450   20.4520   11.4790 O.2   135  ASN135     -0.2867
    113  CB       -29.6490   22.8200   11.0250 C.3   135  ASN135      0.1155
    114  CG       -28.8180   24.0740   11.2580 C.2   135  ASN135      0.2627
    115  OD1      -28.0780   24.1800   12.2440 O.2   135  ASN135     -0.2716
    116  ND2      -28.9260   25.0290   10.3400 N.am  135  ASN135     -0.0877
    117  N        -33.5470   21.3220   13.2850 N.3   147  CYS147     -0.1221
    118  CA       -33.5950   22.4870   14.1730 C.3   147  CYS147      0.1808
    119  C        -33.2250   23.7180   13.3850 C.2   147  CYS147      0.2601
    120  O        -32.9560   23.6250   12.1880 O.2   147  CYS147     -0.2717
    121  CB       -32.6450   22.3550   15.3770 C.3   147  CYS147      0.0970
    122  SG       -30.9260   22.1860   14.9220 S.3   147  CYS147     -0.0800
    123  N        -33.2130   24.8580   14.0750 N.am  148  ASP148     -0.1959
    124  CA       -32.6760   26.0930   13.5310 C.3   148  ASP148      0.1840
    125  C        -33.4070   26.4330   12.2350 C.2   148  ASP148      0.2622
    126  O        -32.7900   26.8230   11.2620 O.2   148  ASP148     -0.2715
    127  CB       -31.1540   25.9690   13.3040 C.3   148  ASP148      0.1450
    128  CG       -30.3480   25.8240   14.6170 C.2   148  ASP148      0.3671
    129  OD1      -30.9430   25.7570   15.7120 O.co2 148  ASP148     -0.2456
    130  OD2      -29.1010   25.7710   14.5530 O.co2 148  ASP148     -0.2456
    131  N        -34.7240   26.2510   12.2270 N.am  149  PHE149     -0.1960
    132  CA       -35.5460   26.6030   11.0730 C.3   149  PHE149      0.1771
    133  C        -36.2580   27.9470   11.2570 C.2   149  PHE149      0.2620
    134  O        -36.3570   28.4590   12.3550 O.2   149  PHE149     -0.2715
    135  CB       -36.5570   25.5000   10.7660 C.3   149  PHE149      0.0574
    136  CG       -37.3370   25.0470   11.9610 C.ar  149  PHE149     -0.0200
    137  CD1      -38.5070   25.6830   12.3220 C.ar  149  PHE149     -0.0042
    138  CD2      -36.8940   23.9750   12.7230 C.ar  149  PHE149     -0.0042
    139  CE1      -39.2150   25.2720   13.4170 C.ar  149  PHE149     -0.0003
    140  CE2      -37.6040   23.5530   13.8250 C.ar  149  PHE149     -0.0003
    141  CZ       -38.7650   24.2030   14.1770 C.ar  149  PHE149     -0.0000
    142  N        -36.7680   28.5160   10.1760 N.am  150  GLY150     -0.1940
    143  CA       -37.2100   29.8960   10.2110 C.3   150  GLY150      0.2014
    144  C        -38.5850   30.1770   10.7670 C.2   150  GLY150      0.2639
    145  O        -39.4700   30.5880   10.0250 O.2   150  GLY150     -0.2714
    146  N        -38.7470   30.0030   12.0750 N.am  151  VAL151     -0.1963
    147  CA       -40.0200   30.2330   12.7510 C.3   151  VAL151      0.1727
    148  C        -40.4090   31.6980   12.7960 C.2   151  VAL151      0.2616
    149  O        -41.5560   32.0500   12.5210 O.2   151  VAL151     -0.2715
    150  CB       -39.9770   29.7910   14.2280 C.3   151  VAL151      0.0290
    151  CG1      -41.3690   29.4660   14.7090 C.3   151  VAL151      0.0023
    152  CG2      -39.0630   28.6120   14.4190 C.3   151  VAL151      0.0023
    153  N        -39.4620   32.5420   13.1940 N.am  152  SER152     -0.1950
    154  CA       -39.7730   33.9270   13.4850 C.3   152  SER152      0.1924
    155  C        -39.2910   34.7880   12.3390 C.2   152  SER152      0.2314
    156  O        -38.1010   34.7920   12.0130 O.2   152  SER152     -0.2863
    157  CB       -39.1290   34.3720   14.8080 C.3   152  SER152      0.2116
    158  OG       -38.9130   35.7790   14.8360 O.3   152  SER152     -0.2180
    159  N        -36.8150   37.5350   13.4340 N.3   155  LEU155     -0.1231
    160  CA       -35.4730   37.0660   13.7770 C.3   155  LEU155      0.1693
    161  C        -34.6790   36.9390   12.4960 C.2   155  LEU155      0.2591
    162  O        -33.5090   37.3230   12.4230 O.2   155  LEU155     -0.2718
    163  CB       -35.5190   35.7290   14.5210 C.3   155  LEU155      0.0284
    164  CG       -34.1740   35.1750   15.0030 C.3   155  LEU155      0.0019
    165  CD1      -33.3780   36.2280   15.7820 C.3   155  LEU155      0.0001
    166  CD2      -34.3940   33.9420   15.8440 C.3   155  LEU155      0.0001
    167  N        -35.3500   36.4010   11.4850 N.am  156  ILE156     -0.1980
    168  CA       -34.8060   36.3050   10.1430 C.3   156  ILE156      0.1595
    169  C        -34.2660   37.6680    9.7260 C.2   156  ILE156      0.2287
    170  O        -33.0930   37.7870    9.3780 O.2   156  ILE156     -0.2864
    171  CB       -35.8740   35.7890    9.1640 C.3   156  ILE156      0.0276
    172  CG1      -36.2230   34.3400    9.5020 C.3   156  ILE156      0.0022
    173  CG2      -35.3930   35.8510    7.7400 C.3   156  ILE156      0.0022
    174  CD1      -37.4310   33.8050    8.7520 C.3   156  ILE156      0.0001
    175  N        -31.0690   39.0350   11.5360 N.3   159  MET159     -0.1245
    176  CA       -29.8070   38.3330   11.3700 C.3   159  MET159      0.1570
    177  C        -29.1660   38.5690    9.9910 C.2   159  MET159      0.2261
    178  O        -28.0210   38.1730    9.7610 O.2   159  MET159     -0.2867
    179  CB       -29.9720   36.8430   11.7000 C.3   159  MET159      0.0387
    180  CG       -30.4960   36.5840   13.1260 C.3   159  MET159      0.0595
    181  SD       -30.4660   34.8670   13.7330 S.3   159  MET159     -0.1393
    182  CE       -31.4470   34.0300   12.4880 C.3   159  MET159      0.0692
@<TRIPOS>BOND
     1   101   104    1
     2   101   100    1
     3   101   102    1
     4    92    93    1
     5   104   105    1
     6    93    94    1
     7    93    96    1
     8    94    95    2
     9    99    97   ar
    10   102   103    2
    11   106   105    1
    12   106   107    1
    13   173   171    1
    14    96    97    1
    15    97    98   ar
    16   107   108    1
    17   174   172    1
    18   171   172    1
    19   171   168    1
    20   170   169    2
    21   169   168    1
    22   178   177    2
    23   177   176    1
    24   145   144    2
    25    11    10    2
    26   168   167    1
    27   142   143    1
    28   142   133   am
    29   143   144    1
    30   116   114   am
    31    12    10   am
    32    10     9    1
    33   135   132    1
    34   135   136    1
    35   144   146   am
    36   113   114    1
    37   113   110    1
    38   132   133    1
    39   132   131    1
    40   109   110    1
    41     9     6    1
    42   133   134    2
    43   114   115    2
    44   126   125    2
    45   176   175    1
    46   176   179    1
    47   112   111    2
    48   111   110    1
    49   167   161   am
    50   179   180    1
    51   136   137   ar
    52   136   138   ar
    53   156   155    2
    54   146   147    1
    55   120   119    2
    56   131   125   am
    57   125   124    1
    58   137   139   ar
    59   155   154    1
    60   162   161    2
    61   182   181    1
    62   161   160    1
    63   149   148    2
    64     6     5    1
    65     6     7    1
    66   138   140   ar
    67   147   148    1
    68   147   150    1
    69   148   153   am
    70     8     7    2
    71   180   181    1
    72     5     3   am
    73   153   154    1
    74   117   118    1
    75   127   124    1
    76   127   128    1
    77   119   123   am
    78   119   118    1
    79     7    13   am
    80   139   141   ar
    81   159   160    1
    82   154   157    1
    83   124   123    1
    84   160   163    1
    85   140   141   ar
    86   118   121    1
    87   150   152    1
    88   150   151    1
    89     3     2    1
    90     3     4    2
    91   163   164    1
    92    13    14    1
    93   130   128   ar
    94   128   129   ar
    95     2     1    1
    96   157   158    1
    97   122   121    1
    98   164   165    1
    99   164   166    1
   100    14    15    1
   101    54    55    1
   102    15    17   am
   103    15    16    2
   104    29    28    1
   105    17    18    1
   106    53    51    1
   107    60    58    1
   108    28    27    1
   109    36    34    1
   110    37    35    1
   111    58    55    1
   112    58    59    1
   113    45    43    1
   114    55    56    1
   115    18    19    1
   116    51    52    1
   117    51    50    1
   118    20    19    2
   119    27    26    1
   120    57    56    2
   121    46    47    1
   122    38    39    1
   123    47    50    1
   124    47    48    1
   125    35    34    1
   126    56    61   am
   127    39    40    1
   128    39    42    1
   129    43    42    1
   130    43    44    1
   131    34    31    1
   132    83    81    1
   133    49    48    2
   134    40    41    2
   135    26    25    1
   136    61    62    1
   137    31    32    1
   138    31    30    1
   139    90    91    1
   140    90    89    1
   141    32    33    2
   142    81    80    1
   143    25    22    1
   144    82    80    1
   145    62    63    1
   146    80    77    1
   147    63    64    2
   148    63    65   am
   149    69    70    1
   150    69    66    1
   151    89    88    1
   152    65    66    1
   153    72    70   ar
   154    72    74   ar
   155    88    85    1
   156    70    71   ar
   157    74    75   ar
   158    22    23    1
   159    22    21    1
   160    66    67    1
   161    71    73   ar
   162    23    24    2
   163    75    73   ar
   164    77    76    1
   165    77    78    1
   166    85    86    1
   167    85    84    1
   168    79    78    2
   169    67    68    2
   170    86    87    2
