@<TRIPOS>MOLECULE
tmp/4u81A00.pdb
 173 162 0 0 0
SMALL
GASTEIGER

@<TRIPOS>ATOM
      1  N         21.5690   28.8460  -16.4210 N.3    17  GLY17      -0.1210
      2  CA        21.4240   29.1370  -15.0180 C.3    17  GLY17       0.1956
      3  C         22.1970   30.3700  -14.6370 C.2    17  GLY17       0.2612
      4  O         23.4000   30.4600  -14.8920 O.2    17  GLY17      -0.2717
      5  N         21.4800   31.3210  -14.0510 N.am   18  ASN18      -0.1960
      6  CA        22.0590   32.4800  -13.3680 C.3    18  ASN18       0.1819
      7  C         23.3300   33.0630  -13.9810 C.2    18  ASN18       0.2622
      8  O         24.4260   32.8820  -13.4450 O.2    18  ASN18      -0.2715
      9  CB        22.2720   32.1700  -11.8820 C.3    18  ASN18       0.1195
     10  CG        21.4220   33.0420  -10.9800 C.2    18  ASN18       0.2630
     11  OD1       20.5710   33.7980  -11.4520 O.2    18  ASN18      -0.2716
     12  ND2       21.6480   32.9450   -9.6740 N.am   18  ASN18      -0.0877
     13  N         23.1720   33.7530  -15.1090 N.am   19  GLY19      -0.1940
     14  CA        24.2550   34.5210  -15.6930 C.3    19  GLY19       0.2014
     15  C         24.8360   33.8670  -16.9220 C.2    19  GLY19       0.2639
     16  O         25.5600   34.5070  -17.6950 O.2    19  GLY19      -0.2714
     17  N         24.5170   32.5890  -17.1100 N.am   20  GLY20      -0.1954
     18  CA        25.0410   31.8550  -18.2410 C.3    20  GLY20       0.1869
     19  C         24.0370   30.9810  -18.9450 C.2    20  GLY20       0.2309
     20  O         23.0610   30.5100  -18.3630 O.2    20  GLY20      -0.2863
     21  N         29.5590   27.8540  -23.5270 N.3    37  LYS37      -0.1245
     22  CA        28.9180   28.6560  -22.5020 C.3    37  LYS37       0.1561
     23  C         29.0420   30.1240  -22.8480 C.2    37  LYS37       0.2260
     24  O         30.1490   30.6380  -23.0090 O.2    37  LYS37      -0.2867
     25  CB        29.5490   28.4000  -21.1270 C.3    37  LYS37       0.0271
     26  CG        29.1640   29.4430  -20.0840 C.3    37  LYS37       0.0035
     27  CD        29.5850   29.0350  -18.6720 C.3    37  LYS37       0.0206
     28  CE        28.7110   27.9240  -18.1100 C.3    37  LYS37       0.1093
     29  NZ        28.8090   27.8720  -16.6310 N.3    37  LYS37      -0.1314
     30  N         28.3800   33.9760  -21.5510 N.3    39  ILE39      -0.1245
     31  CA        28.0840   34.7840  -20.3790 C.3    39  ILE39       0.1561
     32  C         27.8810   36.2360  -20.7640 C.2    39  ILE39       0.2260
     33  O         28.8390   36.9160  -21.1320 O.2    39  ILE39      -0.2867
     34  CB        29.1800   34.6770  -19.3000 C.3    39  ILE39       0.0252
     35  CG1       29.5500   33.2060  -19.0610 C.3    39  ILE39       0.0019
     36  CG2       28.7030   35.3290  -18.0140 C.3    39  ILE39       0.0019
     37  CD1       30.6070   32.9650  -17.9990 C.3    39  ILE39       0.0001
     38  N         41.5210   33.4370  -18.7890 N.3    55  LEU55      -0.1245
     39  CA        40.8990   32.1570  -19.0930 C.3    55  LEU55       0.1561
     40  C         41.8770   31.2300  -19.7970 C.2    55  LEU55       0.2260
     41  O         41.7240   30.0110  -19.7450 O.2    55  LEU55      -0.2867
     42  CB        39.6440   32.3760  -19.9400 C.3    55  LEU55       0.0270
     43  CG        38.4450   32.8970  -19.1380 C.3    55  LEU55       0.0019
     44  CD1       37.2490   33.2630  -20.0280 C.3    55  LEU55       0.0001
     45  CD2       38.0630   31.8510  -18.1020 C.3    55  LEU55       0.0001
     46  N         43.1360   27.8510  -18.6740 N.3    58  LEU58      -0.1245
     47  CA        42.3490   26.6440  -18.9260 C.3    58  LEU58       0.1561
     48  C         43.0520   25.7130  -19.9210 C.2    58  LEU58       0.2260
     49  O         42.8970   24.4960  -19.8520 O.2    58  LEU58      -0.2867
     50  CB        40.9290   26.9830  -19.3870 C.3    58  LEU58       0.0270
     51  CG        40.0900   27.6470  -18.2930 C.3    58  LEU58       0.0019
     52  CD1       38.7200   28.0450  -18.8080 C.3    58  LEU58       0.0001
     53  CD2       39.9910   26.7290  -17.0710 C.3    58  LEU58       0.0001
     54  N         36.9200   19.0950  -16.6040 N.3    67  VAL67      -0.1231
     55  CA        36.3530   19.2470  -17.9390 C.3    67  VAL67       0.1692
     56  C         37.3330   19.9680  -18.8780 C.2    67  VAL67       0.2593
     57  O         37.8830   21.0130  -18.5310 O.2    67  VAL67      -0.2718
     58  CB        35.0060   19.9960  -17.8720 C.3    67  VAL67       0.0266
     59  CG1       34.4830   20.3560  -19.2560 C.3    67  VAL67       0.0020
     60  CG2       34.0010   19.1700  -17.1150 C.3    67  VAL67       0.0020
     61  N         37.5380   19.4050  -20.0660 N.am   68  GLY68      -0.1942
     62  CA        38.5130   19.9280  -20.9990 C.3    68  GLY68       0.2014
     63  C         38.1480   21.2740  -21.5790 C.2    68  GLY68       0.2638
     64  O         36.9780   21.6130  -21.6940 O.2    68  GLY68      -0.2714
     65  N         39.1680   22.0360  -21.9560 N.am   69  PHE69      -0.1973
     66  CA        39.0050   23.3790  -22.4920 C.3    69  PHE69       0.1639
     67  C         39.3930   23.4140  -23.9610 C.2    69  PHE69       0.2290
     68  O         40.4280   22.8450  -24.3420 O.2    69  PHE69      -0.2864
     69  CB        39.9360   24.3110  -21.7380 C.3    69  PHE69       0.0560
     70  CG        39.8590   25.7520  -22.1660 C.ar   69  PHE69      -0.0200
     71  CD1       40.9380   26.3630  -22.7870 C.ar   69  PHE69      -0.0042
     72  CD2       38.7290   26.5130  -21.9020 C.ar   69  PHE69      -0.0042
     73  CE1       40.8830   27.7100  -23.1450 C.ar   69  PHE69      -0.0003
     74  CE2       38.6610   27.8590  -22.2670 C.ar   69  PHE69      -0.0003
     75  CZ        39.7420   28.4590  -22.8810 C.ar   69  PHE69      -0.0000
     76  N         33.0300   30.5880  -23.4440 N.3    81  ILE81      -0.1245
     77  CA        33.9690   29.5540  -23.0220 C.3    81  ILE81       0.1561
     78  C         33.5530   28.2780  -23.7410 C.2    81  ILE81       0.2260
     79  O         32.4200   27.8170  -23.5980 O.2    81  ILE81      -0.2867
     80  CB        33.9540   29.3520  -21.4820 C.3    81  ILE81       0.0252
     81  CG1       34.3880   30.6440  -20.7850 C.3    81  ILE81       0.0019
     82  CG2       34.8550   28.1940  -21.0640 C.3    81  ILE81       0.0019
     83  CD1       34.3830   30.5530  -19.2640 C.3    81  ILE81       0.0001
     84  N         34.0970   24.2720  -24.2720 N.3    83  MET83      -0.1245
     85  CA        34.6220   23.1710  -23.4850 C.3    83  MET83       0.1570
     86  C         34.1320   21.8210  -23.9880 C.2    83  MET83       0.2261
     87  O         33.2030   21.7230  -24.8120 O.2    83  MET83      -0.2867
     88  CB        34.2360   23.3510  -22.0210 C.3    83  MET83       0.0387
     89  CG        32.7560   23.2230  -21.7540 C.3    83  MET83       0.0595
     90  SD        32.3390   23.8750  -20.1290 S.3    83  MET83      -0.1393
     91  CE        31.7050   25.4990  -20.6000 C.3    83  MET83       0.0692
     92  N         32.7470   27.0480   -6.3150 N.3   130  ASP130     -0.1239
     93  CA        31.3610   26.7760   -6.6540 C.3   130  ASP130      0.1674
     94  C         31.0940   25.2800   -6.8930 C.2   130  ASP130      0.2266
     95  O         30.6580   24.8490   -7.9570 O.2   130  ASP130     -0.2867
     96  CB        30.9550   27.6390   -7.8470 C.3   130  ASP130      0.1410
     97  CG        29.4590   27.7190   -8.0320 C.2   130  ASP130      0.3668
     98  OD1       29.0390   28.1600   -9.1130 O.co2 130  ASP130     -0.2456
     99  OD2       28.7080   27.3340   -7.1150 O.co2 130  ASP130     -0.2456
    100  N         27.7610   21.5830  -11.2960 N.3   135  ASN135     -0.1240
    101  CA        29.1330   21.8130  -11.7450 C.3   135  ASN135      0.1653
    102  C         29.9800   20.5470  -11.6520 C.2   135  ASN135      0.2266
    103  O         31.2040   20.6050  -11.7440 O.2   135  ASN135     -0.2867
    104  CB        29.7970   22.9750  -10.9830 C.3   135  ASN135      0.1155
    105  CG        29.0990   24.3160  -11.2240 C.2   135  ASN135      0.2627
    106  OD1       28.4480   24.5040  -12.2500 O.2   135  ASN135     -0.2716
    107  ND2       29.2150   25.2440  -10.2640 N.am  135  ASN135     -0.0877
    108  N         33.7330   21.5250  -13.4810 N.3   147  CYS147     -0.1221
    109  CA        33.7780   22.6780  -14.3860 C.3   147  CYS147      0.1808
    110  C         33.4350   23.9160  -13.5720 C.2   147  CYS147      0.2601
    111  O         33.1950   23.8220  -12.3700 O.2   147  CYS147     -0.2717
    112  CB        32.7640   22.5370  -15.5300 C.3   147  CYS147      0.0970
    113  SG        31.0620   22.2750  -14.9280 S.3   147  CYS147     -0.0800
    114  N         33.4080   25.0670  -14.2280 N.am  148  ASP148     -0.1959
    115  CA        32.8990   26.2840  -13.6080 C.3   148  ASP148      0.1840
    116  C         33.6370   26.6630  -12.3160 C.2   148  ASP148      0.2622
    117  O         33.0180   27.1550  -11.3860 O.2   148  ASP148     -0.2715
    118  CB        31.3900   26.1560  -13.3490 C.3   148  ASP148      0.1450
    119  CG        30.5770   26.0500  -14.6380 C.2   148  ASP148      0.3671
    120  OD1       31.1710   26.1510  -15.7280 O.co2 148  ASP148     -0.2456
    121  OD2       29.3400   25.8830  -14.5800 O.co2 148  ASP148     -0.2456
    122  N         34.9470   26.4200  -12.2720 N.am  149  PHE149     -0.1960
    123  CA        35.8000   26.8110  -11.1520 C.3   149  PHE149      0.1771
    124  C         36.4570   28.1720  -11.3960 C.2   149  PHE149      0.2620
    125  O         36.4530   28.6710  -12.5060 O.2   149  PHE149     -0.2715
    126  CB        36.8490   25.7400  -10.8470 C.3   149  PHE149      0.0574
    127  CG        37.5230   25.1770  -12.0650 C.ar  149  PHE149     -0.0200
    128  CD1       38.6360   25.7860  -12.5990 C.ar  149  PHE149     -0.0042
    129  CD2       37.0320   24.0300  -12.6670 C.ar  149  PHE149     -0.0042
    130  CE1       39.2470   25.2730  -13.7200 C.ar  149  PHE149     -0.0003
    131  CE2       37.6290   23.5110  -13.7810 C.ar  149  PHE149     -0.0003
    132  CZ        38.7520   24.1300  -14.3120 C.ar  149  PHE149     -0.0000
    133  N         37.0020   28.7870  -10.3570 N.am  150  GLY150     -0.1940
    134  CA        37.4190   30.1700  -10.4520 C.3   150  GLY150      0.2014
    135  C         38.8210   30.4180  -10.9640 C.2   150  GLY150      0.2639
    136  O         39.6960   30.8010  -10.1800 O.2   150  GLY150     -0.2714
    137  N         39.0370   30.2200  -12.2660 N.am  151  VAL151     -0.1963
    138  CA        40.3260   30.5310  -12.8800 C.3   151  VAL151      0.1727
    139  C         40.5120   32.0080  -13.1300 C.2   151  VAL151      0.2616
    140  O         41.6390   32.4960  -13.0810 O.2   151  VAL151     -0.2715
    141  CB        40.5730   29.8050  -14.2360 C.3   151  VAL151      0.0290
    142  CG1       41.0500   28.3990  -14.0090 C.3   151  VAL151      0.0023
    143  CG2       39.3290   29.8230  -15.0990 C.3   151  VAL151      0.0023
    144  N         39.4340   32.7240  -13.4410 N.am  152  SER152     -0.1950
    145  CA        39.6130   34.1340  -13.7620 C.3   152  SER152      0.1924
    146  C         39.1020   35.0240  -12.6420 C.2   152  SER152      0.2314
    147  O         37.9040   35.0950  -12.3960 O.2   152  SER152     -0.2863
    148  CB        38.9890   34.5150  -15.1180 C.3   152  SER152      0.2116
    149  OG        38.8460   35.9330  -15.2300 O.3   152  SER152     -0.2180
    150  N         36.6920   37.6030  -13.9050 N.3   155  LEU155     -0.1231
    151  CA        35.3770   37.1300  -14.3320 C.3   155  LEU155      0.1693
    152  C         34.4670   37.0160  -13.1200 C.2   155  LEU155      0.2591
    153  O         33.3000   37.4180  -13.1620 O.2   155  LEU155     -0.2718
    154  CB        35.4500   35.8020  -15.0750 C.3   155  LEU155      0.0284
    155  CG        34.0840   35.2600  -15.5180 C.3   155  LEU155      0.0019
    156  CD1       33.3120   36.2860  -16.3270 C.3   155  LEU155      0.0001
    157  CD2       34.2590   34.0050  -16.3220 C.3   155  LEU155      0.0001
    158  N         35.0260   36.4820  -12.0380 N.am  156  ILE156     -0.1980
    159  CA        34.3280   36.4240  -10.7710 C.3   156  ILE156      0.1595
    160  C         33.8130   37.8140  -10.3970 C.2   156  ILE156      0.2287
    161  O         32.6040   38.0000  -10.2070 O.2   156  ILE156     -0.2864
    162  CB        35.2260   35.8520   -9.6760 C.3   156  ILE156      0.0276
    163  CG1       35.5190   34.3720   -9.9660 C.3   156  ILE156      0.0022
    164  CG2       34.5350   35.9610   -8.3290 C.3   156  ILE156      0.0022
    165  CD1       36.7640   33.8300   -9.2620 C.3   156  ILE156      0.0001
    166  N         30.8540   39.2280  -12.2600 N.3   159  MET159     -0.1245
    167  CA        29.5880   38.5380  -12.0600 C.3   159  MET159      0.1570
    168  C         28.9810   38.7640  -10.6570 C.2   159  MET159      0.2261
    169  O         27.7890   38.5510  -10.4480 O.2   159  MET159     -0.2867
    170  CB        29.7550   37.0380  -12.3750 C.3   159  MET159      0.0387
    171  CG        30.2950   36.7560  -13.7890 C.3   159  MET159      0.0595
    172  SD        30.0480   35.0670  -14.3730 S.3   159  MET159     -0.1393
    173  CE        31.0220   34.1710  -13.1670 C.3   159  MET159      0.0692
@<TRIPOS>BOND
     1    87    86    2
     2    68    67    2
     3    84    85    1
     4    86    85    1
     5    67    66    1
     6    78    79    2
     7    78    77    1
     8    21    22    1
     9    85    88    1
    10    76    77    1
    11    73    75   ar
    12    73    71   ar
    13    77    80    1
    14    24    23    2
    15    75    74   ar
    16    23    22    1
    17    71    70   ar
    18    22    25    1
    19    66    65    1
    20    66    69    1
    21    74    72   ar
    22    70    72   ar
    23    70    69    1
    24    88    89    1
    25    65    63   am
    26    89    90    1
    27    64    63    2
    28    63    62    1
    29    30    31    1
    30    80    82    1
    31    80    81    1
    32    33    32    2
    33    25    26    1
    34    62    61    1
    35    81    83    1
    36    32    31    1
    37    91    90    1
    38    31    34    1
    39    26    27    1
    40    61    56   am
    41    44    43    1
    42    42    43    1
    43    42    39    1
    44    48    49    2
    45    48    47    1
    46    40    41    2
    47    40    39    1
    48    50    47    1
    49    50    51    1
    50    34    35    1
    51    34    36    1
    52    59    58    1
    53    43    45    1
    54    39    38    1
    55    35    37    1
    56    19    20    2
    57    19    18    1
    58    47    46    1
    59    56    57    2
    60    56    55    1
    61    52    51    1
    62    27    28    1
    63    51    53    1
    64    18    17    1
    65    28    29    1
    66    55    58    1
    67    55    54    1
    68    58    60    1
    69    16    15    2
    70    17    15   am
    71    15    14    1
    72     1     2    1
    73   156   155    1
    74   157   155    1
    75   120   119   ar
    76    14    13    1
    77   112   113    1
    78   112   109    1
    79   155   154    1
    80   149   148    1
    81   148   145    1
    82    13     7   am
    83   143   141    1
    84   154   151    1
    85     2     3    1
    86     4     3    2
    87   119   121   ar
    88   119   118    1
    89     3     5   am
    90   109   110    1
    91   109   108    1
    92   172   171    1
    93   172   173    1
    94   151   150    1
    95   151   152    1
    96   132   131   ar
    97   132   130   ar
    98   141   142    1
    99   141   138    1
   100   114   115    1
   101   114   110   am
   102     5     6    1
   103     7     8    2
   104     7     6    1
   105   171   170    1
   106   131   129   ar
   107   145   144    1
   108   145   146    1
   109   130   128   ar
   110   115   118    1
   111   115   116    1
   112   110   111    2
   113   144   139   am
   114     6     9    1
   115   153   152    2
   116   139   140    2
   117   139   138    1
   118   152   158   am
   119   138   137    1
   120   129   127   ar
   121   146   147    2
   122   128   127   ar
   123   125   124    2
   124   170   167    1
   125   116   122   am
   126   116   117    2
   127   122   123    1
   128   137   135   am
   129   166   167    1
   130   106   105    2
   131   127   126    1
   132   167   168    1
   133   158   159    1
   134     9    10    1
   135   101   102    1
   136   101   100    1
   137   101   104    1
   138   103   102    2
   139    11    10    2
   140   124   123    1
   141   124   133   am
   142   105   104    1
   143   105   107   am
   144   123   126    1
   145    10    12   am
   146   135   134    1
   147   135   136    2
   148   159   160    1
   149   159   162    1
   150   168   169    2
   151   134   133    1
   152   160   161    2
   153   163   162    1
   154   163   165    1
   155   162   164    1
   156    98    97   ar
   157    97    96    1
   158    97    99   ar
   159    95    94    2
   160    96    93    1
   161    94    93    1
   162    93    92    1
