@<TRIPOS>MOLECULE
tmp/4u82A00.pdb
 214 208 0 0 0
SMALL
GASTEIGER

@<TRIPOS>ATOM
      1  N         20.0270    4.0560    1.4730 N.3    13  ILE13      -0.1231
      2  CA        20.0710    4.2690    2.9590 C.3    13  ILE13       0.1692
      3  C         19.7500    2.8550    3.5650 C.2    13  ILE13       0.2592
      4  O         18.6050    2.3580    3.4310 O.2    13  ILE13      -0.2718
      5  CB        19.0440    5.3050    3.4170 C.3    13  ILE13       0.0266
      6  CG1       19.4580    6.6640    2.8290 C.3    13  ILE13       0.0019
      7  CG2       18.9780    5.3780    4.9890 C.3    13  ILE13       0.0020
      8  CD1       18.3120    7.7160    2.9200 C.3    13  ILE13       0.0001
      9  N         20.7800    2.2430    4.1530 N.am   14  MET14      -0.1965
     10  CA        20.7040    0.8870    4.6710 C.3    14  MET14       0.1736
     11  C         20.0690    0.7020    6.0650 C.2    14  MET14       0.2616
     12  O         20.6910    0.1670    7.0120 O.2    14  MET14      -0.2715
     13  CB        22.1120    0.3230    4.7160 C.3    14  MET14       0.0427
     14  CG        22.8070    0.3210    3.3500 C.3    14  MET14       0.0599
     15  SD        24.4880   -0.4170    3.5150 S.3    14  MET14      -0.1393
     16  CE        25.3950    0.9160    4.3910 C.3    14  MET14       0.0692
     17  N         18.8030    0.9740    6.1860 N.am   15  ASP15      -0.1957
     18  CA        18.1970    1.1270    7.4680 C.3    15  ASP15       0.1840
     19  C         17.4820   -0.1890    7.9030 C.2    15  ASP15       0.2623
     20  O         16.9770   -0.9670    7.0580 O.2    15  ASP15      -0.2715
     21  CB        17.1140    2.2530    7.3150 C.3    15  ASP15       0.1450
     22  CG        16.6730    2.8670    8.5710 C.2    15  ASP15       0.3671
     23  OD1       17.2230    2.5360    9.6700 O.co2  15  ASP15      -0.2456
     24  OD2       15.7880    3.7890    8.5790 O.co2  15  ASP15      -0.2456
     25  N         17.3400   -0.3420    9.2210 N.am   16  GLY16      -0.1940
     26  CA        16.5970   -1.4870    9.7180 C.3    16  GLY16       0.2014
     27  C         17.4570   -2.5670   10.4150 C.2    16  GLY16       0.2639
     28  O         16.9170   -3.5590   10.8430 O.2    16  GLY16      -0.2714
     29  N         18.7650   -2.3610   10.5190 N.am   17  ASN17      -0.1958
     30  CA        19.6340   -3.4840   11.0270 C.3    17  ASN17       0.1819
     31  C         19.2200   -3.6670   12.5050 C.2    17  ASN17       0.2622
     32  O         19.2610   -4.8300   13.0040 O.2    17  ASN17      -0.2715
     33  CB        21.1030   -3.0370   11.0810 C.3    17  ASN17       0.1195
     34  CG        21.7500   -2.9020    9.6780 C.2    17  ASN17       0.2630
     35  OD1       22.8670   -2.2880    9.4880 O.2    17  ASN17      -0.2716
     36  ND2       21.0600   -3.3840    8.7090 N.am   17  ASN17      -0.0877
     37  N         18.9780   -2.5590   13.2250 N.am   18  GLY18      -0.1940
     38  CA        18.7010   -2.6400   14.7240 C.3    18  GLY18       0.2014
     39  C         17.4360   -3.3870   14.9510 C.2    18  GLY18       0.2638
     40  O         17.3500   -4.3370   15.7960 O.2    18  GLY18      -0.2714
     41  N         16.3950   -3.0630   14.1850 N.am   19  ARG19      -0.1977
     42  CA        15.1270   -3.6870   14.3260 C.3    19  ARG19       0.1597
     43  C         15.2290   -5.1860   13.9140 C.2    19  ARG19       0.2287
     44  O         14.5450   -6.0410   14.4430 O.2    19  ARG19      -0.2864
     45  CB        14.1310   -2.9820   13.3750 C.3    19  ARG19       0.0334
     46  CG        13.4670   -1.7960   14.0790 C.3    19  ARG19       0.0492
     47  CD        12.7040   -0.9480   13.0440 C.3    19  ARG19       0.2205
     48  NE        13.6880   -0.1230   12.3380 N.pl3  19  ARG19      -0.0865
     49  CZ        13.3330    0.7820   11.3820 C.cat  19  ARG19       0.5346
     50  NH1       12.0380    0.9020   11.0380 N.pl3  19  ARG19       0.1354
     51  NH2       14.2750    1.5180   10.7900 N.pl3  19  ARG19       0.1354
     52  N         21.8290   -5.0460   18.9420 N.3    28  ARG28      -0.1245
     53  CA        21.7930   -4.2600   17.7310 C.3    28  ARG28       0.1563
     54  C         23.0360   -4.5730   16.9010 C.2    28  ARG28       0.2260
     55  O         22.9380   -4.6560   15.7010 O.2    28  ARG28      -0.2867
     56  CB        21.7260   -2.7530   18.0570 C.3    28  ARG28       0.0307
     57  CG        20.4570   -2.3170   18.7520 C.3    28  ARG28       0.0489
     58  CD        20.4490   -0.8350   19.1080 C.3    28  ARG28       0.2205
     59  NE        20.8800   -0.0700   17.9870 N.pl3  28  ARG28      -0.0865
     60  CZ        20.1240    0.2630   16.9720 C.cat  28  ARG28       0.5346
     61  NH1       18.8740   -0.0360   16.9650 N.pl3  28  ARG28       0.1354
     62  NH2       20.6740    0.9170   15.9820 N.pl3  28  ARG28       0.1354
     63  N         24.0170   -5.0740   12.6310 N.3    32  HIS32      -0.1241
     64  CA        25.0120   -4.4240   11.7750 C.3    32  HIS32       0.1621
     65  C         25.9520   -5.4160   11.1330 C.2    32  HIS32       0.2264
     66  O         26.3490   -5.2750    9.9550 O.2    32  HIS32      -0.2867
     67  CB        25.8430   -3.4440   12.6090 C.3    32  HIS32       0.0745
     68  CG        25.0340   -2.2500   13.0400 C.ar   32  HIS32       0.0817
     69  ND1       24.0570   -1.6680   12.2330 N.ar   32  HIS32      -0.2268
     70  CD2       25.0500   -1.5410   14.2230 C.ar   32  HIS32       0.1154
     71  CE1       23.4660   -0.6670   12.9250 C.ar   32  HIS32       0.1986
     72  NE2       24.0720   -0.5600   14.1420 N.ar   32  HIS32      -0.2212
     73  N         24.0800   -6.6950    8.3400 N.3    35  GLY35      -0.1210
     74  CA        23.9320   -5.6250    7.3140 C.3    35  GLY35       0.1956
     75  C         25.2200   -5.4080    6.5200 C.2    35  GLY35       0.2611
     76  O         25.1820   -5.1620    5.3040 O.2    35  GLY35      -0.2717
     77  N         26.3960   -5.5950    7.1570 N.am   36  MET36      -0.1979
     78  CA        27.6610   -5.4960    6.4330 C.3    36  MET36       0.1605
     79  C         27.7580   -6.6740    5.4660 C.2    36  MET36       0.2287
     80  O         28.2680   -6.5390    4.3430 O.2    36  MET36      -0.2864
     81  CB        28.9020   -5.4610    7.4470 C.3    36  MET36       0.0413
     82  CG        30.3220   -5.5670    6.8150 C.3    36  MET36       0.0598
     83  SD        30.7670   -7.3080    6.4630 S.3    36  MET36      -0.1393
     84  CE        31.0030   -7.8770    8.1990 C.3    36  MET36       0.0692
     85  N         25.6680   -5.9550    2.2560 N.3    39  ILE39      -0.1245
     86  CA        26.3630   -5.0850    1.2860 C.3    39  ILE39       0.1561
     87  C         27.0400   -5.9430    0.1840 C.2    39  ILE39       0.2260
     88  O         27.0620   -5.5350   -0.9890 O.2    39  ILE39      -0.2867
     89  CB        27.4440   -4.2720    1.9880 C.3    39  ILE39       0.0252
     90  CG1       26.7400   -3.2890    2.9400 C.3    39  ILE39       0.0019
     91  CG2       28.3740   -3.5560    0.9960 C.3    39  ILE39       0.0019
     92  CD1       27.7880   -2.4050    3.6930 C.3    39  ILE39       0.0001
     93  N         24.9480    4.6560    2.4660 N.3    57  TYR57      -0.1227
     94  CA        24.9970    5.4660    3.6750 C.3    57  TYR57       0.1736
     95  C         25.4240    4.6580    4.8920 C.2    57  TYR57       0.2595
     96  O         24.6320    4.1290    5.5390 O.2    57  TYR57      -0.2718
     97  CB        23.6250    6.0740    3.9900 C.3    57  TYR57       0.0548
     98  CG        23.5630    7.3960    4.7750 C.ar   57  TYR57      -0.0200
     99  CD1       24.6930    8.1710    5.0200 C.ar   57  TYR57      -0.0009
    100  CD2       22.3650    7.8990    5.1500 C.ar   57  TYR57      -0.0009
    101  CE1       24.5980    9.3810    5.6430 C.ar   57  TYR57       0.0417
    102  CE2       22.2570    9.0970    5.7820 C.ar   57  TYR57       0.0417
    103  CZ        23.3820    9.8420    6.0370 C.ar   57  TYR57       0.1957
    104  OH        23.2300   11.0500    6.6590 O.3    57  TYR57      -0.2866
    105  N         26.6880    4.6320    5.1790 N.am   58  ALA58      -0.1966
    106  CA        27.2320    3.7830    6.2440 C.3    58  ALA58       0.1728
    107  C         27.2390    4.4390    7.5830 C.2    58  ALA58       0.2616
    108  O         27.0240    3.7480    8.5950 O.2    58  ALA58      -0.2715
    109  CB        28.6150    3.3870    5.8960 C.3    58  ALA58       0.0334
    110  N         27.5130    5.7400    7.6690 N.am   59  PHE59      -0.1974
    111  CA        27.4920    6.3210    8.9690 C.3    59  PHE59       0.1639
    112  C         27.3770    7.8310    8.7550 C.2    59  PHE59       0.2290
    113  O         28.2210    8.4320    8.0160 O.2    59  PHE59      -0.2864
    114  CB        28.8850    6.0270    9.6890 C.3    59  PHE59       0.0560
    115  CG        28.9020    6.4680   11.1670 C.ar   59  PHE59      -0.0200
    116  CD1       29.3390    7.7460   11.5110 C.ar   59  PHE59      -0.0042
    117  CD2       28.4270    5.5720   12.1920 C.ar   59  PHE59      -0.0042
    118  CE1       29.3110    8.1660   12.8870 C.ar   59  PHE59      -0.0003
    119  CE2       28.4200    5.9490   13.5370 C.ar   59  PHE59      -0.0003
    120  CZ        28.8780    7.2720   13.8970 C.ar   59  PHE59      -0.0000
    121  N         25.2510   10.2920   13.5100 N.3    63  ASN63      -0.1240
    122  CA        25.2260    8.9380   14.1280 C.3    63  ASN63       0.1653
    123  C         26.2540    8.9080   15.3060 C.2    63  ASN63       0.2266
    124  O         26.2010    7.9940   16.1260 O.2    63  ASN63      -0.2867
    125  CB        25.5870    7.8560   13.1160 C.3    63  ASN63       0.1155
    126  CG        24.3990    7.4580   12.1370 C.2    63  ASN63       0.2627
    127  OD1       24.6910    6.9700   11.0120 O.2    63  ASN63      -0.2716
    128  ND2       23.1530    7.5950   12.5560 N.am   63  ASN63      -0.0877
    129  N         25.0070    8.1430   18.8960 N.3    66  ARG66      -0.1245
    130  CA        24.6770    6.8000   19.3270 C.3    66  ARG66       0.1563
    131  C         25.7060    6.2880   20.3940 C.2    66  ARG66       0.2260
    132  O         26.7880    6.8180   20.5780 O.2    66  ARG66      -0.2867
    133  CB        24.6980    5.8360   18.1270 C.3    66  ARG66       0.0307
    134  CG        23.4710    6.1170   17.2160 C.3    66  ARG66       0.0489
    135  CD        23.4610    5.1540   16.0500 C.3    66  ARG66       0.2205
    136  NE        22.3200    5.4430   15.1400 N.pl3  66  ARG66      -0.0865
    137  CZ        21.8950    4.5150   14.2810 C.cat  66  ARG66       0.5346
    138  NH1       22.4030    3.2380   14.2920 N.pl3  66  ARG66       0.1354
    139  NH2       20.9190    4.8160   13.4200 N.pl3  66  ARG66       0.1354
    140  N         30.5060   -0.2800   14.3630 N.3    74  ILE74      -0.1245
    141  CA        30.3160    0.0870   12.9640 C.3    74  ILE74       0.1561
    142  C         31.5890    0.5660   12.3260 C.2    74  ILE74       0.2260
    143  O         31.9080    0.1900   11.1690 O.2    74  ILE74      -0.2867
    144  CB        29.3080    1.2690   12.8440 C.3    74  ILE74       0.0252
    145  CG1       27.9160    0.7510   13.2450 C.3    74  ILE74       0.0019
    146  CG2       29.3580    1.8340   11.4000 C.3    74  ILE74       0.0019
    147  CD1       26.9340    1.9170   13.6330 C.3    74  ILE74       0.0001
    148  N         33.7280   -2.4170   11.3140 N.3    77  LEU77      -0.1231
    149  CA        33.2020   -3.3110   10.2520 C.3    77  LEU77       0.1678
    150  C         33.9240   -3.2260    8.9000 C.2    77  LEU77       0.2434
    151  O         34.1100   -4.2650    8.2370 O.2    77  LEU77      -0.2733
    152  CB        31.6740   -3.1620   10.1040 C.3    77  LEU77       0.0284
    153  CG        30.8360   -3.9130   11.1750 C.3    77  LEU77       0.0019
    154  CD1       29.3760   -3.4810   11.0940 C.3    77  LEU77       0.0001
    155  CD2       30.9090   -5.4530   11.0760 C.3    77  LEU77       0.0001
    156  N         34.3480   -2.0280    8.4660 N.am   78  PRO78      -0.2729
    157  CA        35.0320   -2.0160    7.1710 C.3    78  PRO78       0.1401
    158  C         36.2880   -2.8770    7.1350 C.2    78  PRO78       0.2269
    159  O         36.6610   -3.3760    6.0650 O.2    78  PRO78      -0.2865
    160  CB        35.3930   -0.5010    6.9630 C.3    78  PRO78       0.0296
    161  CG        34.3030    0.1960    7.7290 C.3    78  PRO78       0.0237
    162  CD        34.2520   -0.6430    9.0000 C.3    78  PRO78       0.0939
    163  N         35.0380   -6.3550    6.5530 N.3    81  PHE81      -0.1227
    164  CA        34.4330   -6.4480    5.2140 C.3    81  PHE81       0.1736
    165  C         35.5500   -6.5340    4.1520 C.2    81  PHE81       0.2595
    166  O         35.5010   -7.4190    3.2470 O.2    81  PHE81      -0.2718
    167  CB        33.6250   -5.1130    4.9580 C.3    81  PHE81       0.0547
    168  CG        33.0710   -4.9970    3.5570 C.ar   81  PHE81      -0.0202
    169  CD1       31.7850   -5.4840    3.2550 C.ar   81  PHE81      -0.0042
    170  CD2       33.7950   -4.3100    2.5480 C.ar   81  PHE81      -0.0042
    171  CE1       31.2570   -5.2910    1.9700 C.ar   81  PHE81      -0.0003
    172  CE2       33.2490   -4.1120    1.2570 C.ar   81  PHE81      -0.0003
    173  CZ        31.9290   -4.5820    0.9900 C.ar   81  PHE81      -0.0000
    174  N         36.5670   -5.6610    4.2940 N.am   82  LEU82      -0.1980
    175  CA        37.5590   -5.5830    3.1910 C.3    82  LEU82       0.1596
    176  C         38.4730   -6.8260    3.2910 C.2    82  LEU82       0.2287
    177  O         38.9100   -7.3870    2.2510 O.2    82  LEU82      -0.2864
    178  CB        38.3400   -4.2440    3.2790 C.3    82  LEU82       0.0297
    179  CG        37.4410   -3.0420    2.9160 C.3    82  LEU82       0.0022
    180  CD1       38.1760   -1.7190    3.2870 C.3    82  LEU82       0.0001
    181  CD2       37.0480   -3.1120    1.4140 C.3    82  LEU82       0.0001
    182  N         31.3860    4.3150   -0.2470 N.3   130  PHE130     -0.1241
    183  CA        30.8960    4.3230    1.1320 C.3   130  PHE130      0.1605
    184  C         30.8060    5.7200    1.6950 C.2   130  PHE130      0.2264
    185  O         31.8150    6.4120    1.7220 O.2   130  PHE130     -0.2867
    186  CB        31.7940    3.4300    2.0370 C.3   130  PHE130      0.0534
    187  CG        31.7860    1.9630    1.5830 C.ar  130  PHE130     -0.0203
    188  CD1       30.6760    1.1820    1.7420 C.ar  130  PHE130     -0.0042
    189  CD2       32.8890    1.4350    0.9370 C.ar  130  PHE130     -0.0042
    190  CE1       30.6480   -0.1870    1.3640 C.ar  130  PHE130     -0.0003
    191  CE2       32.8520    0.0940    0.5100 C.ar  130  PHE130     -0.0003
    192  CZ        31.7540   -0.6670    0.7060 C.ar  130  PHE130     -0.0000
    193  N         30.8150    7.5140    4.7220 N.3   132  ILE132     -0.1245
    194  CA        31.2010    7.2200    6.1210 C.3   132  ILE132      0.1561
    195  C         31.6240    8.4870    6.8110 C.2   132  ILE132      0.2260
    196  O         32.4580    9.2080    6.2950 O.2   132  ILE132     -0.2867
    197  CB        32.3280    6.1680    6.1930 C.3   132  ILE132      0.0252
    198  CG1       32.0230    4.9130    5.4810 C.3   132  ILE132      0.0019
    199  CG2       32.5220    5.7600    7.6500 C.3   132  ILE132      0.0019
    200  CD1       33.3520    4.1310    5.3040 C.3   132  ILE132      0.0001
    201  N         17.0000   -3.8100    6.1630 N.3   210  TRP210     -0.1241
    202  CA        18.2610   -3.9810    5.3400 C.3   210  TRP210      0.1605
    203  C         18.8060   -5.4130    5.2960 C.2   210  TRP210      0.2264
    204  O         19.1100   -5.8560    4.1780 O.2   210  TRP210     -0.2867
    205  CB        19.3100   -2.9570    5.7550 C.3   210  TRP210      0.0550
    206  CG        20.5890   -3.1120    4.9870 C.ar  210  TRP210      0.0003
    207  CD1       21.7900   -3.5770    5.5160 C.ar  210  TRP210      0.0946
    208  CD2       20.8420   -2.9270    3.5510 C.ar  210  TRP210      0.0152
    209  NE1       22.7580   -3.6470    4.5490 N.ar  210  TRP210     -0.2442
    210  CE2       22.2430   -3.2510    3.3540 C.ar  210  TRP210      0.0810
    211  CE3       20.0730   -2.4890    2.4260 C.ar  210  TRP210      0.0012
    212  CZ2       22.8800   -3.1390    2.0810 C.ar  210  TRP210      0.0191
    213  CZ3       20.7150   -2.4330    1.1920 C.ar  210  TRP210      0.0001
    214  CH2       22.0930   -2.7420    1.0230 C.ar  210  TRP210      0.0015
@<TRIPOS>BOND
     1    88    87    2
     2   182   183    1
     3    87    86    1
     4   191   192   ar
     5   191   189   ar
     6   192   190   ar
     7   189   187   ar
     8   173   172   ar
     9   173   171   ar
    10    91    89    1
    11   214   213   ar
    12   214   212   ar
    13   183   184    1
    14   183   186    1
    15   213   211   ar
    16   172   170   ar
    17    86    89    1
    18    86    85    1
    19   190   188   ar
    20   181   179    1
    21     1     2    1
    22   187   188   ar
    23   187   186    1
    24   184   185    2
    25   171   169   ar
    26    89    90    1
    27   212   210   ar
    28   177   176    2
    29   211   208   ar
    30    93    94    1
    31   170   168   ar
    32     6     8    1
    33     6     5    1
    34   179   178    1
    35   179   180    1
    36    90    92    1
    37     2     5    1
    38     2     3    1
    39   175   178    1
    40   175   176    1
    41   175   174    1
    42   166   165    2
    43   169   168   ar
    44    14    15    1
    45    14    13    1
    46   210   208   ar
    47   210   209   ar
    48     5     7    1
    49     4     3    2
    50    15    16    1
    51   208   206   ar
    52   168   167    1
    53     3     9   am
    54    94    97    1
    55    94    95    1
    56    97    98    1
    57   165   174   am
    58   165   164    1
    59     9    10    1
    60   204   203    2
    61    80    79    2
    62   209   207   ar
    63    10    13    1
    64    10    11    1
    65   193   194    1
    66    98    99   ar
    67    98   100   ar
    68    95   105   am
    69    95    96    2
    70   167   164    1
    71   206   207   ar
    72   206   205    1
    73    99   101   ar
    74   100   102   ar
    75   105   106    1
    76   164   163    1
    77   203   202    1
    78   200   198    1
    79    76    75    2
    80   202   205    1
    81   202   201    1
    82    79    78    1
    83   198   197    1
    84   101   103   ar
    85   102   103   ar
    86   109   106    1
    87   103   104    1
    88    11    17   am
    89    11    12    2
    90   159   158    2
    91   194   197    1
    92   194   195    1
    93    17    18    1
    94   197   199    1
    95   106   107    1
    96   196   195    2
    97    78    77    1
    98    78    81    1
    99    83    82    1
   100    83    84    1
   101    75    77   am
   102    75    74    1
   103    82    81    1
   104   160   157    1
   105   160   161    1
   106    20    19    2
   107   158   157    1
   108   157   156    1
   109    74    73    1
   110    21    18    1
   111    21    22    1
   112    18    19    1
   113   107   110   am
   114   107   108    2
   115   110   111    1
   116   161   162    1
   117    19    25   am
   118   113   112    2
   119   151   150    2
   120   156   150   am
   121   156   162    1
   122    22    24   ar
   123    22    23   ar
   124    36    34   am
   125   112   111    1
   126   150   149    1
   127   111   114    1
   128    25    26    1
   129    35    34    2
   130    34    33    1
   131   114   115    1
   132    26    27    1
   133    66    65    2
   134   152   149    1
   135   152   153    1
   136   149   148    1
   137    27    29   am
   138    27    28    2
   139    29    30    1
   140    51    49    1
   141   127   126    2
   142    30    33    1
   143    30    31    1
   144    50    49    1
   145   155   153    1
   146   154   153    1
   147    65    64    1
   148   115   116   ar
   149   115   117   ar
   150   143   142    2
   151    49    48    2
   152   146   144    1
   153   116   118   ar
   154    64    67    1
   155    64    63    1
   156   126   128   am
   157   126   125    1
   158   117   119   ar
   159    69    71   ar
   160    69    68   ar
   161   142   141    1
   162    48    47    1
   163    31    32    2
   164    31    37   am
   165    67    68    1
   166   144   141    1
   167   144   145    1
   168   118   120   ar
   169    71    72   ar
   170   141   140    1
   171    68    70   ar
   172    47    46    1
   173   125   122    1
   174    37    38    1
   175   145   147    1
   176    45    46    1
   177    45    42    1
   178   139   137    1
   179   121   122    1
   180   119   120   ar
   181    43    42    1
   182    43    44    2
   183   122   123    1
   184    72    70   ar
   185    41    42    1
   186    41    39   am
   187   137   138    1
   188   137   136    2
   189    38    39    1
   190    39    40    2
   191   136   135    1
   192   123   124    2
   193    55    54    2
   194    62    60    1
   195   135   134    1
   196    54    53    1
   197    61    60    1
   198    60    59    2
   199   134   133    1
   200    53    56    1
   201    53    52    1
   202    59    58    1
   203    56    57    1
   204   133   130    1
   205    57    58    1
   206   129   130    1
   207   130   131    1
   208   131   132    2
