@<TRIPOS>MOLECULE
tmp/4u89A01.pdb
 91 93 0 0 0
SMALL
GASTEIGER

@<TRIPOS>ATOM
      1  N         16.9440   -3.5870   17.5820 N.2   137  PRO137     -0.2571
      2  CA        18.0450   -3.1230   18.3270 C.3   137  PRO137      0.2026
      3  C         18.1870   -3.7800   19.6900 C.2   137  PRO137      0.2683
      4  O         19.2880   -3.8320   20.2360 O.2   137  PRO137     -0.2709
      5  CB        17.8080   -1.6080   18.4830 C.2   137  PRO137      0.0085
      6  CG        16.6870   -1.2700   17.6330 C.2   137  PRO137      0.0180
      7  CD        16.0270   -2.4960   17.1400 C.2   137  PRO137      0.0938
      8  N         17.1140   -4.3360   20.2290 N.am  138  ARG138     -0.1959
      9  CA        17.1350   -5.0450   21.5060 C.3   138  ARG138      0.1729
     10  C         17.7490   -6.4230   21.4180 C.2   138  ARG138      0.2617
     11  O         18.1270   -6.9540   22.3910 O.2   138  ARG138     -0.2715
     12  CB        15.7300   -5.2450   22.0520 C.3   138  ARG138      0.0348
     13  CG        14.8920   -4.0000   22.2540 C.3   138  ARG138      0.0492
     14  CD        13.5580   -4.4000   22.8700 C.3   138  ARG138      0.2205
     15  NE        12.5790   -3.3230   22.8330 N.pl3 138  ARG138     -0.0865
     16  CZ        11.3670   -3.3900   22.2890 C.cat 138  ARG138      0.5346
     17  NH1       10.9200   -4.4880   21.6870 N.pl3 138  ARG138      0.1354
     18  NH2       10.6120   -2.3350   22.3210 N.pl3 138  ARG138      0.1354
     19  N         17.7630   -6.9990   20.2320 N.am  139  THR139     -0.1937
     20  CA        18.1360   -8.4440   20.0330 C.3   139  THR139      0.2028
     21  C         19.4040   -8.5920   19.2370 C.2   139  THR139      0.2642
     22  O         19.9500   -9.7310   19.2280 O.2   139  THR139     -0.2714
     23  CB        17.0210   -9.2350   19.3500 C.3   139  THR139      0.1808
     24  OG1       16.6800   -8.5600   18.0820 O.3   139  THR139     -0.2208
     25  CG2       15.7920   -9.3630   20.2560 C.3   139  THR139      0.0379
     26  N         19.9120   -7.4930   18.6260 N.am  140  MET140     -0.1963
     27  CA        21.0900   -7.5830   17.7290 C.3   140  MET140      0.1722
     28  C         22.2340   -6.7370   18.3260 C.2   140  MET140      0.2458
     29  O         21.9720   -5.6320   18.8310 O.2   140  MET140     -0.2730
     30  CB        20.7890   -7.0740   16.3080 C.3   140  MET140      0.0427
     31  CG        19.5770   -7.7950   15.6870 C.3   140  MET140      0.0599
     32  SD        19.8700   -9.4990   15.2460 S.3   140  MET140     -0.1393
     33  CE        20.6690   -9.2990   13.7040 C.3   140  MET140      0.0692
     34  N         23.4910   -7.2420   18.2560 N.am  141  PRO141     -0.2716
     35  CA        24.6630   -6.4170   18.7160 C.3   141  PRO141      0.1536
     36  C         24.7410   -5.1070   17.9240 C.2   141  PRO141      0.2598
     37  O         24.4070   -5.0820   16.7180 O.2   141  PRO141     -0.2715
     38  CB        25.9070   -7.3430   18.4420 C.3   141  PRO141      0.0310
     39  CG        25.3420   -8.7570   18.3380 C.3   141  PRO141      0.0237
     40  CD        23.9070   -8.6080   17.8320 C.3   141  PRO141      0.0939
     41  N         25.1560   -4.0200   18.5730 N.am  142  ALA142     -0.1978
     42  CA        25.1510   -2.7130   17.9230 C.3   142  ALA142      0.1597
     43  C         26.0720   -2.6400   16.6790 C.2   142  ALA142      0.2287
     44  O         25.8440   -1.8120   15.7630 O.2   142  ALA142     -0.2864
     45  CB        25.5800   -1.6630   18.9760 C.3   142  ALA142      0.0319
     46  N         20.3540  -13.5290   18.7090 N.3   180  THR180     -0.1203
     47  CA        21.7620  -13.5850   18.3470 C.3   180  THR180      0.1994
     48  C         22.4620  -14.6120   19.2620 C.2   180  THR180      0.2618
     49  O         22.2810  -14.6230   20.4920 O.2   180  THR180     -0.2717
     50  CB        22.3970  -12.2160   18.5360 C.3   180  THR180      0.1784
     51  OG1       21.6940  -11.2670   17.6990 O.3   180  THR180     -0.2211
     52  CG2       23.9370  -12.2250   18.1640 C.3   180  THR180      0.0376
     53  N         23.2850  -15.3950   18.6210 N.am  181  ASP181     -0.1959
     54  CA        24.1320  -16.3700   19.3640 C.3   181  ASP181      0.1840
     55  C         25.2010  -15.6430   20.1650 C.2   181  ASP181      0.2623
     56  O         25.5230  -14.4680   19.8480 O.2   181  ASP181     -0.2715
     57  CB        24.8150  -17.3370   18.3980 C.3   181  ASP181      0.1450
     58  CG        23.8630  -18.2380   17.6310 C.2   181  ASP181      0.3671
     59  OD1       22.7670  -18.5450   18.1150 O.co2 181  ASP181     -0.2456
     60  OD2       24.1380  -18.5790   16.4340 O.co2 181  ASP181     -0.2456
     61  N         25.7010  -16.2430   21.2280 N.am  182  SER182     -0.1936
     62  CA        26.5510  -15.4980   22.1380 C.3   182  SER182      0.2055
     63  C         27.8390  -15.0530   21.4470 C.2   182  SER182      0.2644
     64  O         28.4560  -14.0080   21.8590 O.2   182  SER182     -0.2714
     65  CB        26.8510  -16.3430   23.4090 C.3   182  SER182      0.2130
     66  OG        27.5850  -17.4860   23.0050 O.3   182  SER182     -0.2179
     67  N         28.2580  -15.7120   20.3550 N.am  183  THR183     -0.1936
     68  CA        29.4100  -15.2800   19.5860 C.3   183  THR183      0.2028
     69  C         29.2290  -13.9760   18.7420 C.2   183  THR183      0.2643
     70  O         30.2220  -13.3760   18.2980 O.2   183  THR183     -0.2714
     71  CB        29.9560  -16.4880   18.7640 C.3   183  THR183      0.1808
     72  OG1       28.7980  -17.0620   18.1030 O.3   183  THR183     -0.2208
     73  CG2       30.5590  -17.5810   19.7590 C.3   183  THR183      0.0379
     74  N         27.9780  -13.5520   18.5230 N.am  184  GLY184     -0.1939
     75  CA        27.6600  -12.2020   18.0660 C.3   184  GLY184      0.2014
     76  C         27.4940  -11.9980   16.5830 C.2   184  GLY184      0.2638
     77  O         26.9940  -10.9110   16.1880 O.2   184  GLY184     -0.2714
     78  N         27.7310  -13.0140   15.7540 N.am  185  TRP185     -0.1973
     79  CA        27.7190  -12.8740   14.2880 C.3   185  TRP185      0.1640
     80  C         26.7870  -13.8490   13.5740 C.2   185  TRP185      0.2290
     81  O         26.7810  -13.8820   12.3350 O.2   185  TRP185     -0.2864
     82  CB        29.1590  -13.0090   13.7390 C.3   185  TRP185      0.0576
     83  CG        30.0200  -11.9160   14.3120 C.ar  185  TRP185      0.0006
     84  CD1       30.7730  -11.9280   15.5120 C.ar  185  TRP185      0.0946
     85  CD2       30.1950  -10.5940   13.7620 C.ar  185  TRP185      0.0152
     86  NE1       31.4090  -10.7330   15.6990 N.ar  185  TRP185     -0.2442
     87  CE2       31.0940   -9.8680   14.6860 C.ar  185  TRP185      0.0810
     88  CE3       29.7340   -9.9520   12.6200 C.ar  185  TRP185      0.0012
     89  CZ2       31.4860   -8.5480   14.4430 C.ar  185  TRP185      0.0191
     90  CZ3       30.1420   -8.6150   12.3790 C.ar  185  TRP185      0.0001
     91  CH2       30.9950   -7.9260   13.2830 C.ar  185  TRP185      0.0015
@<TRIPOS>BOND
     1    81    80    2
     2    90    88   ar
     3    90    91   ar
     4    88    85   ar
     5    91    89   ar
     6    80    79    1
     7    33    32    1
     8    82    79    1
     9    82    83    1
    10    85    83   ar
    11    85    87   ar
    12    79    78    1
    13    83    84   ar
    14    89    87   ar
    15    87    86   ar
    16    32    31    1
    17    84    86   ar
    18    31    30    1
    19    78    76   am
    20    44    43    2
    21    77    76    2
    22    30    27    1
    23    60    58   ar
    24    76    75    1
    25    43    42    1
    26    37    36    2
    27     7     1    2
    28     7     6    1
    29     1     2    1
    30    58    59   ar
    31    58    57    1
    32     6     5    2
    33    51    50    1
    34    27    28    1
    35    27    26    1
    36    40    34    1
    37    40    39    1
    38    42    41    1
    39    42    45    1
    40    36    41   am
    41    36    35    1
    42    75    74    1
    43    24    23    1
    44    72    71    1
    45    52    50    1
    46    34    28   am
    47    34    35    1
    48    70    69    2
    49    28    29    2
    50     2     5    1
    51     2     3    1
    52    39    38    1
    53    47    50    1
    54    47    46    1
    55    47    48    1
    56    57    54    1
    57    38    35    1
    58    74    69   am
    59    53    48   am
    60    53    54    1
    61    26    21   am
    62    69    68    1
    63    71    68    1
    64    71    73    1
    65    22    21    2
    66    21    20    1
    67    48    49    2
    68    23    20    1
    69    23    25    1
    70    54    55    1
    71    68    67    1
    72     3     8   am
    73     3     4    2
    74    56    55    2
    75    20    19    1
    76    55    61   am
    77     8     9    1
    78    19    10   am
    79    67    63   am
    80    61    62    1
    81    10     9    1
    82    10    11    2
    83    63    64    2
    84    63    62    1
    85     9    12    1
    86    17    16    1
    87    12    13    1
    88    62    65    1
    89    13    14    1
    90    16    18    1
    91    16    15    2
    92    15    14    1
    93    66    65    1
