@<TRIPOS>MOLECULE
tmp/4u8pB02.pdb
 80 79 0 0 0
SMALL
GASTEIGER

@<TRIPOS>ATOM
      1  N         46.1450  106.3830  217.8700 N.3   285  THR285     -0.1203
      2  CA        44.7190  106.5590  217.5500 C.3   285  THR285      0.1994
      3  C         44.5540  107.4930  216.3500 C.2   285  THR285      0.2617
      4  O         43.5760  107.4010  215.6110 O.2   285  THR285     -0.2717
      5  CB        43.8930  107.0960  218.7380 C.3   285  THR285      0.1784
      6  OG1       44.4410  108.3380  219.2070 O.3   285  THR285     -0.2211
      7  CG2       43.8450  106.0740  219.8710 C.3   285  THR285      0.0376
      8  N         45.5320  108.3650  216.1270 N.am  286  LYS286     -0.1979
      9  CA        45.4780  109.2510  214.9730 C.3   286  LYS286      0.1596
     10  C         45.7380  108.5160  213.6530 C.2   286  LYS286      0.2287
     11  O         45.5160  109.0760  212.5810 O.2   286  LYS286     -0.2864
     12  CB        46.4640  110.4120  215.1540 C.3   286  LYS286      0.0298
     13  CG        45.9300  111.5120  216.0740 C.3   286  LYS286      0.0038
     14  CD        46.8990  112.6850  216.1840 C.3   286  LYS286      0.0206
     15  CE        46.1870  113.9490  216.6420 C.3   286  LYS286      0.1093
     16  NZ        45.4020  113.7370  217.8900 N.3   286  LYS286     -0.1314
     17  N         43.9200  105.9110  212.9640 N.3   288  LEU288     -0.1231
     18  CA        42.5780  105.4320  212.6440 C.3   288  LEU288      0.1693
     19  C         41.8990  106.4750  211.7790 C.2   288  LEU288      0.2592
     20  O         42.3770  107.5980  211.6820 O.2   288  LEU288     -0.2718
     21  CB        41.7580  105.1820  213.9150 C.3   288  LEU288      0.0284
     22  CG        42.3460  104.1530  214.8820 C.3   288  LEU288      0.0019
     23  CD1       41.6130  104.1640  216.2160 C.3   288  LEU288      0.0001
     24  CD2       42.2690  102.7640  214.2350 C.3   288  LEU288      0.0001
     25  N         40.7810  106.1250  211.1600 N.am  289  PHE289     -0.1962
     26  CA        40.0840  107.0960  210.3290 C.3   289  PHE289      0.1771
     27  C         38.5870  107.0310  210.6120 C.2   289  PHE289      0.2620
     28  O         38.0440  105.9700  210.8870 O.2   289  PHE289     -0.2715
     29  CB        40.3820  106.8420  208.8450 C.3   289  PHE289      0.0574
     30  CG        40.0690  108.0100  207.9440 C.ar  289  PHE289     -0.0200
     31  CD1       38.7950  108.1840  207.4250 C.ar  289  PHE289     -0.0042
     32  CD2       41.0580  108.9280  207.6060 C.ar  289  PHE289     -0.0042
     33  CE1       38.5040  109.2580  206.5870 C.ar  289  PHE289     -0.0003
     34  CE2       40.7760  110.0060  206.7750 C.ar  289  PHE289     -0.0003
     35  CZ        39.4960  110.1630  206.2550 C.ar  289  PHE289     -0.0000
     36  N         37.9280  108.1790  210.5840 N.am  290  TYR290     -0.1960
     37  CA        36.4810  108.2180  210.7460 C.3   290  TYR290      0.1771
     38  C         35.8940  109.3000  209.8510 C.2   290  TYR290      0.2620
     39  O         36.6040  110.2140  209.4130 O.2   290  TYR290     -0.2715
     40  CB        36.0940  108.4770  212.2070 C.3   290  TYR290      0.0574
     41  CG        36.5430  109.8240  212.7330 C.ar  290  TYR290     -0.0198
     42  CD1       37.7770  109.9680  213.3550 C.ar  290  TYR290     -0.0009
     43  CD2       35.7320  110.9480  212.6100 C.ar  290  TYR290     -0.0009
     44  CE1       38.1960  111.1890  213.8350 C.ar  290  TYR290      0.0417
     45  CE2       36.1400  112.1770  213.0900 C.ar  290  TYR290      0.0417
     46  CZ        37.3700  112.2900  213.7000 C.ar  290  TYR290      0.1957
     47  OH        37.7820  113.5070  214.1740 O.3   290  TYR290     -0.2866
     48  N         34.6030  109.1840  209.5760 N.am  291  SER291     -0.1936
     49  CA        33.8850  110.2330  208.8840 C.3   291  SER291      0.2055
     50  C         32.9300  110.8990  209.8570 C.2   291  SER291      0.2643
     51  O         32.5270  110.2970  210.8580 O.2   291  SER291     -0.2714
     52  CB        33.1220  109.6860  207.6760 C.3   291  SER291      0.2130
     53  OG        32.4070  108.5250  208.0280 O.3   291  SER291     -0.2179
     54  N         32.6060  112.1570  209.5710 N.am  292  SER292     -0.1949
     55  CA        31.5860  112.8940  210.3070 C.3   292  SER292      0.1924
     56  C         30.2440  112.7460  209.5940 C.2   292  SER292      0.2314
     57  O         30.2050  112.5440  208.3810 O.2   292  SER292     -0.2863
     58  CB        31.9710  114.3750  210.4190 C.3   292  SER292      0.2116
     59  OG        33.2080  114.5160  211.1060 O.3   292  SER292     -0.2180
     60  N         31.1550  113.4250  205.8030 N.3   374  GLU374     -0.1231
     61  CA        32.2360  114.3840  205.6730 C.3   374  GLU374      0.1699
     62  C         33.5270  113.7650  206.1770 C.2   374  GLU374      0.2593
     63  O         33.5180  113.0120  207.1520 O.2   374  GLU374     -0.2718
     64  CB        31.9230  115.6660  206.4560 C.3   374  GLU374      0.0402
     65  CG        33.0730  116.6780  206.5030 C.3   374  GLU374      0.1161
     66  CD        32.9300  117.6920  207.6400 C.2   374  GLU374      0.3649
     67  OE1       31.8100  118.1990  207.8680 O.co2 374  GLU374     -0.2457
     68  OE2       33.9400  117.9700  208.3220 O.co2 374  GLU374     -0.2457
     69  N         34.6310  114.0760  205.5030 N.am  375  SER375     -0.1938
     70  CA        35.9550  113.6980  205.9800 C.3   375  SER375      0.2055
     71  C         37.0090  114.6080  205.3620 C.2   375  SER375      0.2643
     72  O         36.6890  115.4610  204.5420 O.2   375  SER375     -0.2714
     73  CB        36.2760  112.2440  205.6400 C.3   375  SER375      0.2130
     74  OG        36.6710  112.1460  204.2840 O.3   375  SER375     -0.2179
     75  N         38.2710  114.4050  205.7230 N.am  376  SER376     -0.1949
     76  CA        39.3540  115.1660  205.1040 C.3   376  SER376      0.1924
     77  C         39.4550  114.8500  203.6120 C.2   376  SER376      0.2314
     78  O         40.1080  115.5660  202.8640 O.2   376  SER376     -0.2863
     79  CB        40.6820  114.8650  205.7920 C.3   376  SER376      0.2116
     80  OG        40.9310  113.4750  205.7230 O.3   376  SER376     -0.2180
@<TRIPOS>BOND
     1    78    77    2
     2    77    76    1
     3    74    73    1
     4    72    71    2
     5    76    75    1
     6    76    79    1
     7    71    75   am
     8    71    70    1
     9    69    70    1
    10    69    62   am
    11    73    70    1
    12    61    60    1
    13    61    62    1
    14    61    64    1
    15    80    79    1
    16    62    63    2
    17    35    33   ar
    18    35    34   ar
    19    64    65    1
    20    65    66    1
    21    33    31   ar
    22    34    32   ar
    23    31    30   ar
    24    32    30   ar
    25    66    67   ar
    26    66    68   ar
    27    52    53    1
    28    52    49    1
    29    30    29    1
    30    57    56    2
    31    29    26    1
    32    49    48    1
    33    49    50    1
    34    39    38    2
    35    54    50   am
    36    54    55    1
    37    48    38   am
    38    56    55    1
    39    38    37    1
    40    50    51    2
    41    55    58    1
    42    26    27    1
    43    26    25    1
    44    58    59    1
    45    36    27   am
    46    36    37    1
    47    27    28    2
    48    37    40    1
    49    25    19   am
    50    20    19    2
    51    19    18    1
    52    40    41    1
    53    11    10    2
    54    43    41   ar
    55    43    45   ar
    56    18    17    1
    57    18    21    1
    58    41    42   ar
    59    45    46   ar
    60    42    44   ar
    61    10     9    1
    62    46    44   ar
    63    46    47    1
    64    21    22    1
    65    24    22    1
    66    22    23    1
    67     9    12    1
    68     9     8    1
    69    12    13    1
    70     4     3    2
    71    13    14    1
    72     8     3   am
    73    14    15    1
    74     3     2    1
    75    15    16    1
    76     2     1    1
    77     2     5    1
    78     5     6    1
    79     5     7    1
