@<TRIPOS>MOLECULE
tmp/4u8uA00.pdb
 219 208 0 0 0
SMALL
GASTEIGER

@<TRIPOS>ATOM
      1  N         33.1540   19.3020  -82.8960 N.3    35  PHE35      -0.1241
      2  CA        31.9350   19.3540  -83.7090 C.3    35  PHE35       0.1605
      3  C         31.7340   18.1720  -84.6310 C.2    35  PHE35       0.2264
      4  O         30.6010   17.7860  -84.8860 O.2    35  PHE35      -0.2867
      5  CB        31.8270   20.6600  -84.4840 C.3    35  PHE35       0.0534
      6  CG        31.5470   21.8110  -83.6090 C.ar   35  PHE35      -0.0203
      7  CD1       30.2730   22.0240  -83.1160 C.ar   35  PHE35      -0.0042
      8  CD2       32.5700   22.6460  -83.2130 C.ar   35  PHE35      -0.0042
      9  CE1       30.0290   23.0700  -82.2800 C.ar   35  PHE35      -0.0003
     10  CE2       32.3270   23.6970  -82.3740 C.ar   35  PHE35      -0.0003
     11  CZ        31.0660   23.8990  -81.9060 C.ar   35  PHE35      -0.0000
     12  N         30.1050   15.9490  -82.2800 N.3    38  LEU38      -0.1245
     13  CA        28.7370   16.3970  -82.0280 C.3    38  LEU38       0.1561
     14  C         27.7950   16.0000  -83.1590 C.2    38  LEU38       0.2260
     15  O         26.7520   15.3960  -82.9220 O.2    38  LEU38      -0.2867
     16  CB        28.6920   17.9120  -81.8320 C.3    38  LEU38       0.0270
     17  CG        27.2810   18.4680  -81.6420 C.3    38  LEU38       0.0019
     18  CD1       26.5990   17.7870  -80.4640 C.3    38  LEU38       0.0001
     19  CD2       27.3050   19.9770  -81.4570 C.3    38  LEU38       0.0001
     20  N         21.7300   18.6390  -85.5470 N.3    45  ALA45      -0.1245
     21  CA        22.2870   19.9300  -85.1580 C.3    45  ALA45       0.1562
     22  C         23.1450   20.5630  -86.2550 C.2    45  ALA45       0.2260
     23  O         23.3410   21.7800  -86.2740 O.2    45  ALA45      -0.2867
     24  CB        23.0850   19.7930  -83.8670 C.3    45  ALA45       0.0290
     25  N         22.0530   23.6180  -88.1790 N.3    48  LEU48      -0.1231
     26  CA        22.0340   24.9130  -87.5020 C.3    48  LEU48       0.1693
     27  C         23.2210   25.8010  -87.8720 C.2    48  LEU48       0.2592
     28  O         23.2630   26.9740  -87.5050 O.2    48  LEU48      -0.2718
     29  CB        21.9770   24.7190  -85.9830 C.3    48  LEU48       0.0284
     30  CG        20.7160   24.0600  -85.4120 C.3    48  LEU48       0.0019
     31  CD1       20.9380   23.6110  -83.9740 C.3    48  LEU48       0.0001
     32  CD2       19.5270   25.0090  -85.4910 C.3    48  LEU48       0.0001
     33  N         24.1780   25.2490  -88.6080 N.am   49  PHE49      -0.1976
     34  CA        25.4130   25.9730  -88.8920 C.3    49  PHE49       0.1639
     35  C         25.6290   26.2640  -90.3670 C.2    49  PHE49       0.2290
     36  O         26.7600   26.4850  -90.8030 O.2    49  PHE49      -0.2864
     37  CB        26.6110   25.2110  -88.3290 C.3    49  PHE49       0.0560
     38  CG        26.5140   24.9580  -86.8600 C.ar   49  PHE49      -0.0200
     39  CD1       26.7220   25.9890  -85.9620 C.ar   49  PHE49      -0.0042
     40  CD2       26.1930   23.7010  -86.3750 C.ar   49  PHE49      -0.0042
     41  CE1       26.6160   25.7730  -84.6150 C.ar   49  PHE49      -0.0003
     42  CE2       26.0920   23.4780  -85.0190 C.ar   49  PHE49      -0.0003
     43  CZ        26.3070   24.5190  -84.1360 C.ar   49  PHE49      -0.0000
     44  N         24.8370   28.8720  -91.7800 N.3    51  ARG51      -0.1231
     45  CA        25.2180   30.2790  -91.8330 C.3    51  ARG51       0.1694
     46  C         26.7350   30.4690  -91.7940 C.2    51  ARG51       0.2591
     47  O         27.2660   31.4290  -92.3500 O.2    51  ARG51      -0.2718
     48  CB        24.5540   31.0450  -90.6820 C.3    51  ARG51       0.0321
     49  CG        24.1250   32.4700  -91.0260 C.3    51  ARG51       0.0489
     50  CD        25.2920   33.4500  -90.9830 C.3    51  ARG51       0.2205
     51  NE        25.6340   33.8350  -89.6180 N.pl3  51  ARG51      -0.0865
     52  CZ        26.7890   34.3860  -89.2640 C.cat  51  ARG51       0.5346
     53  NH1       27.7230   34.6100  -90.1770 N.pl3  51  ARG51       0.1354
     54  NH2       27.0130   34.7040  -87.9960 N.pl3  51  ARG51       0.1354
     55  N         27.4230   29.4530  -91.3470 N.am   52  VAL52      -0.1980
     56  CA        28.8500   29.5120  -91.3040 C.3    52  VAL52       0.1595
     57  C         29.4840   28.4720  -92.1760 C.2    52  VAL52       0.2287
     58  O         30.6510   28.3280  -92.1720 O.2    52  VAL52      -0.2864
     59  CB        29.3440   29.2840  -89.8990 C.3    52  VAL52       0.0276
     60  CG1       28.7850   30.3370  -88.9970 C.3    52  VAL52       0.0022
     61  CG2       28.9050   27.9310  -89.4330 C.3    52  VAL52       0.0022
     62  N         34.4510   30.7170  -87.1550 N.3    65  HIS65      -0.1241
     63  CA        33.4210   30.3180  -86.2200 C.3    65  HIS65       0.1621
     64  C         33.9740   29.4490  -85.0950 C.2    65  HIS65       0.2264
     65  O         33.7480   29.7320  -83.9170 O.2    65  HIS65      -0.2867
     66  CB        32.3050   29.5760  -86.9260 C.3    65  HIS65       0.0745
     67  CG        31.2840   29.0370  -85.9860 C.ar   65  HIS65       0.0817
     68  ND1       30.4210   29.8520  -85.2860 N.ar   65  HIS65      -0.2268
     69  CD2       31.0150   27.7710  -85.5950 C.ar   65  HIS65       0.1154
     70  CE1       29.6450   29.1070  -84.5250 C.ar   65  HIS65       0.1986
     71  NE2       29.9840   27.8400  -84.6950 N.ar   65  HIS65      -0.2212
     72  N         35.7590   31.3810  -82.7650 N.3    68  ARG68      -0.1231
     73  CA        34.8220   32.1330  -81.9320 C.3    68  ARG68       0.1694
     74  C         34.3530   31.2900  -80.7480 C.2    68  ARG68       0.2591
     75  O         34.2540   31.7800  -79.6200 O.2    68  ARG68      -0.2718
     76  CB        33.6320   32.6140  -82.7680 C.3    68  ARG68       0.0321
     77  CG        33.4020   34.1190  -82.7460 C.3    68  ARG68       0.0489
     78  CD        33.1030   34.6520  -84.1480 C.3    68  ARG68       0.2205
     79  NE        32.0460   33.8960  -84.8220 N.pl3  68  ARG68      -0.0865
     80  CZ        32.0600   33.5830  -86.1150 C.cat  68  ARG68       0.5346
     81  NH1       33.0790   33.9610  -86.8770 N.pl3  68  ARG68       0.1354
     82  NH2       31.0570   32.8900  -86.6400 N.pl3  68  ARG68       0.1354
     83  N         34.0780   30.0160  -81.0090 N.am   69  VAL69      -0.1980
     84  CA        33.6560   29.0980  -79.9560 C.3    69  VAL69       0.1595
     85  C         34.7590   28.9150  -78.9450 C.2    69  VAL69       0.2287
     86  O         34.5560   29.1090  -77.7500 O.2    69  VAL69      -0.2864
     87  CB        33.4080   27.6930  -80.4940 C.3    69  VAL69       0.0276
     88  CG1       32.6480   26.8650  -79.4690 C.3    69  VAL69       0.0022
     89  CG2       32.7090   27.7510  -81.8230 C.3    69  VAL69       0.0022
     90  N         35.2630   31.6490  -76.8650 N.3    72  GLY72      -0.1210
     91  CA        34.1270   31.8260  -75.9780 C.3    72  GLY72       0.1956
     92  C         34.2980   30.9820  -74.7330 C.2    72  GLY72       0.2611
     93  O         34.0650   31.4360  -73.6050 O.2    72  GLY72      -0.2717
     94  N         34.7190   29.7420  -74.9520 N.am   73  LEU73      -0.1979
     95  CA        34.9940   28.8010  -73.8790 C.3    73  LEU73       0.1596
     96  C         36.1550   29.3070  -73.0230 C.2    73  LEU73       0.2287
     97  O         36.0920   29.2520  -71.7960 O.2    73  LEU73      -0.2864
     98  CB        35.3150   27.4310  -74.4690 C.3    73  LEU73       0.0297
     99  CG        35.2380   26.2440  -73.5220 C.3    73  LEU73       0.0022
    100  CD1       33.9390   26.2900  -72.7740 C.3    73  LEU73       0.0001
    101  CD2       35.3630   24.9490  -74.3050 C.3    73  LEU73       0.0001
    102  N         34.8980   31.8970  -70.8070 N.3    76  LEU76      -0.1245
    103  CA        34.1590   31.2950  -69.6980 C.3    76  LEU76       0.1561
    104  C         35.0860   30.7880  -68.5970 C.2    76  LEU76       0.2260
    105  O         34.9120   31.1110  -67.4180 O.2    76  LEU76      -0.2867
    106  CB        33.2660   30.1540  -70.1910 C.3    76  LEU76       0.0270
    107  CG        32.0310   30.5820  -70.9830 C.3    76  LEU76       0.0019
    108  CD1       31.0310   29.4490  -71.0680 C.3    76  LEU76       0.0001
    109  CD2       31.4010   31.8200  -70.3550 C.3    76  LEU76       0.0001
    110  N         25.9900   35.0520  -73.5490 N.3    93  LEU93      -0.1245
    111  CA        26.1580   33.9000  -74.4180 C.3    93  LEU93       0.1561
    112  C         24.8270   33.1750  -74.5950 C.2    93  LEU93       0.2260
    113  O         24.4770   32.7350  -75.7030 O.2    93  LEU93      -0.2867
    114  CB        27.1960   32.9580  -73.8160 C.3    93  LEU93       0.0270
    115  CG        27.8750   31.9910  -74.7760 C.3    93  LEU93       0.0019
    116  CD1       28.4550   32.7480  -75.9650 C.3    93  LEU93       0.0001
    117  CD2       28.9580   31.2370  -74.0360 C.3    93  LEU93       0.0001
    118  N         22.5860   35.1010  -76.9690 N.3    96  GLN96      -0.1231
    119  CA        23.1550   34.8360  -78.2870 C.3    96  GLN96       0.1698
    120  C         22.6860   33.4860  -78.8290 C.2    96  GLN96       0.2592
    121  O         22.4560   33.3350  -80.0310 O.2    96  GLN96      -0.2718
    122  CB        24.6810   34.8790  -78.2430 C.3    96  GLN96       0.0381
    123  CG        25.2490   36.2680  -78.0460 C.3    96  GLN96       0.0905
    124  CD        26.7450   36.3290  -78.2930 C.2    96  GLN96       0.2608
    125  OE1       27.4730   35.3750  -78.0130 O.2    96  GLN96      -0.2717
    126  NE2       27.2100   37.4530  -78.8310 N.am   96  GLN96      -0.0878
    127  N         22.5330   32.5080  -77.9420 N.am   97  HIS97      -0.1976
    128  CA        22.0470   31.1970  -78.3680 C.3    97  HIS97       0.1656
    129  C         20.5260   31.0810  -78.4510 C.2    97  HIS97       0.2291
    130  O         20.0110   30.1680  -79.0930 O.2    97  HIS97      -0.2864
    131  CB        22.6250   30.0860  -77.4900 C.3    97  HIS97       0.0771
    132  CG        23.9970   29.6580  -77.8990 C.ar   97  HIS97       0.0820
    133  ND1       25.1310   30.3600  -77.5500 N.ar   97  HIS97      -0.2267
    134  CD2       24.4170   28.6110  -78.6470 C.ar   97  HIS97       0.1154
    135  CE1       26.1910   29.7560  -78.0570 C.ar   97  HIS97       0.1986
    136  NE2       25.7860   28.6930  -78.7260 N.ar   97  HIS97      -0.2212
    137  N         19.1610   31.9960  -81.9280 N.3   100  ARG100     -0.1245
    138  CA        19.2140   30.8880  -82.8720 C.3   100  ARG100      0.1563
    139  C         18.1630   29.8350  -82.5480 C.2   100  ARG100      0.2260
    140  O         18.2610   29.1290  -81.5430 O.2   100  ARG100     -0.2867
    141  CB        20.6100   30.2640  -82.8860 C.3   100  ARG100      0.0307
    142  CG        21.6730   31.2210  -83.3650 C.3   100  ARG100      0.0489
    143  CD        21.3670   31.6640  -84.7740 C.3   100  ARG100      0.2205
    144  NE        22.0540   32.9020  -85.1210 N.pl3 100  ARG100     -0.0865
    145  CZ        22.2480   33.3220  -86.3670 C.cat 100  ARG100      0.5346
    146  NH1       21.8130   32.5930  -87.3900 N.pl3 100  ARG100      0.1354
    147  NH2       22.8860   34.4650  -86.5920 N.pl3 100  ARG100      0.1354
    148  N         18.1820   25.4020  -81.4830 N.3   103  VAL103     -0.1245
    149  CA        19.2040   25.0370  -80.5160 C.3   103  VAL103      0.1561
    150  C         18.5480   24.6020  -79.2070 C.2   103  VAL103      0.2260
    151  O         17.8460   25.3840  -78.5610 O.2   103  VAL103     -0.2867
    152  CB        20.1790   26.2010  -80.2730 C.3   103  VAL103      0.0252
    153  CG1       21.1590   25.8540  -79.1660 C.3   103  VAL103      0.0019
    154  CG2       20.9170   26.5420  -81.5580 C.3   103  VAL103      0.0019
    155  N         21.1460   19.2600  -77.3340 N.3   107  PHE107     -0.1227
    156  CA        22.3480   19.5370  -78.1170 C.3   107  PHE107      0.1736
    157  C         23.5110   19.9660  -77.2190 C.2   107  PHE107      0.2595
    158  O         24.6700   19.6610  -77.5040 O.2   107  PHE107     -0.2718
    159  CB        22.0740   20.6040  -79.1790 C.3   107  PHE107      0.0547
    160  CG        21.2960   20.1020  -80.3640 C.ar  107  PHE107     -0.0202
    161  CD1       21.2770   18.7530  -80.6820 C.ar  107  PHE107     -0.0042
    162  CD2       20.5890   20.9870  -81.1650 C.ar  107  PHE107     -0.0042
    163  CE1       20.5610   18.2920  -81.7750 C.ar  107  PHE107     -0.0003
    164  CE2       19.8710   20.5360  -82.2590 C.ar  107  PHE107     -0.0003
    165  CZ        19.8550   19.1860  -82.5640 C.ar  107  PHE107     -0.0000
    166  N         23.1990   20.6650  -76.1320 N.am  108  PHE108     -0.1976
    167  CA        24.2260   21.0680  -75.1740 C.3   108  PHE108      0.1639
    168  C         24.7850   19.8890  -74.3760 C.2   108  PHE108      0.2290
    169  O         26.0000   19.7840  -74.1960 O.2   108  PHE108     -0.2864
    170  CB        23.7180   22.1650  -74.2450 C.3   108  PHE108      0.0560
    171  CG        24.0210   23.5440  -74.7330 C.ar  108  PHE108     -0.0200
    172  CD1       23.2370   24.1360  -75.7080 C.ar  108  PHE108     -0.0042
    173  CD2       25.0950   24.2520  -74.2200 C.ar  108  PHE108     -0.0042
    174  CE1       23.5180   25.4150  -76.1650 C.ar  108  PHE108     -0.0003
    175  CE2       25.3840   25.5330  -74.6690 C.ar  108  PHE108     -0.0003
    176  CZ        24.5940   26.1150  -75.6450 C.ar  108  PHE108     -0.0000
    177  N         27.1140   18.2570  -76.7470 N.3   111  ILE111     -0.1245
    178  CA        28.4160   18.8970  -76.9280 C.3   111  ILE111      0.1561
    179  C         29.3010   18.7270  -75.7000 C.2   111  ILE111      0.2260
    180  O         30.5260   18.6780  -75.8170 O.2   111  ILE111     -0.2867
    181  CB        28.3330   20.3870  -77.3410 C.3   111  ILE111      0.0252
    182  CG1       29.5890   20.7750  -78.1250 C.3   111  ILE111      0.0019
    183  CG2       28.1540   21.2850  -76.1280 C.3   111  ILE111      0.0019
    184  CD1       29.6370   22.2200  -78.5320 C.3   111  ILE111      0.0001
    185  N         32.9990   17.1760  -76.0580 N.3   115  PHE115     -0.1241
    186  CA        34.1490   17.8210  -75.4260 C.3   115  PHE115      0.1605
    187  C         34.8850   16.8120  -74.5550 C.2   115  PHE115      0.2264
    188  O         36.0960   16.6240  -74.6930 O.2   115  PHE115     -0.2867
    189  CB        33.7010   19.0020  -74.5710 C.3   115  PHE115      0.0534
    190  CG        33.6750   20.3060  -75.3050 C.ar  115  PHE115     -0.0203
    191  CD1       34.7730   20.7350  -76.0150 C.ar  115  PHE115     -0.0042
    192  CD2       32.5490   21.0990  -75.2890 C.ar  115  PHE115     -0.0042
    193  CE1       34.7480   21.9350  -76.6870 C.ar  115  PHE115     -0.0003
    194  CE2       32.5240   22.2920  -75.9580 C.ar  115  PHE115     -0.0003
    195  CZ        33.6200   22.7110  -76.6580 C.ar  115  PHE115     -0.0000
    196  N         31.4750   21.8090  -66.6320 N.3   135  PHE135     -0.1241
    197  CA        30.7510   22.0390  -67.8650 C.3   135  PHE135      0.1605
    198  C         29.2710   22.0110  -67.5670 C.2   135  PHE135      0.2264
    199  O         28.5450   22.8750  -68.0330 O.2   135  PHE135     -0.2867
    200  CB        31.0670   20.9800  -68.9120 C.3   135  PHE135      0.0534
    201  CG        30.5470   21.3180  -70.2780 C.ar  135  PHE135     -0.0203
    202  CD1       29.2000   21.1870  -70.5920 C.ar  135  PHE135     -0.0042
    203  CD2       31.4090   21.7680  -71.2530 C.ar  135  PHE135     -0.0042
    204  CE1       28.7310   21.5030  -71.8520 C.ar  135  PHE135     -0.0003
    205  CE2       30.9500   22.0820  -72.5120 C.ar  135  PHE135     -0.0003
    206  CZ        29.6080   21.9500  -72.8130 C.ar  135  PHE135     -0.0000
    207  N         26.9750   25.0050  -69.0530 N.3   139  ALA139     -0.1245
    208  CA        25.9430   24.6950  -70.0320 C.3   139  ALA139      0.1562
    209  C         24.5380   24.8480  -69.4680 C.2   139  ALA139      0.2260
    210  O         23.6670   25.4090  -70.1310 O.2   139  ALA139     -0.2867
    211  CB        26.1340   23.2910  -70.5730 C.3   139  ALA139      0.0290
    212  N         23.8320   28.4130  -69.7270 N.3   142  ILE142     -0.1245
    213  CA        23.7040   28.8760  -71.1090 C.3   142  ILE142      0.1561
    214  C         22.4170   28.3590  -71.7480 C.2   142  ILE142      0.2260
    215  O         21.6970   29.1020  -72.4230 O.2   142  ILE142     -0.2867
    216  CB        24.8910   28.4260  -71.9850 C.3   142  ILE142      0.0252
    217  CG1       26.2100   28.9720  -71.4360 C.3   142  ILE142      0.0019
    218  CG2       24.6890   28.8800  -73.4240 C.3   142  ILE142      0.0019
    219  CD1       27.4340   28.5100  -72.2100 C.3   142  ILE142      0.0001
@<TRIPOS>BOND
     1    47    46    2
     2    57    58    2
     3    57    56    1
     4    45    46    1
     5    45    44    1
     6    45    48    1
     7    46    55   am
     8    55    56    1
     9    56    59    1
    10    49    50    1
    11    49    48    1
    12    50    51    1
    13    36    35    2
    14    35    34    1
    15    53    52    1
    16    59    61    1
    17    59    60    1
    18    51    52    2
    19    52    54    1
    20    34    33    1
    21    34    37    1
    22    33    27   am
    23    37    38    1
    24    25    26    1
    25    27    28    2
    26    27    26    1
    27    26    29    1
    28   146   145    1
    29    62    63    1
    30    66    63    1
    31    66    67    1
    32    81    80    1
    33    38    40   ar
    34    38    39   ar
    35    82    80    1
    36   147   145    1
    37    40    42   ar
    38   145   144    2
    39    23    22    2
    40    22    21    1
    41    63    64    1
    42    80    79    2
    43    67    69   ar
    44    67    68   ar
    45    29    30    1
    46    39    41   ar
    47    69    71   ar
    48    20    21    1
    49    32    30    1
    50    30    31    1
    51    68    70   ar
    52    21    24    1
    53   144   143    1
    54    64    65    2
    55    42    43   ar
    56     4     3    2
    57    79    78    1
    58   143   142    1
    59    71    70   ar
    60     3     2    1
    61    41    43   ar
    62     5     2    1
    63     5     6    1
    64    78    77    1
    65     2     1    1
    66     6     8   ar
    67     6     7   ar
    68   142   141    1
    69     8    10   ar
    70    14    15    2
    71    14    13    1
    72     7     9   ar
    73   141   138    1
    74   138   139    1
    75   138   137    1
    76    76    77    1
    77    76    73    1
    78    72    73    1
    79   165   164   ar
    80   165   163   ar
    81   139   140    2
    82    10    11   ar
    83     9    11   ar
    84    12    13    1
    85   164   162   ar
    86    13    16    1
    87    73    74    1
    88    16    17    1
    89    89    87    1
    90   163   161   ar
    91    17    19    1
    92    17    18    1
    93   154   152    1
    94   148   149    1
    95   162   160   ar
    96    83    74   am
    97    83    84    1
    98    74    75    2
    99   161   160   ar
   100   149   152    1
   101   149   150    1
   102    87    84    1
   103    87    88    1
   104   160   159    1
   105   152   153    1
   106   121   120    2
   107    84    85    1
   108   150   151    2
   109   159   156    1
   110   130   129    2
   111    85    86    2
   112   126   124   am
   113   120   119    1
   114   120   127   am
   115   136   134   ar
   116   136   135   ar
   117   134   132   ar
   118   184   182    1
   119   129   128    1
   120   128   127    1
   121   128   131    1
   122   124   123    1
   123   124   125    2
   124   119   122    1
   125   119   118    1
   126   122   123    1
   127   182   181    1
   128   156   155    1
   129   156   157    1
   130   135   133   ar
   131   132   133   ar
   132   132   131    1
   133   158   157    2
   134   181   178    1
   135   181   183    1
   136   157   166   am
   137   178   177    1
   138   178   179    1
   139    90    91    1
   140   193   195   ar
   141   193   191   ar
   142   195   194   ar
   143   174   172   ar
   144   174   176   ar
   145   166   167    1
   146   185   186    1
   147   191   190   ar
   148    91    92    1
   149   116   115    1
   150   194   192   ar
   151   180   179    2
   152   172   171   ar
   153   113   112    2
   154   176   175   ar
   155   186   189    1
   156   186   187    1
   157   190   192   ar
   158   190   189    1
   159   167   168    1
   160   167   170    1
   161    94    92   am
   162    94    95    1
   163   115   117    1
   164   115   114    1
   165    92    93    2
   166   171   170    1
   167   171   173   ar
   168   188   187    2
   169   175   173   ar
   170   112   111    1
   171    98    95    1
   172    98    99    1
   173   111   114    1
   174   111   110    1
   175   168   169    2
   176   101    99    1
   177    95    96    1
   178    99   100    1
   179   218   216    1
   180    96    97    2
   181   206   205   ar
   182   206   204   ar
   183   205   203   ar
   184   215   214    2
   185   219   217    1
   186   216   217    1
   187   216   213    1
   188   204   202   ar
   189   214   213    1
   190   203   201   ar
   191   213   212    1
   192   108   107    1
   193   107   109    1
   194   107   106    1
   195   102   103    1
   196   202   201   ar
   197   211   208    1
   198   201   200    1
   199   106   103    1
   200   210   209    2
   201   208   209    1
   202   208   207    1
   203   103   104    1
   204   200   197    1
   205   104   105    2
   206   199   198    2
   207   197   198    1
   208   197   196    1
