@<TRIPOS>MOLECULE
tmp/4u8uQ00.pdb
 220 213 0 0 0
SMALL
GASTEIGER

@<TRIPOS>ATOM
      1  N         36.9010   -9.0970  -17.7710 N.3    33  TRP33      -0.1241
      2  CA        36.8640   -8.3540  -16.5180 C.3    33  TRP33       0.1605
      3  C         37.9040   -7.2550  -16.3420 C.2    33  TRP33       0.2264
      4  O         37.5960   -6.1790  -15.8190 O.2    33  TRP33      -0.2867
      5  CB        36.8240   -9.3250  -15.3430 C.3    33  TRP33       0.0550
      6  CG        35.4480   -9.7530  -15.2130 C.ar   33  TRP33       0.0003
      7  CD1       34.8820  -10.9260  -15.6440 C.ar   33  TRP33       0.0946
      8  CD2       34.3960   -8.9510  -14.7260 C.ar   33  TRP33       0.0152
      9  NE1       33.5330  -10.9070  -15.4010 N.ar   33  TRP33      -0.2442
     10  CE2       33.2160   -9.6990  -14.8360 C.ar   33  TRP33       0.0810
     11  CE3       34.3390   -7.6650  -14.1780 C.ar   33  TRP33       0.0012
     12  CZ2       32.0090   -9.2110  -14.4210 C.ar   33  TRP33       0.0191
     13  CZ3       33.1330   -7.1820  -13.7640 C.ar   33  TRP33       0.0001
     14  CH2       31.9810   -7.9500  -13.8850 C.ar   33  TRP33       0.0015
     15  N         36.6090   -4.4020  -18.4640 N.3    36  LEU36      -0.1245
     16  CA        35.5140   -3.7210  -17.7750 C.3    36  LEU36       0.1561
     17  C         36.0260   -2.8160  -16.6570 C.2    36  LEU36       0.2260
     18  O         35.6970   -1.6340  -16.6150 O.2    36  LEU36      -0.2867
     19  CB        34.5020   -4.7300  -17.2160 C.3    36  LEU36       0.0270
     20  CG        33.1490   -4.2110  -16.7040 C.3    36  LEU36       0.0019
     21  CD1       32.1140   -5.3090  -16.7970 C.3    36  LEU36       0.0001
     22  CD2       33.2170   -3.7050  -15.2710 C.3    36  LEU36       0.0001
     23  N         33.4310    0.6420  -10.3880 N.3    43  SER43      -0.1217
     24  CA        32.4970   -0.4710  -10.2930 C.3    43  SER43       0.1889
     25  C         33.0380   -1.6200   -9.4520 C.2    43  SER43       0.2288
     26  O         32.2960   -2.5360   -9.1060 O.2    43  SER43      -0.2866
     27  CB        32.1190   -0.9780  -11.6850 C.3    43  SER43       0.2089
     28  OG        33.2680   -1.3360  -12.4280 O.3    43  SER43      -0.2183
     29  N         31.2290   -2.8220   -6.2270 N.3    46  LEU46      -0.1231
     30  CA        30.0670   -3.6960   -6.2820 C.3    46  LEU46       0.1693
     31  C         30.4720   -5.1520   -6.0730 C.2    46  LEU46       0.2592
     32  O         29.6340   -6.0010   -5.7750 O.2    46  LEU46      -0.2718
     33  CB        29.3380   -3.5480   -7.6200 C.3    46  LEU46       0.0284
     34  CG        28.3200   -2.4180   -7.7980 C.3    46  LEU46       0.0019
     35  CD1       28.9690   -1.0480   -7.6980 C.3    46  LEU46       0.0001
     36  CD2       27.6100   -2.5680   -9.1330 C.3    46  LEU46       0.0001
     37  N         31.7610   -5.4370   -6.2160 N.am   47  PHE47      -0.1976
     38  CA        32.2310   -6.8150   -6.2040 C.3    47  PHE47       0.1639
     39  C         33.1190   -7.1310   -5.0210 C.2    47  PHE47       0.2290
     40  O         33.9430   -8.0410   -5.0890 O.2    47  PHE47      -0.2864
     41  CB        32.9780   -7.1230   -7.4950 C.3    47  PHE47       0.0560
     42  CG        32.1540   -6.9210   -8.7200 C.ar   47  PHE47      -0.0200
     43  CD1       31.3880   -7.9530   -9.2260 C.ar   47  PHE47      -0.0042
     44  CD2       32.1300   -5.6980   -9.3610 C.ar   47  PHE47      -0.0042
     45  CE1       30.6190   -7.7710  -10.3490 C.ar   47  PHE47      -0.0003
     46  CE2       31.3570   -5.5120  -10.4890 C.ar   47  PHE47      -0.0003
     47  CZ        30.5990   -6.5530  -10.9810 C.ar   47  PHE47      -0.0000
     48  N         32.3040   -8.5100   -2.2430 N.3    49  ARG49      -0.1231
     49  CA        31.9740   -9.8350   -1.7270 C.3    49  ARG49       0.1694
     50  C         32.7640  -10.9180   -2.4450 C.2    49  ARG49       0.2591
     51  O         33.0920  -11.9580   -1.8690 O.2    49  ARG49      -0.2718
     52  CB        30.4740  -10.1230   -1.8720 C.3    49  ARG49       0.0321
     53  CG        30.0680  -11.4630   -1.2810 C.3    49  ARG49       0.0489
     54  CD        28.8290  -12.0300   -1.9200 C.3    49  ARG49       0.2205
     55  NE        28.9140  -13.4830   -1.9890 N.pl3  49  ARG49      -0.0865
     56  CZ        29.0570  -14.1710   -3.1160 C.cat  49  ARG49       0.5346
     57  NH1       29.1080  -13.5300   -4.2730 N.pl3  49  ARG49       0.1354
     58  NH2       29.1320  -15.4960   -3.0900 N.pl3  49  ARG49       0.1354
     59  N         33.0860  -10.6550   -3.7020 N.am   50  VAL50      -0.1980
     60  CA        33.6500  -11.6810   -4.5500 C.3    50  VAL50       0.1595
     61  C         35.0770  -11.3100   -4.9980 C.2    50  VAL50       0.2287
     62  O         35.6000  -11.8190   -5.9900 O.2    50  VAL50      -0.2864
     63  CB        32.6560  -12.0130   -5.6970 C.3    50  VAL50       0.0276
     64  CG1       32.7780  -11.0260   -6.8700 C.3    50  VAL50       0.0022
     65  CG2       32.8010  -13.4630   -6.1270 C.3    50  VAL50       0.0022
     66  N         33.5570  -16.3310   -9.6790 N.3    63  HIS63      -0.1241
     67  CA        32.5760  -15.3490  -10.0990 C.3    63  HIS63       0.1621
     68  C         32.4500  -15.2080  -11.6140 C.2    63  HIS63       0.2264
     69  O         31.4000  -15.5010  -12.1870 O.2    63  HIS63      -0.2867
     70  CB        32.9180  -13.9920   -9.5270 C.3    63  HIS63       0.0745
     71  CG        31.9910  -12.9180   -9.9830 C.ar   63  HIS63       0.0817
     72  ND1       30.6400  -12.9630   -9.7350 N.ar   63  HIS63      -0.2268
     73  CD2       32.2130  -11.7870  -10.6910 C.ar   63  HIS63       0.1154
     74  CE1       30.0680  -11.8930  -10.2530 C.ar   63  HIS63       0.1986
     75  NE2       30.9990  -11.1660  -10.8420 N.ar   63  HIS63      -0.2212
     76  N         30.8480  -17.9810  -13.2340 N.3    66  ARG66      -0.1231
     77  CA        29.3940  -17.9690  -13.0150 C.3    66  ARG66       0.1694
     78  C         28.6980  -17.0510  -14.0290 C.2    66  ARG66       0.2591
     79  O         27.6770  -17.4110  -14.6420 O.2    66  ARG66      -0.2718
     80  CB        29.0670  -17.5230  -11.5830 C.3    66  ARG66       0.0321
     81  CG        28.5900  -18.6360  -10.6650 C.3    66  ARG66       0.0489
     82  CD        29.2690  -18.5690   -9.3070 C.3    66  ARG66       0.2205
     83  NE        29.2550  -17.2150   -8.7600 N.pl3  66  ARG66      -0.0865
     84  CZ        29.9940  -16.8130   -7.7340 C.cat  66  ARG66       0.5346
     85  NH1       30.8110  -17.6670   -7.1320 N.pl3  66  ARG66       0.1354
     86  NH2       29.9160  -15.5560   -7.3180 N.pl3  66  ARG66       0.1354
     87  N         29.2750  -15.8640  -14.1930 N.am   67  VAL67      -0.1980
     88  CA        28.8250  -14.8870  -15.1750 C.3    67  VAL67       0.1595
     89  C         28.7540  -15.4660  -16.5580 C.2    67  VAL67       0.2287
     90  O         27.7040  -15.4570  -17.1910 O.2    67  VAL67      -0.2864
     91  CB        29.8500  -13.7970  -15.3310 C.3    67  VAL67       0.0276
     92  CG1       29.3230  -12.7120  -16.2480 C.3    67  VAL67       0.0022
     93  CG2       30.2820  -13.2970  -13.9770 C.3    67  VAL67       0.0022
     94  N         26.0140  -17.8840  -17.0570 N.3    70  GLY70      -0.1210
     95  CA        24.7170  -17.2530  -17.2300 C.3    70  GLY70       0.1956
     96  C         24.5500  -16.7140  -18.6330 C.2    70  GLY70       0.2611
     97  O         23.5470  -16.9720  -19.3060 O.2    70  GLY70      -0.2717
     98  N         25.5560  -15.9710  -19.0770 N.am   71  PHE71      -0.1976
     99  CA        25.5710  -15.4020  -20.4180 C.3    71  PHE71       0.1639
    100  C         25.4860  -16.5120  -21.4550 C.2    71  PHE71       0.2290
    101  O         24.8780  -16.3380  -22.5120 O.2    71  PHE71      -0.2864
    102  CB        26.8360  -14.5700  -20.6380 C.3    71  PHE71       0.0560
    103  CG        26.8040  -13.7240  -21.8810 C.ar   71  PHE71      -0.0200
    104  CD1       26.1840  -12.4900  -21.8780 C.ar   71  PHE71      -0.0042
    105  CD2       27.4110  -14.1530  -23.0430 C.ar   71  PHE71      -0.0042
    106  CE1       26.1590  -11.7100  -23.0110 C.ar   71  PHE71      -0.0003
    107  CE2       27.3860  -13.3700  -24.1790 C.ar   71  PHE71      -0.0003
    108  CZ        26.7580  -12.1510  -24.1610 C.ar   71  PHE71      -0.0000
    109  N         18.1950  -13.6840  -14.2420 N.3    91  LEU91      -0.1245
    110  CA        19.3320  -12.7820  -14.1260 C.3    91  LEU91       0.1561
    111  C         18.8970  -11.4200  -13.5980 C.2    91  LEU91       0.2260
    112  O         19.5530  -10.8420  -12.7290 O.2    91  LEU91      -0.2867
    113  CB        20.0340  -12.6380  -15.4800 C.3    91  LEU91       0.0270
    114  CG        20.7550  -13.8970  -15.9870 C.3    91  LEU91       0.0019
    115  CD1       21.2320  -13.7330  -17.4130 C.3    91  LEU91       0.0001
    116  CD2       21.9260  -14.2530  -15.0730 C.3    91  LEU91       0.0001
    117  N         18.4520  -11.5960  -10.0270 N.3    94  GLN94      -0.1231
    118  CA        19.7750  -11.6340   -9.4040 C.3    94  GLN94       0.1698
    119  C         20.4680  -10.2650   -9.3950 C.2    94  GLN94       0.2592
    120  O         21.3990  -10.0310   -8.6190 O.2    94  GLN94      -0.2718
    121  CB        20.6630  -12.6850  -10.0750 C.3    94  GLN94       0.0381
    122  CG        20.3830  -14.1000   -9.6080 C.3    94  GLN94       0.0905
    123  CD        21.0330  -15.1610  -10.4860 C.2    94  GLN94       0.2608
    124  OE1       21.4700  -14.8810  -11.6020 O.2    94  GLN94      -0.2717
    125  NE2       21.0910  -16.3930   -9.9820 N.am   94  GLN94      -0.0878
    126  N         20.0070   -9.3570  -10.2470 N.am   95  HIS95      -0.1976
    127  CA        20.6540   -8.0560  -10.3720 C.3    95  HIS95       0.1656
    128  C         19.8800   -6.8960   -9.7740 C.2    95  HIS95       0.2291
    129  O         20.4540   -5.8320   -9.5300 O.2    95  HIS95      -0.2864
    130  CB        20.9670   -7.7540  -11.8340 C.3    95  HIS95       0.0771
    131  CG        22.2480   -8.3600  -12.3060 C.ar   95  HIS95       0.0820
    132  ND1       22.3370   -9.6610  -12.7500 N.ar   95  HIS95      -0.2267
    133  CD2       23.4990   -7.8470  -12.3860 C.ar   95  HIS95       0.1154
    134  CE1       23.5860   -9.9200  -13.0920 C.ar   95  HIS95       0.1986
    135  NE2       24.3120   -8.8370  -12.8810 N.ar   95  HIS95      -0.2212
    136  N         20.7900   -4.0780   -6.7820 N.3    98  ARG98      -0.1245
    137  CA        22.1410   -3.5780   -6.9970 C.3    98  ARG98       0.1563
    138  C         22.0850   -2.3470   -7.8810 C.2    98  ARG98       0.2260
    139  O         21.5330   -2.3870   -8.9840 O.2    98  ARG98      -0.2867
    140  CB        23.0040   -4.6540   -7.6510 C.3    98  ARG98       0.0307
    141  CG        23.0570   -5.9350   -6.8560 C.3    98  ARG98       0.0489
    142  CD        23.5230   -7.1090   -7.6910 C.3    98  ARG98       0.2205
    143  NE        23.4770   -8.3480   -6.9180 N.pl3  98  ARG98      -0.0865
    144  CZ        24.2190   -8.5800   -5.8370 C.cat  98  ARG98       0.5346
    145  NH1       25.0690   -7.6540   -5.4020 N.pl3  98  ARG98       0.1354
    146  NH2       24.1140   -9.7380   -5.1940 N.pl3  98  ARG98       0.1354
    147  N         23.1840   -0.4190  -10.4280 N.3   100  ILE100     -0.1245
    148  CA        24.0430   -0.5690  -11.5910 C.3   100  ILE100      0.1561
    149  C         23.6230    0.3870  -12.7020 C.2   100  ILE100      0.2260
    150  O         22.6190    0.1580  -13.3850 O.2   100  ILE100     -0.2867
    151  CB        23.9660   -1.9940  -12.1430 C.3   100  ILE100      0.0252
    152  CG1       24.4840   -2.9960  -11.1150 C.3   100  ILE100      0.0019
    153  CG2       24.7370   -2.0930  -13.4380 C.3   100  ILE100      0.0019
    154  CD1       24.1370   -4.4140  -11.4490 C.3   100  ILE100      0.0001
    155  N         27.7860    1.0890  -16.5780 N.3   104  TYR104     -0.1227
    156  CA        28.4990   -0.1610  -16.3160 C.3   104  TYR104      0.1736
    157  C         28.1650   -1.2440  -17.3340 C.2   104  TYR104      0.2595
    158  O         29.0200   -2.0490  -17.7000 O.2   104  TYR104     -0.2718
    159  CB        28.1980   -0.6750  -14.9060 C.3   104  TYR104      0.0548
    160  CG        28.7500    0.1820  -13.7870 C.ar  104  TYR104     -0.0200
    161  CD1       29.5340    1.2960  -14.0520 C.ar  104  TYR104     -0.0009
    162  CD2       28.4950   -0.1350  -12.4590 C.ar  104  TYR104     -0.0009
    163  CE1       30.0380    2.0750  -13.0290 C.ar  104  TYR104      0.0417
    164  CE2       29.0000    0.6360  -11.4270 C.ar  104  TYR104      0.0417
    165  CZ        29.7710    1.7410  -11.7190 C.ar  104  TYR104      0.1957
    166  OH        30.2730    2.5130  -10.6960 O.3   104  TYR104     -0.2866
    167  N         26.9170   -1.2740  -17.7830 N.am  105  PHE105     -0.1976
    168  CA        26.5210   -2.2410  -18.7960 C.3   105  PHE105      0.1639
    169  C         27.1950   -1.9370  -20.1320 C.2   105  PHE105      0.2290
    170  O         27.5330   -2.8500  -20.8850 O.2   105  PHE105     -0.2864
    171  CB        25.0000   -2.2960  -18.9400 C.3   105  PHE105      0.0560
    172  CG        24.3540   -3.3140  -18.0520 C.ar  105  PHE105     -0.0200
    173  CD1       24.2020   -4.6240  -18.4800 C.ar  105  PHE105     -0.0042
    174  CD2       23.9130   -2.9720  -16.7840 C.ar  105  PHE105     -0.0042
    175  CE1       23.6150   -5.5720  -17.6620 C.ar  105  PHE105     -0.0003
    176  CE2       23.3260   -3.9160  -15.9600 C.ar  105  PHE105     -0.0003
    177  CZ        23.1770   -5.2170  -16.3980 C.ar  105  PHE105     -0.0000
    178  N         30.6420   -3.2820  -19.7860 N.3   108  PHE108     -0.1241
    179  CA        30.5960   -4.7260  -20.0100 C.3   108  PHE108      0.1605
    180  C         30.5260   -5.0430  -21.5060 C.2   108  PHE108      0.2264
    181  O         31.2720   -5.8880  -22.0080 O.2   108  PHE108     -0.2867
    182  CB        29.4010   -5.3430  -19.2790 C.3   108  PHE108      0.0534
    183  CG        29.4590   -6.8410  -19.1640 C.ar  108  PHE108     -0.0203
    184  CD1       29.2670   -7.6460  -20.2710 C.ar  108  PHE108     -0.0042
    185  CD2       29.6760   -7.4430  -17.9420 C.ar  108  PHE108     -0.0042
    186  CE1       29.3140   -9.0180  -20.1640 C.ar  108  PHE108     -0.0003
    187  CE2       29.7210   -8.8170  -17.8290 C.ar  108  PHE108     -0.0003
    188  CZ        29.5390   -9.6040  -18.9430 C.ar  108  PHE108     -0.0000
    189  N         23.6220   -8.5020  -27.6810 N.3   133  PHE133     -0.1241
    190  CA        24.0200   -8.1080  -26.3440 C.3   133  PHE133      0.1605
    191  C         23.0160   -7.1150  -25.8080 C.2   133  PHE133      0.2264
    192  O         22.5910   -7.2320  -24.6690 O.2   133  PHE133     -0.2867
    193  CB        25.4150   -7.4950  -26.2760 C.3   133  PHE133      0.0534
    194  CG        25.8410   -7.1600  -24.8720 C.ar  133  PHE133     -0.0203
    195  CD1       25.5390   -5.9310  -24.3120 C.ar  133  PHE133     -0.0042
    196  CD2       26.5090   -8.0930  -24.0990 C.ar  133  PHE133     -0.0042
    197  CE1       25.9090   -5.6370  -23.0250 C.ar  133  PHE133     -0.0003
    198  CE2       26.8830   -7.7980  -22.8120 C.ar  133  PHE133     -0.0003
    199  CZ        26.5840   -6.5680  -22.2760 C.ar  133  PHE133     -0.0000
    200  N         19.9910   -8.9140  -24.5380 N.3   136  ILE136     -0.1231
    201  CA        20.2280   -9.6170  -23.2790 C.3   136  ILE136      0.1692
    202  C         20.3540   -8.6560  -22.0930 C.2   136  ILE136      0.2591
    203  O         19.8020   -8.8950  -21.0150 O.2   136  ILE136     -0.2718
    204  CB        21.4690  -10.5240  -23.3790 C.3   136  ILE136      0.0266
    205  CG1       21.2410  -11.5770  -24.4660 C.3   136  ILE136      0.0019
    206  CG2       21.7640  -11.1810  -22.0340 C.3   136  ILE136      0.0020
    207  CD1       22.3720  -12.5510  -24.6370 C.3   136  ILE136      0.0001
    208  N         21.0650   -7.5580  -22.3120 N.am  137  ALA137     -0.1980
    209  CA        21.2980   -6.5560  -21.2830 C.3   137  ALA137      0.1597
    210  C         20.0040   -5.8570  -20.9140 C.2   137  ALA137      0.2287
    211  O         19.7510   -5.5910  -19.7380 O.2   137  ALA137     -0.2864
    212  CB        22.3250   -5.5450  -21.7500 C.3   137  ALA137      0.0319
    213  N         18.2470   -8.0580  -18.6590 N.3   140  ILE140     -0.1245
    214  CA        18.7710   -8.1030  -17.2960 C.3   140  ILE140      0.1561
    215  C         18.4260   -6.8440  -16.5070 C.2   140  ILE140      0.2260
    216  O         18.2210   -6.8960  -15.2930 O.2   140  ILE140     -0.2867
    217  CB        20.2930   -8.3520  -17.2850 C.3   140  ILE140      0.0252
    218  CG1       20.6030   -9.6520  -18.0250 C.3   140  ILE140      0.0019
    219  CG2       20.8310   -8.4120  -15.8610 C.3   140  ILE140      0.0019
    220  CD1       21.9430  -10.2270  -17.7070 C.3   140  ILE140      0.0001
@<TRIPOS>BOND
     1   189   190    1
     2   190   193    1
     3   190   191    1
     4   193   194    1
     5   191   192    2
     6   194   195   ar
     7   194   196   ar
     8   207   205    1
     9   200   201    1
    10   205   204    1
    11   195   197   ar
    12   107   108   ar
    13   107   105   ar
    14   108   106   ar
    15   196   198   ar
    16   204   201    1
    17   204   206    1
    18   201   202    1
    19   105   103   ar
    20   197   199   ar
    21   106   104   ar
    22   198   199   ar
    23   101   100    2
    24   208   202   am
    25   208   209    1
    26   202   203    2
    27   181   180    2
    28   103   104   ar
    29   103   102    1
    30   212   209    1
    31   180   179    1
    32   100    99    1
    33   209   210    1
    34   210   211    2
    35   170   169    2
    36   102    99    1
    37    99    98    1
    38   184   186   ar
    39   184   183   ar
    40   186   188   ar
    41   169   168    1
    42   179   178    1
    43   179   182    1
    44    97    96    2
    45   182   183    1
    46   183   185   ar
    47    98    96   am
    48   188   187   ar
    49   171   168    1
    50   171   172    1
    51   168   167    1
    52   213   214    1
    53    96    95    1
    54   173   172   ar
    55   173   175   ar
    56    15    16    1
    57   172   174   ar
    58   218   220    1
    59   218   217    1
    60   185   187   ar
    61   167   157   am
    62    16    19    1
    63    16    17    1
    64     1     2    1
    65   158   157    2
    66   175   177   ar
    67   115   114    1
    68   157   156    1
    69   214   217    1
    70   214   215    1
    71   217   219    1
    72    95    94    1
    73    19    20    1
    74    90    89    2
    75    21    20    1
    76   174   176   ar
    77    20    22    1
    78    17    18    2
    79   155   156    1
    80    89    88    1
    81     2     3    1
    82     2     5    1
    83   215   216    2
    84   177   176   ar
    85     3     4    2
    86   156   159    1
    87    92    91    1
    88   114   113    1
    89   114   116    1
    90     7     9   ar
    91     7     6   ar
    92   113   110    1
    93     9    10   ar
    94     5     6    1
    95    91    88    1
    96    91    93    1
    97     6     8   ar
    98    88    87    1
    99   159   160    1
   100    10     8   ar
   101    10    12   ar
   102     8    11   ar
   103    79    78    2
   104    12    14   ar
   105   109   110    1
   106    87    78   am
   107    11    13   ar
   108   110   111    1
   109   161   160   ar
   110   161   163   ar
   111    78    77    1
   112    14    13   ar
   113   160   162   ar
   114   111   112    2
   115   153   151    1
   116   150   149    2
   117    76    77    1
   118   134   135   ar
   119   134   132   ar
   120   163   165   ar
   121    77    80    1
   122   135   133   ar
   123   132   131   ar
   124   149   148    1
   125   162   164   ar
   126    28    27    1
   127   133   131   ar
   128   131   130    1
   129    69    68    2
   130   151   148    1
   131   151   152    1
   132   130   127    1
   133   165   164   ar
   134   165   166    1
   135    27    24    1
   136    68    67    1
   137   124   123    2
   138   148   147    1
   139    80    81    1
   140   154   152    1
   141    47    46   ar
   142    47    45   ar
   143    75    73   ar
   144    75    74   ar
   145    73    71   ar
   146    81    82    1
   147    46    44   ar
   148   123   125   am
   149   123   122    1
   150    23    24    1
   151   127   126    1
   152   127   128    1
   153    45    43   ar
   154    24    25    1
   155    74    72   ar
   156   126   119   am
   157    67    66    1
   158    67    70    1
   159   121   122    1
   160   121   118    1
   161   117   118    1
   162    71    72   ar
   163    71    70    1
   164   128   129    2
   165    25    26    2
   166   118   119    1
   167   119   120    2
   168    44    42   ar
   169    82    83    1
   170    43    42   ar
   171    36    34    1
   172   139   138    2
   173    83    84    2
   174    42    41    1
   175   138   137    1
   176    34    35    1
   177    34    33    1
   178    84    86    1
   179    84    85    1
   180   142   143    1
   181   142   141    1
   182   140   137    1
   183   140   141    1
   184    33    30    1
   185    41    38    1
   186   137   136    1
   187   143   144    2
   188    64    63    1
   189    30    29    1
   190    30    31    1
   191    37    38    1
   192    37    31   am
   193    38    39    1
   194    65    63    1
   195    31    32    2
   196    62    61    2
   197   144   145    1
   198   144   146    1
   199    63    60    1
   200    40    39    2
   201    61    60    1
   202    60    59    1
   203    57    56    1
   204    59    50   am
   205    56    58    1
   206    56    55    2
   207    50    51    2
   208    50    49    1
   209    48    49    1
   210    55    54    1
   211    54    53    1
   212    52    49    1
   213    52    53    1
