@<TRIPOS>MOLECULE
tmp/4u8uW00.pdb
 221 213 0 0 0
SMALL
GASTEIGER

@<TRIPOS>ATOM
      1  N         42.8160  -66.4270  -51.7130 N.3    32  TRP32      -0.1241
      2  CA        42.5830  -67.8380  -51.4540 C.3    32  TRP32       0.1605
      3  C         41.7530  -68.1250  -50.2120 C.2    32  TRP32       0.2264
      4  O         40.8920  -69.0060  -50.2290 O.2    32  TRP32      -0.2867
      5  CB        43.9040  -68.5960  -51.4580 C.3    32  TRP32       0.0550
      6  CG        44.3330  -68.7170  -52.8380 C.ar   32  TRP32       0.0003
      7  CD1       45.3110  -68.0150  -53.4710 C.ar   32  TRP32       0.0946
      8  CD2       43.7150  -69.5290  -53.8200 C.ar   32  TRP32       0.0152
      9  NE1       45.3640  -68.3750  -54.7930 N.ar   32  TRP32      -0.2442
     10  CE2       44.3900  -69.3070  -55.0270 C.ar   32  TRP32       0.0810
     11  CE3       42.6620  -70.4440  -53.7900 C.ar   32  TRP32       0.0012
     12  CZ2       44.0480  -69.9600  -56.1820 C.ar   32  TRP32       0.0191
     13  CZ3       42.3250  -71.0930  -54.9400 C.ar   32  TRP32       0.0001
     14  CH2       43.0100  -70.8510  -56.1220 C.ar   32  TRP32       0.0015
     15  N         38.2070  -67.4240  -51.2830 N.3    35  PHE35      -0.1241
     16  CA        37.7430  -68.4530  -52.2090 C.3    35  PHE35       0.1605
     17  C         37.3700  -69.7270  -51.4640 C.2    35  PHE35       0.2264
     18  O         36.2780  -70.2590  -51.6420 O.2    35  PHE35      -0.2867
     19  CB        38.8180  -68.7730  -53.2490 C.3    35  PHE35       0.0534
     20  CG        38.2960  -69.4970  -54.4660 C.ar   35  PHE35      -0.0203
     21  CD1       36.9350  -69.5810  -54.7180 C.ar   35  PHE35      -0.0042
     22  CD2       39.1700  -70.0940  -55.3590 C.ar   35  PHE35      -0.0042
     23  CE1       36.4600  -70.2440  -55.8380 C.ar   35  PHE35      -0.0003
     24  CE2       38.7010  -70.7580  -56.4790 C.ar   35  PHE35      -0.0003
     25  CZ        37.3440  -70.8320  -56.7160 C.ar   35  PHE35      -0.0000
     26  N         35.6660  -76.5350  -53.4890 N.3    42  VAL42      -0.1245
     27  CA        36.7630  -76.3470  -54.4200 C.3    42  VAL42       0.1561
     28  C         38.0810  -76.9230  -53.8800 C.2    42  VAL42       0.2260
     29  O         38.9340  -77.3790  -54.6470 O.2    42  VAL42      -0.2867
     30  CB        36.8930  -74.8350  -54.7310 C.3    42  VAL42       0.0252
     31  CG1       38.2380  -74.4960  -55.3040 C.3    42  VAL42       0.0019
     32  CG2       35.7760  -74.3850  -55.6580 C.3    42  VAL42       0.0019
     33  N         40.3830  -79.9490  -55.1550 N.3    45  LEU45      -0.1231
     34  CA        41.2340  -79.8190  -56.3330 C.3    45  LEU45       0.1693
     35  C         42.6980  -79.5270  -55.9960 C.2    45  LEU45       0.2592
     36  O         43.5910  -79.7880  -56.8040 O.2    45  LEU45      -0.2718
     37  CB        40.6850  -78.7180  -57.2430 C.3    45  LEU45       0.0284
     38  CG        39.4030  -79.0480  -58.0050 C.3    45  LEU45       0.0019
     39  CD1       38.7120  -77.7800  -58.4740 C.3    45  LEU45       0.0001
     40  CD2       39.7160  -79.9520  -59.1940 C.3    45  LEU45       0.0001
     41  N         42.9400  -78.9950  -54.8030 N.am   46  PHE46      -0.1976
     42  CA        44.2580  -78.4800  -54.4630 C.3    46  PHE46       0.1639
     43  C         44.9930  -79.3210  -53.4320 C.2    46  PHE46       0.2290
     44  O         45.8300  -78.8070  -52.6950 O.2    46  PHE46      -0.2864
     45  CB        44.1390  -77.0390  -53.9750 C.3    46  PHE46       0.0560
     46  CG        43.5090  -76.1230  -54.9700 C.ar   46  PHE46      -0.0200
     47  CD1       44.2590  -75.5780  -55.9920 C.ar   46  PHE46      -0.0042
     48  CD2       42.1690  -75.8110  -54.8910 C.ar   46  PHE46      -0.0042
     49  CE1       43.6840  -74.7380  -56.9130 C.ar   46  PHE46      -0.0003
     50  CE2       41.5930  -74.9690  -55.8120 C.ar   46  PHE46      -0.0003
     51  CZ        42.3530  -74.4310  -56.8240 C.ar   46  PHE46      -0.0000
     52  N         47.2020  -81.3740  -54.0600 N.3    48  GLY48      -0.1210
     53  CA        48.5860  -81.4220  -54.4990 C.3    48  GLY48       0.1956
     54  C         49.4360  -80.3360  -53.8640 C.2    48  GLY48       0.2611
     55  O         50.6590  -80.4550  -53.7910 O.2    48  GLY48      -0.2717
     56  N         48.7780  -79.2830  -53.3860 N.am   49  VAL49      -0.1979
     57  CA        49.4650  -78.1080  -52.8590 C.3    49  VAL49       0.1595
     58  C         48.9440  -77.6630  -51.4880 C.2    49  VAL49       0.2287
     59  O         48.9420  -76.4760  -51.1790 O.2    49  VAL49      -0.2864
     60  CB        49.3570  -76.9220  -53.8430 C.3    49  VAL49       0.0276
     61  CG1       50.1100  -77.2250  -55.1240 C.3    49  VAL49       0.0022
     62  CG2       47.8920  -76.6000  -54.1470 C.3    49  VAL49       0.0022
     63  N         52.2260  -71.9640  -54.6190 N.3    62  HIS62      -0.1241
     64  CA        51.1270  -72.0880  -55.5640 C.3    62  HIS62       0.1621
     65  C         50.5050  -70.7290  -55.8950 C.2    62  HIS62       0.2264
     66  O         50.5150  -70.3000  -57.0500 O.2    62  HIS62      -0.2867
     67  CB        50.0610  -73.0320  -55.0280 C.3    62  HIS62       0.0745
     68  CG        48.8440  -73.0980  -55.8870 C.ar   62  HIS62       0.0817
     69  ND1       48.7130  -74.0010  -56.9180 N.ar   62  HIS62      -0.2268
     70  CD2       47.7090  -72.3590  -55.8800 C.ar   62  HIS62       0.1154
     71  CE1       47.5420  -73.8200  -57.5050 C.ar   62  HIS62       0.1986
     72  NE2       46.9150  -72.8330  -56.8920 N.ar   62  HIS62      -0.2212
     73  N         52.4490  -68.6750  -58.0570 N.3    65  ARG65      -0.1231
     74  CA        52.3630  -69.1050  -59.4590 C.3    65  ARG65       0.1694
     75  C         51.0990  -68.5780  -60.1310 C.2    65  ARG65       0.2591
     76  O         51.1400  -68.0870  -61.2670 O.2    65  ARG65      -0.2718
     77  CB        52.4190  -70.6290  -59.5770 C.3    65  ARG65       0.0321
     78  CG        53.7590  -71.2280  -59.2200 C.3    65  ARG65       0.0489
     79  CD        53.8320  -72.6940  -59.6030 C.3    65  ARG65       0.2205
     80  NE        52.9410  -73.5220  -58.7990 N.pl3  65  ARG65      -0.0865
     81  CZ        53.2820  -74.0830  -57.6450 C.cat  65  ARG65       0.5346
     82  NH1       54.4970  -73.9030  -57.1470 N.pl3  65  ARG65       0.1354
     83  NH2       52.4020  -74.8210  -56.9860 N.pl3  65  ARG65       0.1354
     84  N         49.9830  -68.6920  -59.4160 N.am   66  VAL66      -0.1980
     85  CA        48.6950  -68.1700  -59.8580 C.3    66  VAL66       0.1595
     86  C         48.7900  -66.7190  -60.2560 C.2    66  VAL66       0.2287
     87  O         48.5530  -66.3580  -61.4020 O.2    66  VAL66      -0.2864
     88  CB        47.7040  -68.1480  -58.7070 C.3    66  VAL66       0.0276
     89  CG1       46.3280  -67.6900  -59.2010 C.3    66  VAL66       0.0022
     90  CG2       47.6830  -69.4720  -57.9820 C.3    66  VAL66       0.0022
     91  N         50.8150  -66.0180  -63.3140 N.3    69  GLY69      -0.1210
     92  CA        50.1260  -66.3270  -64.5570 C.3    69  GLY69       0.1956
     93  C         49.0520  -65.3060  -64.8900 C.2    69  GLY69       0.2611
     94  O         48.8900  -64.8890  -66.0450 O.2    69  GLY69      -0.2717
     95  N         48.3110  -64.9070  -63.8650 N.am   70  LEU70      -0.1979
     96  CA        47.3010  -63.8770  -64.0030 C.3    70  LEU70       0.1596
     97  C         47.9440  -62.5760  -64.4790 C.2    70  LEU70       0.2287
     98  O         47.3850  -61.8600  -65.3130 O.2    70  LEU70      -0.2864
     99  CB        46.5820  -63.6750  -62.6700 C.3    70  LEU70       0.0297
    100  CG        45.2420  -62.9390  -62.7140 C.3    70  LEU70       0.0022
    101  CD1       44.4360  -63.3180  -63.9530 C.3    70  LEU70       0.0001
    102  CD2       44.4590  -63.2640  -61.4600 C.3    70  LEU70       0.0001
    103  N         48.7270  -62.9630  -68.2620 N.3    73  THR73      -0.1218
    104  CA        47.5470  -62.8300  -69.1090 C.3    73  THR73       0.1862
    105  C         47.0200  -61.3990  -69.1450 C.2    73  THR73       0.2287
    106  O         46.6820  -60.8880  -70.2110 O.2    73  THR73      -0.2866
    107  CB        46.4270  -63.7870  -68.6880 C.3    73  THR73       0.1770
    108  OG1       46.0670  -63.5340  -67.3250 O.3    73  THR73      -0.2211
    109  CG2       46.8910  -65.2250  -68.8320 C.3    73  THR73       0.0375
    110  N         47.5950  -71.9150  -70.5100 N.3    90  LEU90      -0.1245
    111  CA        46.8970  -72.0490  -69.2400 C.3    90  LEU90       0.1561
    112  C         45.8620  -73.1650  -69.3280 C.2    90  LEU90       0.2260
    113  O         45.6830  -73.9370  -68.3850 O.2    90  LEU90      -0.2867
    114  CB        46.2260  -70.7330  -68.8470 C.3    90  LEU90       0.0270
    115  CG        47.1090  -69.6910  -68.1570 C.3    90  LEU90       0.0019
    116  CD1       46.2630  -68.5170  -67.7240 C.3    90  LEU90       0.0001
    117  CD2       47.8390  -70.2970  -66.9680 C.3    90  LEU90       0.0001
    118  N         47.1770  -76.4700  -68.7430 N.3    93  GLN93      -0.1231
    119  CA        47.5360  -76.6610  -67.3410 C.3    93  GLN93       0.1698
    120  C         46.3180  -76.9110  -66.4600 C.2    93  GLN93       0.2592
    121  O         46.4570  -77.2000  -65.2710 O.2    93  GLN93      -0.2718
    122  CB        48.3160  -75.4500  -66.8190 C.3    93  GLN93       0.0381
    123  CG        49.6360  -75.2140  -67.5340 C.3    93  GLN93       0.0905
    124  CD        50.3980  -74.0160  -67.0010 C.2    93  GLN93       0.2608
    125  OE1       49.8090  -72.9940  -66.6400 O.2    93  GLN93      -0.2717
    126  NE2       51.7220  -74.1370  -66.9530 N.am   93  GLN93      -0.0878
    127  N         45.1280  -76.8070  -67.0450 N.am   94  HIS94      -0.1976
    128  CA        43.8930  -76.9440  -66.2780 C.3    94  HIS94       0.1656
    129  C         42.9490  -78.0200  -66.8000 C.2    94  HIS94       0.2291
    130  O         42.0980  -78.5180  -66.0620 O.2    94  HIS94      -0.2864
    131  CB        43.1480  -75.6110  -66.2230 C.3    94  HIS94       0.0771
    132  CG        43.7510  -74.6240  -65.2770 C.ar   94  HIS94       0.0820
    133  ND1       44.6610  -73.6720  -65.6790 N.ar   94  HIS94      -0.2267
    134  CD2       43.5820  -74.4460  -63.9450 C.ar   94  HIS94       0.1154
    135  CE1       45.0220  -72.9460  -64.6360 C.ar   94  HIS94       0.1986
    136  NE2       44.3830  -73.3960  -63.5710 N.ar   94  HIS94      -0.2212
    137  N         42.5920  -81.5780  -65.1570 N.3    97  ARG97      -0.1245
    138  CA        41.9110  -81.6760  -63.8760 C.3    97  ARG97       0.1563
    139  C         40.4330  -81.3880  -64.0690 C.2    97  ARG97       0.2260
    140  O         40.0550  -80.4110  -64.7170 O.2    97  ARG97      -0.2867
    141  CB        42.5280  -80.6940  -62.8870 C.3    97  ARG97       0.0307
    142  CG        44.0290  -80.5680  -63.0650 C.3    97  ARG97       0.0489
    143  CD        44.6270  -79.4490  -62.2370 C.3    97  ARG97       0.2205
    144  NE        45.9430  -79.0600  -62.7410 N.pl3  97  ARG97      -0.0865
    145  CZ        47.0930  -79.6010  -62.3490 C.cat  97  ARG97       0.5346
    146  NH1       47.1020  -80.5600  -61.4310 N.pl3  97  ARG97       0.1354
    147  NH2       48.2380  -79.1760  -62.8740 N.pl3  97  ARG97       0.1354
    148  N         37.6890  -79.7690  -63.6240 N.3    99  ILE99      -0.1245
    149  CA        37.3110  -78.5120  -62.9950 C.3    99  ILE99       0.1561
    150  C         35.9730  -77.9870  -63.4980 C.2    99  ILE99       0.2260
    151  O         35.8170  -77.6550  -64.6770 O.2    99  ILE99      -0.2867
    152  CB        38.3930  -77.4400  -63.2080 C.3    99  ILE99       0.0252
    153  CG1       39.6500  -77.8060  -62.4210 C.3    99  ILE99       0.0019
    154  CG2       37.8800  -76.0690  -62.7910 C.3    99  ILE99       0.0019
    155  CD1       40.8360  -76.9470  -62.7600 C.3    99  ILE99       0.0001
    156  N         33.3640  -72.7870  -61.5550 N.3   103  PHE103     -0.1227
    157  CA        34.2650  -72.4460  -60.4590 C.3   103  PHE103      0.1736
    158  C         35.0360  -71.1810  -60.7910 C.2   103  PHE103      0.2595
    159  O         35.4640  -70.4590  -59.8950 O.2   103  PHE103     -0.2718
    160  CB        35.2470  -73.5800  -60.1650 C.3   103  PHE103      0.0547
    161  CG        34.6640  -74.6940  -59.3400 C.ar  103  PHE103     -0.0202
    162  CD1       33.3920  -74.5840  -58.7960 C.ar  103  PHE103     -0.0042
    163  CD2       35.3980  -75.8470  -59.0950 C.ar  103  PHE103     -0.0042
    164  CE1       32.8620  -75.6040  -58.0300 C.ar  103  PHE103     -0.0003
    165  CE2       34.8720  -76.8700  -58.3320 C.ar  103  PHE103     -0.0003
    166  CZ        33.6030  -76.7490  -57.7990 C.ar  103  PHE103     -0.0000
    167  N         35.2140  -70.9220  -62.0820 N.am  104  TYR104     -0.1976
    168  CA        35.9040  -69.7200  -62.5380 C.3   104  TYR104      0.1639
    169  C         35.1250  -68.4540  -62.1810 C.2   104  TYR104      0.2290
    170  O         35.7160  -67.4170  -61.8650 O.2   104  TYR104     -0.2864
    171  CB        36.1700  -69.7890  -64.0410 C.3   104  TYR104      0.0560
    172  CG        37.1960  -70.8320  -64.4180 C.ar  104  TYR104     -0.0198
    173  CD1       36.8520  -72.1740  -64.5030 C.ar  104  TYR104     -0.0009
    174  CD2       38.5110  -70.4770  -64.6820 C.ar  104  TYR104     -0.0009
    175  CE1       37.7890  -73.1350  -64.8440 C.ar  104  TYR104      0.0417
    176  CE2       39.4580  -71.4320  -65.0230 C.ar  104  TYR104      0.0417
    177  CZ        39.0900  -72.7580  -65.1030 C.ar  104  TYR104      0.1957
    178  OH        40.0250  -73.7100  -65.4450 O.3   104  TYR104     -0.2866
    179  N         35.8970  -67.9460  -58.5590 N.3   107  PHE107     -0.1241
    180  CA        37.2420  -67.3970  -58.4990 C.3   107  PHE107      0.1605
    181  C         37.1780  -65.8870  -58.7200 C.2   107  PHE107      0.2264
    182  O         37.6820  -65.1140  -57.9040 O.2   107  PHE107     -0.2867
    183  CB        38.1250  -68.0640  -59.5620 C.3   107  PHE107      0.0534
    184  CG        39.5790  -67.6740  -59.4900 C.ar  107  PHE107     -0.0203
    185  CD1       40.4720  -68.4020  -58.7180 C.ar  107  PHE107     -0.0042
    186  CD2       40.0550  -66.5880  -60.2080 C.ar  107  PHE107     -0.0042
    187  CE1       41.8060  -68.0450  -58.6550 C.ar  107  PHE107     -0.0003
    188  CE2       41.3840  -66.2280  -60.1480 C.ar  107  PHE107     -0.0003
    189  CZ        42.2600  -66.9580  -59.3740 C.ar  107  PHE107     -0.0000
    190  N         38.3760  -60.6810  -67.0930 N.3   132  PHE132     -0.1241
    191  CA        38.5380  -61.9600  -66.4290 C.3   132  PHE132      0.1605
    192  C         37.8360  -63.0320  -67.2290 C.2   132  PHE132      0.2264
    193  O         38.3250  -64.1510  -67.3370 O.2   132  PHE132     -0.2867
    194  CB        37.9830  -61.9640  -65.0070 C.3   132  PHE132      0.0534
    195  CG        38.1520  -63.2820  -64.3220 C.ar  132  PHE132     -0.0203
    196  CD1       39.3170  -63.5710  -63.6370 C.ar  132  PHE132     -0.0042
    197  CD2       37.1700  -64.2540  -64.4040 C.ar  132  PHE132     -0.0042
    198  CE1       39.4900  -64.7920  -63.0280 C.ar  132  PHE132     -0.0003
    199  CE2       37.3390  -65.4810  -63.7990 C.ar  132  PHE132     -0.0003
    200  CZ        38.4980  -65.7490  -63.1060 C.ar  132  PHE132     -0.0000
    201  N         39.5720  -64.0740  -70.2670 N.3   135  ILE135     -0.1231
    202  CA        40.6640  -64.9800  -69.8970 C.3   135  ILE135      0.1692
    203  C         40.1730  -66.4080  -69.6070 C.2   135  ILE135      0.2591
    204  O         40.6780  -67.3910  -70.1730 O.2   135  ILE135     -0.2718
    205  CB        41.4630  -64.4470  -68.6790 C.3   135  ILE135      0.0266
    206  CG1       42.2040  -63.1580  -69.0470 C.3   135  ILE135      0.0019
    207  CG2       42.4460  -65.5000  -68.1670 C.3   135  ILE135      0.0020
    208  CD1       43.0170  -62.5760  -67.9140 C.3   135  ILE135      0.0001
    209  N         39.1830  -66.5150  -68.7270 N.am  136  ALA136     -0.1980
    210  CA        38.6660  -67.8070  -68.2930 C.3   136  ALA136      0.1597
    211  C         38.0640  -68.5900  -69.4500 C.2   136  ALA136      0.2287
    212  O         38.2230  -69.8080  -69.5280 O.2   136  ALA136     -0.2864
    213  CB        37.6410  -67.6240  -67.1910 C.3   136  ALA136      0.0319
    214  N         40.7830  -70.2660  -70.9460 N.3   139  ILE139     -0.1245
    215  CA        41.3020  -71.3550  -70.1120 C.3   139  ILE139      0.1561
    216  C         40.4160  -72.6000  -70.2010 C.2   139  ILE139      0.2260
    217  O         40.9110  -73.7250  -70.3010 O.2   139  ILE139     -0.2867
    218  CB        41.4550  -70.9480  -68.6370 C.3   139  ILE139      0.0252
    219  CG1       42.4140  -69.7710  -68.5030 C.3   139  ILE139      0.0019
    220  CG2       41.9620  -72.1200  -67.8050 C.3   139  ILE139      0.0019
    221  CD1       42.8380  -69.5140  -67.0820 C.3   139  ILE139      0.0001
@<TRIPOS>BOND
     1   214   215    1
     2   110   111    1
     3   217   216    2
     4   201   202    1
     5   106   105    2
     6   216   215    1
     7   204   203    2
     8   215   218    1
     9   202   203    1
    10   202   205    1
    11   203   209   am
    12   212   211    2
    13   211   210    1
    14   112   111    1
    15   112   113    2
    16   111   114    1
    17   105   104    1
    18   104   107    1
    19   104   103    1
    20   206   205    1
    21   206   208    1
    22   114   115    1
    23   109   107    1
    24   118   119    1
    25   209   210    1
    26   107   108    1
    27   205   207    1
    28   218   219    1
    29   218   220    1
    30   219   221    1
    31   210   213    1
    32   115   116    1
    33   115   117    1
    34   123   124    1
    35   123   122    1
    36   119   122    1
    37   119   120    1
    38   193   192    2
    39   192   191    1
    40   190   191    1
    41   127   120   am
    42   127   128    1
    43   124   126   am
    44   124   125    2
    45   129   128    1
    46   129   130    2
    47   120   121    2
    48   191   194    1
    49   128   131    1
    50   131   132    1
    51    94    93    2
    52   133   132   ar
    53   133   135   ar
    54   178   177    1
    55    98    97    2
    56   132   134   ar
    57   137   138    1
    58   177   176   ar
    59   177   175   ar
    60   176   174   ar
    61   194   195    1
    62    93    92    1
    63    93    95   am
    64   175   173   ar
    65   140   139    2
    66   174   172   ar
    67   151   150    2
    68   135   136   ar
    69    92    91    1
    70   173   172   ar
    71    97    96    1
    72   172   171    1
    73   197   195   ar
    74   197   199   ar
    75   195   196   ar
    76   139   138    1
    77   171   168    1
    78    96    95    1
    79    96    99    1
    80   101   100    1
    81   134   136   ar
    82   138   141    1
    83   199   200   ar
    84   196   198   ar
    85   148   149    1
    86   150   149    1
    87   152   149    1
    88   152   154    1
    89   152   153    1
    90   200   198   ar
    91   142   141    1
    92   142   143    1
    93   147   145    1
    94   155   153    1
    95   144   145    2
    96   144   143    1
    97   100    99    1
    98   100   102    1
    99   168   169    1
   100   168   167    1
   101   145   146    1
   102   169   170    2
   103   167   158   am
   104   156   157    1
   105    87    86    2
   106    76    75    2
   107   158   157    1
   108   158   159    2
   109   157   160    1
   110    86    85    1
   111   186   188   ar
   112   186   184   ar
   113   160   161    1
   114   188   189   ar
   115    75    74    1
   116    75    84   am
   117    85    84    1
   118    85    88    1
   119    79    78    1
   120    79    80    1
   121    77    74    1
   122    77    78    1
   123   183   184    1
   124   183   180    1
   125   184   185   ar
   126    74    73    1
   127   189   187   ar
   128   161   163   ar
   129   161   162   ar
   130    89    88    1
   131    40    38    1
   132   163   165   ar
   133    80    81    2
   134   162   164   ar
   135   181   180    1
   136   181   182    2
   137   185   187   ar
   138    88    90    1
   139   179   180    1
   140    39    38    1
   141   165   166   ar
   142   164   166   ar
   143    38    37    1
   144    81    82    1
   145    81    83    1
   146    71    69   ar
   147    71    72   ar
   148    37    34    1
   149    66    65    2
   150    69    68   ar
   151    49    51   ar
   152    49    47   ar
   153    72    70   ar
   154    51    50   ar
   155    36    35    2
   156    25    24   ar
   157    25    23   ar
   158    24    22   ar
   159    34    35    1
   160    34    33    1
   161    12    14   ar
   162    12    10   ar
   163    14    13   ar
   164    35    41   am
   165    47    46   ar
   166    65    64    1
   167    68    70   ar
   168    68    67    1
   169    23    21   ar
   170    50    48   ar
   171    32    30    1
   172    64    67    1
   173    64    63    1
   174    22    20   ar
   175    31    30    1
   176    61    60    1
   177    10     9   ar
   178    10     8   ar
   179    46    48   ar
   180    46    45    1
   181    13    11   ar
   182    41    42    1
   183     9     7   ar
   184    30    27    1
   185    21    20   ar
   186    29    28    2
   187    53    52    1
   188    53    54    1
   189    20    19    1
   190    42    45    1
   191    42    43    1
   192    27    28    1
   193    27    26    1
   194    62    60    1
   195    54    55    2
   196    54    56   am
   197    60    57    1
   198     8    11   ar
   199     8     6   ar
   200     7     6   ar
   201    43    44    2
   202    56    57    1
   203    19    16    1
   204    57    58    1
   205     6     5    1
   206    16    17    1
   207    16    15    1
   208     1     2    1
   209    18    17    2
   210    58    59    2
   211     5     2    1
   212     2     3    1
   213     4     3    2
