@<TRIPOS>MOLECULE
tmp/4u8uR00.pdb
 204 191 0 0 0
SMALL
GASTEIGER

@<TRIPOS>ATOM
      1  N         16.7770  -34.6730  -13.6410 N.3    38  LEU38      -0.1245
      2  CA        15.8640  -34.0480  -12.6920 C.3    38  LEU38       0.1561
      3  C         14.5220  -34.7610  -12.5520 C.2    38  LEU38       0.2260
      4  O         14.0720  -35.0130  -11.4360 O.2    38  LEU38      -0.2867
      5  CB        15.6580  -32.5720  -13.0340 C.3    38  LEU38       0.0270
      6  CG        16.8650  -31.7230  -12.6530 C.3    38  LEU38       0.0019
      7  CD1       16.5230  -30.2410  -12.6850 C.3    38  LEU38       0.0001
      8  CD2       17.3410  -32.1650  -11.2830 C.3    38  LEU38       0.0001
      9  N         14.9650  -37.8730  -10.7570 N.3    41  LEU41      -0.1245
     10  CA        15.1200  -37.6080   -9.3310 C.3    41  LEU41       0.1561
     11  C         13.7630  -37.3750   -8.6860 C.2    41  LEU41       0.2260
     12  O         13.5240  -37.7970   -7.5570 O.2    41  LEU41      -0.2867
     13  CB        16.0380  -36.4030   -9.0810 C.3    41  LEU41       0.0270
     14  CG        16.3340  -36.0770   -7.6080 C.3    41  LEU41       0.0019
     15  CD1       17.1020  -37.2130   -6.9460 C.3    41  LEU41       0.0001
     16  CD2       17.0830  -34.7640   -7.4700 C.3    41  LEU41       0.0001
     17  N         10.5970  -34.3450   -3.7940 N.3    48  VAL48      -0.1245
     18  CA        11.5030  -33.3970   -4.4380 C.3    48  VAL48       0.1561
     19  C         10.8050  -32.4880   -5.4560 C.2    48  VAL48       0.2260
     20  O         11.1200  -31.2980   -5.5510 O.2    48  VAL48      -0.2867
     21  CB        12.6970  -34.1450   -5.1020 C.3    48  VAL48       0.0252
     22  CG1       13.3050  -33.3380   -6.2480 C.3    48  VAL48       0.0019
     23  CG2       13.7490  -34.5050   -4.0580 C.3    48  VAL48       0.0019
     24  N          9.8640  -28.9280   -4.8450 N.3    51  LEU51      -0.1231
     25  CA        10.9570  -27.9710   -4.6970 C.3    51  LEU51       0.1693
     26  C         11.2560  -27.2140   -5.9930 C.2    51  LEU51       0.2592
     27  O         11.8290  -26.1230   -5.9660 O.2    51  LEU51      -0.2718
     28  CB        12.2100  -28.6850   -4.1960 C.3    51  LEU51       0.0284
     29  CG        12.0890  -29.3750   -2.8330 C.3    51  LEU51       0.0019
     30  CD1       13.2790  -30.3030   -2.6000 C.3    51  LEU51       0.0001
     31  CD2       11.9840  -28.3510   -1.7110 C.3    51  LEU51       0.0001
     32  N         10.8500  -27.7890   -7.1210 N.am   52  PHE52      -0.1976
     33  CA        11.0730  -27.1740   -8.4280 C.3    52  PHE52       0.1639
     34  C          9.8220  -26.4920   -8.9690 C.2    52  PHE52       0.2290
     35  O          9.6710  -26.3170  -10.1810 O.2    52  PHE52      -0.2864
     36  CB        11.5540  -28.2250   -9.4270 C.3    52  PHE52       0.0560
     37  CG        12.8620  -28.8480   -9.0570 C.ar   52  PHE52      -0.0200
     38  CD1       13.9280  -28.0580   -8.6780 C.ar   52  PHE52      -0.0042
     39  CD2       13.0210  -30.2240   -9.0680 C.ar   52  PHE52      -0.0042
     40  CE1       15.1190  -28.6240   -8.3250 C.ar   52  PHE52      -0.0003
     41  CE2       14.2240  -30.7970   -8.7190 C.ar   52  PHE52      -0.0003
     42  CZ        15.2710  -29.9980   -8.3470 C.ar   52  PHE52      -0.0000
     43  N          8.9470  -23.4380   -8.6810 N.3    54  LYS54      -0.1231
     44  CA         9.2190  -22.0990   -9.1720 C.3    54  LYS54       0.1693
     45  C          9.8980  -22.1150  -10.5400 C.2    54  LYS54       0.2591
     46  O          9.9920  -21.0810  -11.2050 O.2    54  LYS54      -0.2718
     47  CB        10.0280  -21.3060   -8.1480 C.3    54  LYS54       0.0285
     48  CG         9.2850  -21.1100   -6.8360 C.3    54  LYS54       0.0035
     49  CD        10.1230  -20.3720   -5.8030 C.3    54  LYS54       0.0206
     50  CE         9.3690  -20.2340   -4.4860 C.3    54  LYS54       0.1093
     51  NZ        10.1760  -19.5500   -3.4320 N.3    54  LYS54      -0.1314
     52  N         10.3530  -23.2890  -10.9680 N.am   55  VAL55      -0.1980
     53  CA        10.9220  -23.4210  -12.3080 C.3    55  VAL55       0.1595
     54  C         10.0290  -24.2450  -13.2290 C.2    55  VAL55       0.2287
     55  O         10.4720  -24.6860  -14.2940 O.2    55  VAL55      -0.2864
     56  CB        12.3450  -24.0210  -12.3000 C.3    55  VAL55       0.0276
     57  CG1       13.2640  -23.1870  -11.4340 C.3    55  VAL55       0.0022
     58  CG2       12.3170  -25.4700  -11.8360 C.3    55  VAL55       0.0022
     59  N         16.3190  -23.7040  -16.7480 N.3    68  HIS68      -0.1241
     60  CA        16.8420  -24.2160  -15.4970 C.3    68  HIS68       0.1621
     61  C         17.7650  -25.4360  -15.6620 C.2    68  HIS68       0.2264
     62  O         18.8060  -25.5420  -14.9970 O.2    68  HIS68      -0.2867
     63  CB        15.7010  -24.5600  -14.5670 C.3    68  HIS68       0.0745
     64  CG        16.1460  -25.2840  -13.3470 C.ar   68  HIS68       0.0817
     65  ND1       16.6690  -24.6340  -12.2490 N.ar   68  HIS68      -0.2268
     66  CD2       16.1940  -26.6070  -13.0670 C.ar   68  HIS68       0.1154
     67  CE1       16.9910  -25.5270  -11.3330 C.ar   68  HIS68       0.1986
     68  NE2       16.7100  -26.7300  -11.8040 N.ar   68  HIS68      -0.2212
     69  N         20.8360  -24.2190  -16.4650 N.3    71  ARG71      -0.1231
     70  CA        21.5150  -23.7280  -15.2660 C.3    71  ARG71       0.1694
     71  C         22.3240  -24.8300  -14.5830 C.2    71  ARG71       0.2591
     72  O         23.5350  -24.6780  -14.3640 O.2    71  ARG71      -0.2718
     73  CB        20.5280  -23.0960  -14.2850 C.3    71  ARG71       0.0321
     74  CG        20.7680  -21.6170  -14.0150 C.3    71  ARG71       0.0489
     75  CD        19.5800  -20.7800  -14.4680 C.3    71  ARG71       0.2205
     76  NE        18.3500  -21.1700  -13.7820 N.pl3  71  ARG71      -0.0865
     77  CZ        17.1260  -20.8370  -14.1770 C.cat  71  ARG71       0.5346
     78  NH1       16.9480  -20.0960  -15.2650 N.pl3  71  ARG71       0.1354
     79  NH2       16.0800  -21.2510  -13.4780 N.pl3  71  ARG71       0.1354
     80  N         21.6710  -25.9460  -14.2650 N.am   72  ILE72      -0.1980
     81  CA        22.3850  -27.0320  -13.5920 C.3    72  ILE72       0.1595
     82  C         23.4840  -27.6470  -14.4530 C.2    72  ILE72       0.2287
     83  O         24.5950  -27.8890  -13.9720 O.2    72  ILE72      -0.2864
     84  CB        21.4600  -28.1580  -13.1020 C.3    72  ILE72       0.0276
     85  CG1       22.2930  -29.3620  -12.6390 C.3    72  ILE72       0.0022
     86  CG2       20.4530  -28.5580  -14.1670 C.3    72  ILE72       0.0022
     87  CD1       21.5390  -30.6700  -12.5880 C.3    72  ILE72       0.0001
     88  N         26.3960  -25.4340  -14.4950 N.3    75  ALA75      -0.1231
     89  CA        27.0910  -25.4570  -13.2090 C.3    75  ALA75       0.1694
     90  C         27.9750  -26.7020  -13.1140 C.2    75  ALA75       0.2591
     91  O         29.0970  -26.6510  -12.6050 O.2    75  ALA75      -0.2718
     92  CB        26.1010  -25.4180  -12.0620 C.3    75  ALA75       0.0304
     93  N         27.4590  -27.8160  -13.6180 N.am   76  LEU76      -0.1980
     94  CA        28.1820  -29.0790  -13.6200 C.3    76  LEU76       0.1596
     95  C         29.3960  -29.0070  -14.5510 C.2    76  LEU76       0.2287
     96  O         30.4960  -29.4420  -14.1990 O.2    76  LEU76      -0.2864
     97  CB        27.2440  -30.1910  -14.0700 C.3    76  LEU76       0.0297
     98  CG        27.4500  -31.5700  -13.4600 C.3    76  LEU76       0.0022
     99  CD1       27.2990  -31.5020  -11.9590 C.3    76  LEU76       0.0001
    100  CD2       26.4380  -32.5300  -14.0560 C.3    76  LEU76       0.0001
    101  N         32.0030  -26.7580  -12.9430 N.3    79  SER79      -0.1217
    102  CA        32.7220  -27.4170  -11.8630 C.3    79  SER79       0.1889
    103  C         33.6890  -28.4750  -12.3900 C.2    79  SER79       0.2288
    104  O         34.7620  -28.6730  -11.8280 O.2    79  SER79      -0.2866
    105  CB        31.7500  -28.0340  -10.8670 C.3    79  SER79       0.2089
    106  OG        30.8890  -28.9310  -11.5350 O.3    79  SER79      -0.2183
    107  N         27.6070  -22.5890   -4.8260 N.3    96  LEU96      -0.1245
    108  CA        26.5070  -23.5140   -5.0910 C.3    96  LEU96       0.1561
    109  C         25.8740  -24.0440   -3.8060 C.2    96  LEU96       0.2260
    110  O         24.6530  -24.1810   -3.7160 O.2    96  LEU96      -0.2867
    111  CB        26.9830  -24.6760   -5.9590 C.3    96  LEU96       0.0270
    112  CG        27.1710  -24.3520   -7.4360 C.3    96  LEU96       0.0019
    113  CD1       27.7250  -25.5510   -8.1740 C.3    96  LEU96       0.0001
    114  CD2       25.8450  -23.9030   -8.0280 C.3    96  LEU96       0.0001
    115  N         23.6750  -21.4900   -2.5050 N.3    99  GLN99      -0.1231
    116  CA        22.4390  -21.4240   -3.2700 C.3    99  GLN99       0.1698
    117  C         21.4640  -22.5330   -2.9070 C.2    99  GLN99       0.2592
    118  O         20.2570  -22.3100   -2.8620 O.2    99  GLN99      -0.2718
    119  CB        22.7300  -21.4410   -4.7670 C.3    99  GLN99       0.0381
    120  CG        23.3750  -20.1600   -5.2480 C.3    99  GLN99       0.0905
    121  CD        23.5580  -20.1240   -6.7380 C.2    99  GLN99       0.2608
    122  OE1       23.8800  -21.1350   -7.3600 O.2    99  GLN99      -0.2717
    123  NE2       23.3540  -18.9520   -7.3270 N.am   99  GLN99      -0.0878
    124  N         21.9800  -23.7260   -2.6400 N.am  100  HIS100     -0.1976
    125  CA        21.1080  -24.8370   -2.2880 C.3   100  HIS100      0.1656
    126  C         20.6870  -24.8100   -0.8260 C.2   100  HIS100      0.2291
    127  O         19.7310  -25.4720   -0.4360 O.2   100  HIS100     -0.2864
    128  CB        21.7550  -26.1670   -2.6440 C.3   100  HIS100      0.0771
    129  CG        21.6820  -26.4890   -4.1010 C.ar  100  HIS100      0.0820
    130  ND1       22.4110  -25.8080   -5.0500 N.ar  100  HIS100     -0.2267
    131  CD2       20.9490  -27.4070   -4.7750 C.ar  100  HIS100      0.1154
    132  CE1       22.1400  -26.3000   -6.2460 C.ar  100  HIS100      0.1986
    133  NE2       21.2540  -27.2700   -6.1080 N.ar  100  HIS100     -0.2212
    134  N         17.3330  -22.9610   -0.3650 N.3   103  ARG103     -0.1245
    135  CA        16.1510  -23.6860   -0.8150 C.3   103  ARG103      0.1563
    136  C         15.8080  -24.7340    0.2280 C.2   103  ARG103      0.2260
    137  O         16.3040  -25.8580    0.1640 O.2   103  ARG103     -0.2867
    138  CB        16.4000  -24.3580   -2.1660 C.3   103  ARG103      0.0307
    139  CG        17.0590  -23.4620   -3.2000 C.3   103  ARG103      0.0489
    140  CD        16.2810  -22.1840   -3.3890 C.3   103  ARG103      0.2205
    141  NE        14.9310  -22.4520   -3.8610 N.pl3 103  ARG103     -0.0865
    142  CZ        13.9550  -21.5520   -3.8680 C.cat 103  ARG103      0.5346
    143  NH1       14.1860  -20.3280   -3.4110 N.pl3 103  ARG103      0.1354
    144  NH2       12.7470  -21.8760   -4.3220 N.pl3 103  ARG103      0.1354
    145  N         15.5920  -29.0600    0.4520 N.3   106  VAL106     -0.1245
    146  CA        16.6710  -29.7730   -0.2130 C.3   106  VAL106      0.1561
    147  C         17.4920  -30.5100    0.8330 C.2   106  VAL106      0.2260
    148  O         17.9570  -29.9050    1.7950 O.2   106  VAL106     -0.2867
    149  CB        17.5660  -28.8070   -1.0030 C.3   106  VAL106      0.0252
    150  CG1       18.7680  -29.5410   -1.5650 C.3   106  VAL106      0.0019
    151  CG2       16.7670  -28.1320   -2.1190 C.3   106  VAL106      0.0019
    152  N         18.8920  -36.3490   -1.2720 N.3   110  HIS110     -0.1226
    153  CA        18.6020  -35.9850   -2.6510 C.3   110  HIS110      0.1752
    154  C         19.8860  -35.9840   -3.4670 C.2   110  HIS110      0.2596
    155  O         19.9040  -36.4200   -4.6160 O.2   110  HIS110     -0.2718
    156  CB        17.9550  -34.6040   -2.7220 C.3   110  HIS110      0.0759
    157  CG        16.7200  -34.4700   -1.8890 C.ar  110  HIS110      0.0818
    158  ND1       16.1640  -33.2470   -1.5760 N.ar  110  HIS110     -0.2268
    159  CD2       15.9290  -35.4030   -1.3070 C.ar  110  HIS110      0.1154
    160  CE1       15.0880  -33.4340   -0.8320 C.ar  110  HIS110      0.1986
    161  NE2       14.9230  -34.7320   -0.6550 N.ar  110  HIS110     -0.2212
    162  N         20.9620  -35.4880   -2.8660 N.am  111  PHE111     -0.1976
    163  CA        22.2380  -35.4280   -3.5550 C.3   111  PHE111      0.1639
    164  C         22.8420  -36.8140   -3.7250 C.2   111  PHE111      0.2290
    165  O         23.4820  -37.0970   -4.7410 O.2   111  PHE111     -0.2864
    166  CB        23.1980  -34.4910   -2.8370 C.3   111  PHE111      0.0560
    167  CG        23.0340  -33.0550   -3.2270 C.ar  111  PHE111     -0.0200
    168  CD1       22.0890  -32.2570   -2.6090 C.ar  111  PHE111     -0.0042
    169  CD2       23.8200  -32.5040   -4.2200 C.ar  111  PHE111     -0.0042
    170  CE1       21.9370  -30.9340   -2.9700 C.ar  111  PHE111     -0.0003
    171  CE2       23.6750  -31.1840   -4.5830 C.ar  111  PHE111     -0.0003
    172  CZ        22.7310  -30.3970   -3.9590 C.ar  111  PHE111     -0.0000
    173  N         20.8420  -38.2190   -6.6690 N.3   114  ILE114     -0.1245
    174  CA        21.2020  -37.6100   -7.9390 C.3   114  ILE114      0.1561
    175  C         22.6020  -38.0250   -8.3450 C.2   114  ILE114      0.2260
    176  O         22.9180  -38.0480   -9.5260 O.2   114  ILE114     -0.2867
    177  CB        21.0780  -36.0700   -7.9240 C.3   114  ILE114      0.0252
    178  CG1       20.8120  -35.5570   -9.3390 C.3   114  ILE114      0.0019
    179  CG2       22.3210  -35.4140   -7.3260 C.3   114  ILE114      0.0019
    180  CD1       20.5420  -34.0780   -9.4020 C.3   114  ILE114      0.0001
    181  N         23.0720  -39.7300  -11.8650 N.3   118  LEU118     -0.1245
    182  CA        24.1020  -39.1130  -12.6840 C.3   118  LEU118      0.1561
    183  C         25.0760  -40.1550  -13.2190 C.2   118  LEU118      0.2260
    184  O         25.3080  -40.2330  -14.4250 O.2   118  LEU118     -0.2867
    185  CB        24.8630  -38.0890  -11.8490 C.3   118  LEU118      0.0270
    186  CG        25.3760  -36.8140  -12.5070 C.3   118  LEU118      0.0019
    187  CD1       24.9280  -36.7310  -13.9540 C.3   118  LEU118      0.0001
    188  CD2       24.9080  -35.6050  -11.7100 C.3   118  LEU118      0.0001
    189  N         29.7290  -33.0890   -5.2670 N.3   142  LEU142     -0.1245
    190  CA        28.3820  -33.1560   -4.7320 C.3   142  LEU142      0.1561
    191  C         28.4170  -33.0520   -3.2150 C.2   142  LEU142      0.2260
    192  O         27.5100  -32.4810   -2.6030 O.2   142  LEU142     -0.2867
    193  CB        27.6930  -34.4430   -5.1740 C.3   142  LEU142      0.0270
    194  CG        27.5920  -34.5730   -6.6900 C.3   142  LEU142      0.0019
    195  CD1       26.7090  -35.7380   -7.0770 C.3   142  LEU142      0.0001
    196  CD2       27.0690  -33.2900   -7.2800 C.3   142  LEU142      0.0001
    197  N         28.6920  -29.3460   -2.4840 N.3   145  ILE145     -0.1245
    198  CA        27.4410  -28.6270   -2.7640 C.3   145  ILE145      0.1561
    199  C         26.3730  -28.8860   -1.6930 C.2   145  ILE145      0.2260
    200  O         25.6250  -27.9820   -1.3080 O.2   145  ILE145     -0.2867
    201  CB        26.8670  -28.9540   -4.1540 C.3   145  ILE145      0.0252
    202  CG1       27.9380  -28.7970   -5.2280 C.3   145  ILE145      0.0019
    203  CG2       25.6950  -28.0390   -4.4640 C.3   145  ILE145      0.0019
    204  CD1       27.4170  -28.9720   -6.6330 C.3   145  ILE145      0.0001
@<TRIPOS>BOND
     1    59    60    1
     2    69    70    1
     3    61    60    1
     4    61    62    2
     5    60    63    1
     6    70    71    1
     7    70    73    1
     8    78    77    1
     9    71    72    2
    10    71    80   am
    11    63    64    1
    12    95    96    2
    13    95    94    1
    14    88    89    1
    15    75    74    1
    16    75    76    1
    17    82    83    2
    18    82    81    1
    19   184   183    2
    20    55    54    2
    21    73    74    1
    22    80    81    1
    23    77    76    2
    24    77    79    1
    25    86    84    1
    26    97    94    1
    27    97    98    1
    28   100    98    1
    29   187   186    1
    30     1     2    1
    31    94    93    1
    32    93    90   am
    33    81    84    1
    34    98    99    1
    35    64    66   ar
    36    64    65   ar
    37    54    53    1
    38   183   182    1
    39    89    90    1
    40    89    92    1
    41    90    91    2
    42    84    85    1
    43    66    68   ar
    44     5     2    1
    45     5     6    1
    46   101   102    1
    47     2     3    1
    48     7     6    1
    49   182   181    1
    50   182   185    1
    51     6     8    1
    52    85    87    1
    53     3     4    2
    54   186   185    1
    55   186   188    1
    56   103   102    1
    57   103   104    2
    58    53    56    1
    59    53    52    1
    60    56    58    1
    61    56    57    1
    62    65    67   ar
    63   102   105    1
    64    68    67   ar
    65   106   105    1
    66    46    45    2
    67    52    45   am
    68     9    10    1
    69    45    44    1
    70    35    34    2
    71   176   175    2
    72    36    37    1
    73    36    33    1
    74   180   178    1
    75   178   177    1
    76    10    13    1
    77    10    11    1
    78    44    43    1
    79    44    47    1
    80    13    14    1
    81    39    37   ar
    82    39    41   ar
    83    37    38   ar
    84    34    33    1
    85    41    42   ar
    86    11    12    2
    87    38    40   ar
    88    33    32    1
    89    42    40   ar
    90   175   174    1
    91   113   112    1
    92    47    48    1
    93   114   112    1
    94   174   177    1
    95   174   173    1
    96   177   179    1
    97    14    16    1
    98    14    15    1
    99   112   111    1
   100   122   121    2
   101   123   121   am
   102   196   194    1
   103    32    26   am
   104   195   194    1
   105    48    49    1
   106   121   120    1
   107   194   193    1
   108   204   202    1
   109    22    21    1
   110   132   133   ar
   111   132   130   ar
   112   133   131   ar
   113    26    27    2
   114    26    25    1
   115   111   108    1
   116    49    50    1
   117    20    19    2
   118    19    18    1
   119   189   190    1
   120   120   119    1
   121   202   201    1
   122   193   190    1
   123    21    18    1
   124    21    23    1
   125   108   107    1
   126   108   109    1
   127   130   129   ar
   128    24    25    1
   129   131   129   ar
   130   119   116    1
   131   165   164    2
   132   190   191    1
   133    25    28    1
   134   155   154    2
   135   171   169   ar
   136   171   172   ar
   137    50    51    1
   138   203   201    1
   139    18    17    1
   140   144   142    1
   141   169   167   ar
   142    28    29    1
   143   201   198    1
   144   129   128    1
   145   172   170   ar
   146   142   141    2
   147   142   143    1
   148   141   140    1
   149   109   110    2
   150   164   163    1
   151   163   162    1
   152   163   166    1
   153   154   162   am
   154   154   153    1
   155   140   139    1
   156   116   117    1
   157   116   115    1
   158   167   166    1
   159   167   168   ar
   160   191   192    2
   161   139   138    1
   162   170   168   ar
   163   117   118    2
   164   117   124   am
   165    29    30    1
   166    29    31    1
   167   198   197    1
   168   198   199    1
   169   156   153    1
   170   156   157    1
   171   153   152    1
   172   128   125    1
   173   124   125    1
   174   125   126    1
   175   138   135    1
   176   151   149    1
   177   157   158   ar
   178   157   159   ar
   179   199   200    2
   180   158   160   ar
   181   150   149    1
   182   159   161   ar
   183   149   146    1
   184   160   161   ar
   185   126   127    2
   186   135   134    1
   187   135   136    1
   188   146   145    1
   189   146   147    1
   190   137   136    2
   191   147   148    2
