@<TRIPOS>MOLECULE
tmp/4u8zA00.pdb
 147 136 0 0 0
SMALL
GASTEIGER

@<TRIPOS>ATOM
      1  N          9.8140  -31.0190   15.1040 N.3    22  ILE22      -0.1231
      2  CA        10.6370  -30.6400   16.2480 C.3    22  ILE22       0.1692
      3  C         11.8660  -29.8490   15.8070 C.2    22  ILE22       0.2593
      4  O         12.5280  -29.2340   16.6300 O.2    22  ILE22      -0.2718
      5  CB        10.9680  -31.8360   17.1860 C.3    22  ILE22       0.0266
      6  CG1       11.6600  -32.9940   16.4180 C.3    22  ILE22       0.0019
      7  CG2        9.7120  -32.2910   17.9650 C.3    22  ILE22       0.0020
      8  CD1       12.2090  -34.1960   17.2830 C.3    22  ILE22       0.0001
      9  N         12.1640  -29.8830   14.5170 N.am   23  GLY23      -0.1942
     10  CA        13.2820  -29.1320   13.9760 C.3    23  GLY23       0.2014
     11  C         13.7140  -29.5660   12.6030 C.2    23  GLY23       0.2639
     12  O         12.9210  -30.1060   11.8270 O.2    23  GLY23      -0.2714
     13  N         14.9700  -29.2670   12.2720 N.am   24  LYS24      -0.1963
     14  CA        15.4910  -29.6260   10.9750 C.3    24  LYS24       0.1728
     15  C         16.8350  -30.2820   11.1100 C.2    24  LYS24       0.2616
     16  O         17.5200  -30.1300   12.1120 O.2    24  LYS24      -0.2715
     17  CB        15.5140  -28.4260   10.0070 C.3    24  LYS24       0.0311
     18  CG        16.3650  -27.2480   10.4660 C.3    24  LYS24       0.0038
     19  CD        16.5010  -26.2160    9.3550 C.3    24  LYS24       0.0206
     20  CE        17.5150  -25.1540    9.6980 C.3    24  LYS24       0.1093
     21  NZ        17.5920  -24.1180    8.6370 N.3    24  LYS24      -0.1314
     22  N         17.1680  -31.0610   10.1180 N.am   25  GLY25      -0.1955
     23  CA        18.4570  -31.7100   10.0300 C.3    25  GLY25       0.1869
     24  C         18.9860  -31.4270    8.6500 C.2    25  GLY25       0.2309
     25  O         18.3440  -30.7100    7.8740 O.2    25  GLY25      -0.2863
     26  N         12.7850  -32.7320   10.8230 N.3    30  VAL30      -0.1245
     27  CA        12.7300  -33.7720   11.8510 C.3    30  VAL30       0.1561
     28  C         11.4160  -33.6540   12.6110 C.2    30  VAL30       0.2260
     29  O         11.0130  -32.5580   13.0110 O.2    30  VAL30      -0.2867
     30  CB        13.9630  -33.8130   12.7970 C.3    30  VAL30       0.0252
     31  CG1       13.8860  -35.0130   13.7440 C.3    30  VAL30       0.0019
     32  CG2       15.2730  -33.8490   12.0000 C.3    30  VAL30       0.0019
     33  N         12.4740  -40.0350   16.7380 N.3    43  ALA43      -0.1245
     34  CA        12.6460  -38.8160   15.9750 C.3    43  ALA43       0.1562
     35  C         12.7300  -39.3000   14.5290 C.2    43  ALA43       0.2260
     36  O         13.4500  -40.2560   14.2240 O.2    43  ALA43      -0.2867
     37  CB        13.9350  -38.0900   16.3800 C.3    43  ALA43       0.0290
     38  N         13.3920  -38.1970   10.5850 N.3    45  LYS45      -0.1245
     39  CA        13.7830  -37.2090    9.5950 C.3    45  LYS45       0.1561
     40  C         13.1950  -37.6400    8.2480 C.2    45  LYS45       0.2260
     41  O         13.3440  -38.8030    7.8660 O.2    45  LYS45      -0.2867
     42  CB        15.3000  -36.9900    9.5230 C.3    45  LYS45       0.0271
     43  CG        15.6780  -35.9770    8.4320 C.3    45  LYS45       0.0035
     44  CD        17.0670  -35.3850    8.5910 C.3    45  LYS45       0.0206
     45  CE        18.1680  -36.3320    8.1700 C.3    45  LYS45       0.1093
     46  NZ        19.4970  -35.6550    8.1970 N.3    45  LYS45      -0.1314
     47  N         25.3680  -40.3040    5.6750 N.3    62  GLU62      -0.1245
     48  CA        24.8090  -40.0010    7.0120 C.3    62  GLU62       0.1567
     49  C         24.2420  -41.2590    7.6440 C.2    62  GLU62       0.2260
     50  O         24.5850  -41.5930    8.7840 O.2    62  GLU62      -0.2867
     51  CB        23.7510  -38.8820    6.9440 C.3    62  GLU62       0.0388
     52  CG        23.0800  -38.6000    8.2890 C.3    62  GLU62       0.1160
     53  CD        22.1310  -37.4220    8.3580 C.2    62  GLU62       0.3649
     54  OE1       21.5220  -37.0860    7.3200 O.co2  62  GLU62      -0.2457
     55  OE2       21.9680  -36.8510    9.4600 O.co2  62  GLU62      -0.2457
     56  N         23.2570  -40.6870   19.0330 N.3    75  THR75      -0.1218
     57  CA        21.8360  -41.0140   18.7300 C.3    75  THR75       0.1862
     58  C         21.7520  -42.3220   17.9520 C.2    75  THR75       0.2287
     59  O         22.4430  -42.4950   16.9390 O.2    75  THR75      -0.2866
     60  CB        21.1460  -39.8960   17.9220 C.3    75  THR75       0.1770
     61  OG1       21.8610  -39.6740   16.6900 O.3    75  THR75      -0.2211
     62  CG2       21.0060  -38.6020   18.7110 C.3    75  THR75       0.0375
     63  N         15.2590  -42.3370   14.1220 N.3    91  MET91      -0.1230
     64  CA        16.3290  -42.1320   15.0840 C.3    91  MET91       0.1702
     65  C         15.8130  -42.0700   16.5000 C.2    91  MET91       0.2592
     66  O         14.6260  -41.8070   16.7450 O.2    91  MET91      -0.2718
     67  CB        17.0210  -40.7860   14.7890 C.3    91  MET91       0.0401
     68  CG        17.7330  -40.7600   13.4790 C.3    91  MET91       0.0596
     69  SD        18.2750  -39.0790   13.1150 S.3    91  MET91      -0.1393
     70  CE        16.7980  -38.4220   12.4060 C.3    91  MET91       0.0692
     71  N         16.7550  -42.2130   17.4440 N.am   92  GLU92      -0.1966
     72  CA        16.4890  -42.1040   18.8690 C.3    92  GLU92       0.1733
     73  C         15.9470  -40.7130   19.2080 C.2    92  GLU92       0.2616
     74  O         16.5160  -39.7000   18.7790 O.2    92  GLU92      -0.2715
     75  CB        17.7960  -42.3630   19.6220 C.3    92  GLU92       0.0429
     76  CG        17.7120  -42.2280   21.1210 C.3    92  GLU92       0.1163
     77  CD        18.9950  -42.6530   21.8120 C.2    92  GLU92       0.3649
     78  OE1       18.9250  -42.9140   23.0310 O.co2  92  GLU92      -0.2457
     79  OE2       20.0440  -42.8010   21.1380 O.co2  92  GLU92      -0.2457
     80  N         14.8800  -40.6720   19.9890 N.am   93  TYR93      -0.1960
     81  CA        14.2840  -39.4120   20.4260 C.3    93  TYR93       0.1771
     82  C         14.9130  -39.0670   21.7810 C.2    93  TYR93       0.2619
     83  O         15.1110  -39.9570   22.6120 O.2    93  TYR93      -0.2715
     84  CB        12.7610  -39.5530   20.5820 C.3    93  TYR93       0.0574
     85  CG        12.1330  -38.2990   21.1420 C.ar   93  TYR93      -0.0198
     86  CD1       11.9300  -37.1820   20.3390 C.ar   93  TYR93      -0.0009
     87  CD2       11.7500  -38.2230   22.4810 C.ar   93  TYR93      -0.0009
     88  CE1       11.3690  -36.0140   20.8500 C.ar   93  TYR93       0.0417
     89  CE2       11.1670  -37.0640   22.9990 C.ar   93  TYR93       0.0417
     90  CZ        11.0060  -35.9540   22.1860 C.ar   93  TYR93       0.1957
     91  OH        10.4510  -34.7960   22.6750 O.3    93  TYR93      -0.2866
     92  N         15.3070  -37.7920   21.9630 N.am   94  LEU94      -0.1977
     93  CA        15.8700  -37.3030   23.2390 C.3    94  LEU94       0.1596
     94  C         15.0220  -36.1080   23.7100 C.2    94  LEU94       0.2287
     95  O         15.0140  -35.0580   23.0610 O.2    94  LEU94      -0.2864
     96  CB        17.3610  -36.9330   23.0620 C.3    94  LEU94       0.0297
     97  CG        18.2350  -38.1840   22.7940 C.3    94  LEU94       0.0022
     98  CD1       19.5530  -37.8380   22.1470 C.3    94  LEU94       0.0001
     99  CD2       18.3940  -39.0320   24.0500 C.3    94  LEU94       0.0001
    100  N         18.0750  -29.5610   23.4650 N.3    98  SER98      -0.1217
    101  CA        19.4860  -29.4940   23.0820 C.3    98  SER98       0.1889
    102  C         20.1680  -28.6260   24.1130 C.2    98  SER98       0.2288
    103  O         19.4820  -27.8930   24.8420 O.2    98  SER98      -0.2866
    104  CB        19.6670  -28.9470   21.6610 C.3    98  SER98       0.2089
    105  OG        19.2860  -27.5850   21.5260 O.3    98  SER98      -0.2183
    106  N         19.0820  -25.0520   23.7580 N.3   101  ASP101     -0.1239
    107  CA        17.7750  -24.7210   24.3440 C.3   101  ASP101      0.1674
    108  C         17.9000  -24.4750   25.8070 C.2   101  ASP101      0.2266
    109  O         17.2640  -23.5670   26.3310 O.2   101  ASP101     -0.2867
    110  CB        16.8000  -25.9050   24.2210 C.3   101  ASP101      0.1410
    111  CG        16.4670  -26.3520   22.8320 C.2   101  ASP101      0.3668
    112  OD1       16.0810  -27.5300   22.6740 O.co2 101  ASP101     -0.2456
    113  OD2       16.4900  -25.5040   21.9160 O.co2 101  ASP101     -0.2456
    114  N         23.6910  -26.9360   19.5700 N.3   140  ALA140     -0.1231
    115  CA        22.4010  -27.3610   18.9720 C.3   140  ALA140      0.1694
    116  C         22.4100  -28.8530   18.6140 C.2   140  ALA140      0.2592
    117  O         21.3400  -29.4610   18.5690 O.2   140  ALA140     -0.2718
    118  CB        22.0750  -26.5240   17.7280 C.3   140  ALA140      0.0304
    119  N         23.5960  -29.4520   18.3870 N.am  141  ASN141     -0.1974
    120  CA        23.7330  -30.8660   18.0700 C.3   141  ASN141      0.1688
    121  C         24.0740  -31.7460   19.2730 C.2   141  ASN141      0.2292
    122  O         24.4120  -32.9130   19.1120 O.2   141  ASN141     -0.2864
    123  CB        24.6980  -31.0850   16.9180 C.3   141  ASN141      0.1181
    124  CG        24.1820  -30.5080   15.6280 C.2   141  ASN141      0.2629
    125  OD1       22.9760  -30.1940   15.4730 O.2   141  ASN141     -0.2716
    126  ND2       25.0780  -30.3840   14.6650 N.am  141  ASN141     -0.0877
    127  N         22.3200  -33.1810   22.3710 N.3   143  LEU143     -0.1245
    128  CA        20.9730  -33.4620   22.8760 C.3   143  LEU143      0.1561
    129  C         20.9690  -34.1920   24.1940 C.2   143  LEU143      0.2260
    130  O         21.8210  -35.0440   24.4460 O.2   143  LEU143     -0.2867
    131  CB        20.1810  -34.2820   21.8510 C.3   143  LEU143      0.0270
    132  CG        20.0880  -33.7160   20.4210 C.3   143  LEU143      0.0019
    133  CD1       19.2220  -34.5720   19.5950 C.3   143  LEU143      0.0001
    134  CD2       19.5400  -32.3150   20.4100 C.3   143  LEU143      0.0001
    135  N         24.1950  -35.6930   18.0660 N.3   153  ALA153     -0.1231
    136  CA        23.2060  -35.7920   16.9900 C.3   153  ALA153      0.1694
    137  C         23.7010  -35.0360   15.7330 C.2   153  ALA153      0.2592
    138  O         24.7220  -34.3380   15.7840 O.2   153  ALA153     -0.2718
    139  CB        21.8980  -35.2000   17.4650 C.3   153  ALA153      0.0304
    140  N         22.9480  -35.1440   14.6220 N.am  154  ASP154     -0.1974
    141  CA        23.2360  -34.4590   13.3470 C.3   154  ASP154      0.1709
    142  C         24.5280  -34.9820   12.7090 C.2   154  ASP154      0.2293
    143  O         25.5740  -34.3280   12.7940 O.2   154  ASP154     -0.2864
    144  CB        23.2530  -32.9310   13.5410 C.3   154  ASP154      0.1436
    145  CG        22.7640  -32.0780   12.3860 C.2   154  ASP154      0.3671
    146  OD1       22.5120  -32.6380   11.3040 O.co2 154  ASP154     -0.2456
    147  OD2       22.6260  -30.8380   12.5780 O.co2 154  ASP154     -0.2456
@<TRIPOS>BOND
     1    47    48    1
     2    51    48    1
     3    51    52    1
     4    48    49    1
     5    54    53   ar
     6    49    50    2
     7    41    40    2
     8    25    24    2
     9    45    46    1
    10    45    44    1
    11    40    39    1
    12    52    53    1
    13    53    55   ar
    14    43    44    1
    15    43    42    1
    16    21    20    1
    17    24    23    1
    18    19    20    1
    19    19    18    1
    20    42    39    1
    21    39    38    1
    22    17    18    1
    23    17    14    1
    24    23    22    1
    25    22    15   am
    26    26    27    1
    27    14    15    1
    28    14    13    1
    29    15    16    2
    30   146   145   ar
    31    12    11    2
    32    27    28    1
    33    27    30    1
    34    32    30    1
    35    13    11   am
    36   145   147   ar
    37   145   144    1
    38    70    69    1
    39    11    10    1
    40    28    29    2
    41   142   143    2
    42   142   141    1
    43    30    31    1
    44    69    68    1
    45   141   144    1
    46   141   140    1
    47    68    67    1
    48    10     9    1
    49    63    64    1
    50    36    35    2
    51     9     3   am
    52    35    34    1
    53   140   137   am
    54   126   124   am
    55    67    64    1
    56    64    65    1
    57     1     2    1
    58   125   124    2
    59   124   123    1
    60   137   138    2
    61   137   136    1
    62     3     2    1
    63     3     4    2
    64    34    37    1
    65    34    33    1
    66     2     5    1
    67     6     5    1
    68     6     8    1
    69    65    66    2
    70    65    71   am
    71    61    60    1
    72   123   120    1
    73    59    58    2
    74   136   139    1
    75   136   135    1
    76     5     7    1
    77    71    72    1
    78   118   115    1
    79    60    62    1
    80    60    57    1
    81    58    57    1
    82   120   119    1
    83   120   121    1
    84   119   116   am
    85   117   116    2
    86   116   115    1
    87    57    56    1
    88    74    73    2
    89    72    73    1
    90    72    75    1
    91   115   114    1
    92   122   121    2
    93    73    80   am
    94   133   132    1
    95    75    76    1
    96    80    81    1
    97    86    88   ar
    98    86    85   ar
    99   134   132    1
   100   132   131    1
   101    81    84    1
   102    81    82    1
   103    84    85    1
   104    88    90   ar
   105    76    77    1
   106    79    77   ar
   107    85    87   ar
   108   105   104    1
   109   104   101    1
   110    82    92   am
   111    82    83    2
   112    77    78   ar
   113   131   128    1
   114   113   111   ar
   115    92    93    1
   116    98    97    1
   117    90    91    1
   118    90    89   ar
   119   127   128    1
   120    87    89   ar
   121   112   111   ar
   122    97    96    1
   123    97    99    1
   124   111   110    1
   125   128   129    1
   126    95    94    2
   127    96    93    1
   128   101   100    1
   129   101   102    1
   130    93    94    1
   131   106   107    1
   132   102   103    2
   133   129   130    2
   134   110   107    1
   135   107   108    1
   136   108   109    2
