@<TRIPOS>MOLECULE
tmp/4u90A00.pdb
 166 160 0 0 0
SMALL
GASTEIGER

@<TRIPOS>ATOM
      1  N         19.3850  117.6590   98.1000 N.3     8  MET8       -0.1230
      2  CA        18.4720  118.3330   99.0000 C.3     8  MET8        0.1702
      3  C         19.0630  118.4000  100.4200 C.2     8  MET8        0.2592
      4  O         19.0680  119.4380  101.0350 O.2     8  MET8       -0.2718
      5  CB        17.1760  117.5770   98.9930 C.3     8  MET8        0.0401
      6  CG        16.1030  118.1760   99.8120 C.3     8  MET8        0.0596
      7  SD        15.5730  119.7990   99.1960 S.3     8  MET8       -0.1393
      8  CE        14.7270  120.2160  100.7040 C.3     8  MET8        0.0692
      9  N         19.5820  117.2720  100.9200 N.am    9  ASP9       -0.1974
     10  CA        20.2670  117.2200  102.2290 C.3     9  ASP9        0.1709
     11  C         21.3910  118.2230  102.3750 C.2     9  ASP9        0.2293
     12  O         21.4740  118.8700  103.3940 O.2     9  ASP9       -0.2864
     13  CB        20.8100  115.8190  102.5440 C.3     9  ASP9        0.1436
     14  CG        19.7250  114.8660  102.9000 C.2     9  ASP9        0.3671
     15  OD1       18.8410  115.2410  103.6960 O.co2   9  ASP9       -0.2456
     16  OD2       19.7200  113.7470  102.3490 O.co2   9  ASP9       -0.2456
     17  N         19.8690  121.8040  102.3950 N.3    12  PHE12      -0.1227
     18  CA        19.1970  122.1410  103.6590 C.3    12  PHE12       0.1736
     19  C         20.1690  122.4400  104.8020 C.2    12  PHE12       0.2595
     20  O         20.0030  123.4110  105.5590 O.2    12  PHE12      -0.2718
     21  CB        18.2280  121.0300  104.0490 C.3    12  PHE12       0.0547
     22  CG        17.4620  121.2910  105.3140 C.ar   12  PHE12      -0.0202
     23  CD1       16.3280  122.0780  105.3120 C.ar   12  PHE12      -0.0042
     24  CD2       17.8490  120.6970  106.5040 C.ar   12  PHE12      -0.0042
     25  CE1       15.6220  122.3320  106.4660 C.ar   12  PHE12      -0.0003
     26  CE2       17.1360  120.9470  107.6770 C.ar   12  PHE12      -0.0003
     27  CZ        16.0250  121.7680  107.6580 C.ar   12  PHE12      -0.0000
     28  N         21.1520  121.5530  104.9710 N.am   13  ILE13      -0.1980
     29  CA        22.1310  121.7340  105.9920 C.3    13  ILE13       0.1595
     30  C         22.9370  123.0110  105.7870 C.2    13  ILE13       0.2287
     31  O         23.3010  123.7060  106.7420 O.2    13  ILE13      -0.2864
     32  CB        23.0840  120.4990  106.0080 C.3    13  ILE13       0.0276
     33  CG1       22.5840  119.4590  107.0190 C.3    13  ILE13       0.0022
     34  CG2       24.5330  120.9010  106.2480 C.3    13  ILE13       0.0022
     35  CD1       21.4720  118.5280  106.4660 C.3    13  ILE13       0.0001
     36  N         10.4030  124.9020  102.9560 N.3   314  LEU314     -0.1245
     37  CA        11.5400  123.9910  103.1940 C.3   314  LEU314      0.1561
     38  C         12.8320  124.7030  103.6570 C.2   314  LEU314      0.2260
     39  O         13.5200  124.2310  104.5250 O.2   314  LEU314     -0.2867
     40  CB        11.8680  123.1790  101.9370 C.3   314  LEU314      0.0270
     41  CG        10.7930  122.1860  101.5120 C.3   314  LEU314      0.0019
     42  CD1       10.9660  121.7230  100.0680 C.3   314  LEU314      0.0001
     43  CD2       10.8020  121.0160  102.4400 C.3   314  LEU314      0.0001
     44  N         11.8930  121.8460  111.0360 N.3   331  PRO331     -0.2116
     45  CA        10.4320  121.7060  111.0310 C.3   331  PRO331      0.1372
     46  C          9.9560  120.3550  111.6700 C.2   331  PRO331      0.2244
     47  O         10.7350  119.4380  111.8400 O.2   331  PRO331     -0.2868
     48  CB        10.1170  121.7440  109.5460 C.3   331  PRO331      0.0268
     49  CG        11.2930  121.1060  108.9160 C.3   331  PRO331      0.0207
     50  CD        12.4710  121.6220  109.7010 C.3   331  PRO331      0.0892
     51  N          8.0700  116.9570  111.5380 N.3   333  ILE333     -0.1245
     52  CA         7.7740  115.9790  110.5090 C.3   333  ILE333      0.1561
     53  C          6.9980  114.8500  111.2050 C.2   333  ILE333      0.2260
     54  O          7.4150  114.3430  112.2390 O.2   333  ILE333     -0.2867
     55  CB         9.0600  115.4490  109.8800 C.3   333  ILE333      0.0252
     56  CG1        9.7790  116.6040  109.1970 C.3   333  ILE333      0.0019
     57  CG2        8.7590  114.3440  108.8560 C.3   333  ILE333      0.0019
     58  CD1       11.1550  116.2270  108.8190 C.3   333  ILE333      0.0001
     59  N          4.1840  111.3300  110.6290 N.3   335  LYS335     -0.1245
     60  CA         3.7900  110.2050  109.7640 C.3   335  LYS335      0.1561
     61  C          2.3010  110.3070  109.4130 C.2   335  LYS335      0.2260
     62  O          1.4590  110.6750  110.2530 O.2   335  LYS335     -0.2867
     63  CB         4.0640  108.8690  110.4580 C.3   335  LYS335      0.0271
     64  CG         5.5240  108.5400  110.6950 C.3   335  LYS335      0.0035
     65  CD         6.2530  108.6430  109.3970 C.3   335  LYS335      0.0206
     66  CE         7.4880  107.8490  109.2960 C.3   335  LYS335      0.1093
     67  NZ         7.9800  107.8590  107.8920 N.3   335  LYS335     -0.1314
     68  N         13.7180  113.7750   95.1040 N.3   348  PRO348     -0.2116
     69  CA        12.8050  113.9520   96.2480 C.3   348  PRO348      0.1372
     70  C         11.7640  114.9580   95.9320 C.2   348  PRO348      0.2244
     71  O         12.0540  116.0080   95.3670 O.2   348  PRO348     -0.2868
     72  CB        13.7260  114.4660   97.3600 C.3   348  PRO348      0.0268
     73  CG        14.8770  115.0210   96.6730 C.3   348  PRO348      0.0207
     74  CD        15.0800  114.1670   95.4580 C.3   348  PRO348      0.0892
     75  N          7.9980  117.1140   96.8280 N.3   350  TYR350     -0.1241
     76  CA         7.2700  117.7810   97.9200 C.3   350  TYR350      0.1605
     77  C          6.0080  118.3150   97.3550 C.2   350  TYR350      0.2264
     78  O          6.0070  118.8940   96.2530 O.2   350  TYR350     -0.2867
     79  CB         8.1240  118.9070   98.5100 C.3   350  TYR350      0.0534
     80  CG         9.4240  118.4200   99.0150 C.ar  350  TYR350     -0.0201
     81  CD1        9.5530  117.9360  100.2940 C.ar  350  TYR350     -0.0009
     82  CD2       10.5450  118.4790   98.2310 C.ar  350  TYR350     -0.0009
     83  CE1       10.7570  117.4130  100.7520 C.ar  350  TYR350      0.0417
     84  CE2       11.7760  117.9980   98.6760 C.ar  350  TYR350      0.0417
     85  CZ        11.8610  117.4460   99.9310 C.ar  350  TYR350      0.1957
     86  OH        13.0750  117.0650  100.4150 O.3   350  TYR350     -0.2866
     87  N          6.3780  114.7010  101.8270 N.3   386  MET386     -0.1230
     88  CA         7.8010  114.5170  101.5120 C.3   386  MET386      0.1702
     89  C          8.0060  113.1690  100.8970 C.2   386  MET386      0.2592
     90  O          8.1830  112.1830  101.5820 O.2   386  MET386     -0.2718
     91  CB         8.6630  114.6700  102.7350 C.3   386  MET386      0.0401
     92  CG         8.4690  116.0150  103.4820 C.3   386  MET386      0.0596
     93  SD         8.8430  115.8860  105.2350 S.3   386  MET386     -0.1393
     94  CE        10.5660  115.4900  105.2720 C.3   386  MET386      0.0692
     95  N          7.9170  113.1090   99.5870 N.am  387  LEU387     -0.1966
     96  CA         8.0200  111.8070   98.9220 C.3   387  LEU387      0.1713
     97  C          9.4620  111.3520   98.7410 C.2   387  LEU387      0.2458
     98  O         10.3280  112.1520   98.4190 O.2   387  LEU387     -0.2730
     99  CB         7.3260  111.8450   97.6080 C.3   387  LEU387      0.0310
    100  CG         5.8650  112.0830   97.8070 C.3   387  LEU387      0.0022
    101  CD1        5.2410  112.2630   96.4310 C.3   387  LEU387      0.0001
    102  CD2        5.1470  110.9800   98.5470 C.3   387  LEU387      0.0001
    103  N          9.7460  110.0640   99.0140 N.am  388  PRO388     -0.2716
    104  CA        11.0690  109.5080   98.7680 C.3   388  PRO388      0.1521
    105  C         11.4800  109.4790   97.3180 C.2   388  PRO388      0.2440
    106  O         10.6150  109.4260   96.4270 O.2   388  PRO388     -0.2731
    107  CB        11.0010  108.1000   99.3190 C.3   388  PRO388      0.0310
    108  CG         9.6220  107.8780   99.7970 C.3   388  PRO388      0.0237
    109  CD         8.7840  109.0410   99.4470 C.3   388  PRO388      0.0939
    110  N         12.7860  109.5900   97.0660 N.am  389  PRO389     -0.2727
    111  CA        13.2890  109.4500   95.6790 C.3   389  PRO389      0.1402
    112  C         13.0130  108.0460   95.1420 C.2   389  PRO389      0.2269
    113  O         12.9640  107.1310   95.9090 O.2   389  PRO389     -0.2865
    114  CB        14.7810  109.6650   95.8350 C.3   389  PRO389      0.0296
    115  CG        14.8990  110.5140   97.0490 C.3   389  PRO389      0.0237
    116  CD        13.8540  109.9990   97.9780 C.3   389  PRO389      0.0939
    117  N         11.4320  100.7520   95.2290 N.3   394  TYR394     -0.1241
    118  CA        10.2470  101.5870   95.3840 C.3   394  TYR394      0.1605
    119  C         10.1150  102.4820   94.1810 C.2   394  TYR394      0.2264
    120  O         10.8750  103.4140   93.9970 O.2   394  TYR394     -0.2867
    121  CB        10.3460  102.4340   96.6540 C.3   394  TYR394      0.0534
    122  CG        10.2990  101.5870   97.9040 C.ar  394  TYR394     -0.0201
    123  CD1        9.1010  100.9880   98.3170 C.ar  394  TYR394     -0.0009
    124  CD2       11.4520  101.3550   98.6610 C.ar  394  TYR394     -0.0009
    125  CE1        9.0520  100.1780   99.4510 C.ar  394  TYR394      0.0417
    126  CE2       11.4120  100.5420   99.7870 C.ar  394  TYR394      0.0417
    127  CZ        10.2180   99.9670  100.1770 C.ar  394  TYR394      0.1957
    128  OH        10.1890   99.1940  101.3000 O.3   394  TYR394     -0.2866
    129  N          4.1370  104.4640   95.3260 N.3   397  LEU397     -0.1245
    130  CA         3.5830  104.2730   96.6510 C.3   397  LEU397      0.1561
    131  C          2.0980  104.2170   96.4680 C.2   397  LEU397      0.2260
    132  O          1.5490  104.8250   95.5400 O.2   397  LEU397     -0.2867
    133  CB         3.9790  105.3880   97.6010 C.3   397  LEU397      0.0270
    134  CG         5.3420  105.3750   98.2710 C.3   397  LEU397      0.0019
    135  CD1        6.3860  105.3030   97.2140 C.3   397  LEU397      0.0001
    136  CD2        5.6500  106.6310   99.0970 C.3   397  LEU397      0.0001
    137  N          2.5660  104.6300  104.3760 N.3   402  VAL402     -0.1231
    138  CA         2.9330  105.5500  105.4020 C.3   402  VAL402      0.1692
    139  C          4.0030  106.4540  104.8490 C.2   402  VAL402      0.2592
    140  O          5.0570  106.0350  104.2840 O.2   402  VAL402     -0.2718
    141  CB         3.3630  104.8440  106.6790 C.3   402  VAL402      0.0266
    142  CG1        3.9050  105.8280  107.7030 C.3   402  VAL402      0.0020
    143  CG2        2.1760  104.1300  107.3110 C.3   402  VAL402      0.0020
    144  N          3.7330  107.7350  104.9760 N.am  403  VAL403     -0.1966
    145  CA         4.6740  108.7490  104.4630 C.3   403  VAL403      0.1727
    146  C          5.0100  109.8280  105.5100 C.2   403  VAL403      0.2616
    147  O          4.2870  110.0050  106.4290 O.2   403  VAL403     -0.2715
    148  CB         4.1350  109.4320  103.1980 C.3   403  VAL403      0.0290
    149  CG1        4.1590  108.4520  102.0470 C.3   403  VAL403      0.0023
    150  CG2        2.7500  110.0660  103.4360 C.3   403  VAL403      0.0023
    151  N          6.0940  110.5530  105.2630 N.am  404  ASP404     -0.1971
    152  CA         6.5300  111.7230  106.0260 C.3   404  ASP404      0.1709
    153  C          5.7880  112.9340  105.5260 C.2   404  ASP404      0.2293
    154  O          5.6910  113.1240  104.3350 O.2   404  ASP404     -0.2864
    155  CB         8.0130  111.9920  105.7720 C.3   404  ASP404      0.1436
    156  CG         8.9350  110.9900  106.4590 C.2   404  ASP404      0.3671
    157  OD1        8.5090  110.4670  107.5170 O.co2 404  ASP404     -0.2456
    158  OD2       10.0660  110.7730  105.9500 O.co2 404  ASP404     -0.2456
    159  N          5.7140  117.2400  106.4550 N.3   406  MET406     -0.1245
    160  CA         6.1640  118.3400  107.2100 C.3   406  MET406      0.1570
    161  C          4.9660  119.2020  107.5820 C.2   406  MET406      0.2261
    162  O          4.1100  119.4980  106.8030 O.2   406  MET406     -0.2867
    163  CB         7.1950  119.1220  106.3830 C.3   406  MET406      0.0387
    164  CG         7.7000  120.3280  107.1110 C.3   406  MET406      0.0595
    165  SD         8.6820  121.3600  105.9830 S.3   406  MET406     -0.1393
    166  CE         9.9170  120.2720  105.5480 C.3   406  MET406      0.0692
@<TRIPOS>BOND
     1   120   119    2
     2   119   118    1
     3    68    74    1
     4    68    69    1
     5   112   111    1
     6   112   113    2
     7   117   118    1
     8   129   130    1
     9    71    70    2
    10   118   121    1
    11    74    73    1
    12   132   131    2
    13   111   114    1
    14   111   110    1
    15   114   115    1
    16    70    69    1
    17    69    72    1
    18    78    77    2
    19   106   105    2
    20   101   100    1
    21   131   130    1
    22   130   133    1
    23   121   122    1
    24    73    72    1
    25    75    76    1
    26   115   116    1
    27   110   105   am
    28   110   116    1
    29   135   134    1
    30   105   104    1
    31    77    76    1
    32   133   134    1
    33    99   100    1
    34    99    96    1
    35   100   102    1
    36   122   123   ar
    37   122   124   ar
    38    76    79    1
    39     1     2    1
    40    82    84   ar
    41    82    80   ar
    42   134   136    1
    43   123   125   ar
    44    98    97    2
    45    79    80    1
    46   124   126   ar
    47    84    85   ar
    48    97    96    1
    49    97   103   am
    50   104   103    1
    51   104   107    1
    52    96    95    1
    53     5     2    1
    54     5     6    1
    55     2     3    1
    56   103   109    1
    57    80    81   ar
    58     7     6    1
    59     7     8    1
    60   107   108    1
    61   109   108    1
    62   125   127   ar
    63    95    89   am
    64   126   127   ar
    65    85    86    1
    66    85    83   ar
    67    42    41    1
    68   127   128    1
    69    81    83   ar
    70     3     9   am
    71     3     4    2
    72    89    88    1
    73    89    90    2
    74     9    10    1
    75    88    87    1
    76    88    91    1
    77    41    40    1
    78    41    43    1
    79    40    37    1
    80   149   148    1
    81    10    11    1
    82    10    13    1
    83    16    14   ar
    84    11    12    2
    85    17    18    1
    86    13    14    1
    87    91    92    1
    88    14    15   ar
    89    36    37    1
    90    37    38    1
    91   148   150    1
    92   148   145    1
    93    92    93    1
    94    38    39    2
    95    18    21    1
    96    18    19    1
    97    21    22    1
    98   140   139    2
    99   154   153    2
   100   137   138    1
   101   145   144    1
   102   145   146    1
   103    19    28   am
   104    19    20    2
   105   139   144   am
   106   139   138    1
   107    28    29    1
   108    93    94    1
   109   151   146   am
   110   151   152    1
   111    23    22   ar
   112    23    25   ar
   113    22    24   ar
   114   138   141    1
   115   146   147    2
   116   153   152    1
   117   166   165    1
   118   155   152    1
   119   155   156    1
   120    30    29    1
   121    30    31    2
   122   158   156   ar
   123   165   164    1
   124    29    32    1
   125    32    34    1
   126    32    33    1
   127   163   164    1
   128   163   160    1
   129   159   160    1
   130   156   157   ar
   131    25    27   ar
   132    35    33    1
   133    24    26   ar
   134   141   143    1
   135   141   142    1
   136   162   161    2
   137   160   161    1
   138    27    26   ar
   139    67    66    1
   140    58    56    1
   141    57    55    1
   142    49    48    1
   143    49    50    1
   144    56    55    1
   145    66    65    1
   146    65    64    1
   147    61    60    1
   148    61    62    2
   149    48    45    1
   150    50    44    1
   151    60    63    1
   152    60    59    1
   153    55    52    1
   154    63    64    1
   155    52    53    1
   156    52    51    1
   157    45    44    1
   158    45    46    1
   159    53    54    2
   160    46    47    2
