@<TRIPOS>MOLECULE
tmp/4u93A00.pdb
 161 151 0 0 0
SMALL
GASTEIGER

@<TRIPOS>ATOM
      1  N         34.2880   16.2880   11.6800 N.3    32  LEU32      -0.1245
      2  CA        34.8380   17.5300   12.2180 C.3    32  LEU32       0.1561
      3  C         36.1280   17.9170   11.5120 C.2    32  LEU32       0.2260
      4  O         36.3500   19.0970   11.2350 O.2    32  LEU32      -0.2867
      5  CB        35.0270   17.4460   13.7450 C.3    32  LEU32       0.0270
      6  CG        33.7520   17.1730   14.5640 C.3    32  LEU32       0.0019
      7  CD1       34.0940   17.0400   16.0350 C.3    32  LEU32       0.0001
      8  CD2       32.7080   18.2640   14.3740 C.3    32  LEU32       0.0001
      9  N         35.1190   19.3720    8.2090 N.3    35  ASN35      -0.1225
     10  CA        34.6890   20.7480    8.4070 C.3    35  ASN35       0.1785
     11  C         35.8710   21.7010    8.5460 C.2    35  ASN35       0.2597
     12  O         35.8610   22.7910    7.9600 O.2    35  ASN35      -0.2718
     13  CB        33.7930   20.8550    9.6380 C.3    35  ASN35       0.1169
     14  CG        32.4100   20.2630    9.4160 C.2    35  ASN35       0.2627
     15  OD1       32.0170   19.9250    8.2930 O.2    35  ASN35      -0.2716
     16  ND2       31.6610   20.1460   10.4950 N.am   35  ASN35      -0.0877
     17  N         36.8800   21.2870    9.3060 N.am   36  SER36      -0.1952
     18  CA        38.0880   22.0870    9.4560 C.3    36  SER36       0.1924
     19  C         38.7900   22.2880    8.1200 C.2    36  SER36       0.2314
     20  O         39.1790   23.4000    7.7790 O.2    36  SER36      -0.2863
     21  CB        39.0390   21.4550   10.4710 C.3    36  SER36       0.2116
     22  OG        38.4760   21.5260   11.7710 O.3    36  SER36      -0.2180
     23  N         37.0030   24.7880    6.0200 N.3    39  ALA39      -0.1245
     24  CA        37.2240   26.1280    6.5520 C.3    39  ALA39       0.1562
     25  C         38.6000   26.6620    6.1780 C.2    39  ALA39       0.2260
     26  O         38.7620   27.8690    5.9240 O.2    39  ALA39      -0.2867
     27  CB        37.0480   26.1020    8.0650 C.3    39  ALA39       0.0290
     28  N         41.2300   24.3950   14.3500 N.3    77  ASP77      -0.1239
     29  CA        41.7430   24.7740   13.0360 C.3    77  ASP77       0.1674
     30  C         41.9670   26.2670   12.9530 C.2    77  ASP77       0.2266
     31  O         41.3940   27.0360   13.7270 O.2    77  ASP77      -0.2867
     32  CB        40.8130   24.3030   11.9040 C.3    77  ASP77       0.1410
     33  CG        39.4600   25.0070   11.9210 C.2    77  ASP77       0.3668
     34  OD1       39.4140   26.2250   11.6120 O.co2  77  ASP77      -0.2456
     35  OD2       38.4410   24.3520   12.2550 O.co2  77  ASP77      -0.2456
     36  N         38.5820   29.7440    8.3350 N.3    80  ILE80      -0.1231
     37  CA        37.9370   31.0380    8.1800 C.3    80  ILE80       0.1692
     38  C         37.2090   31.5060    9.4500 C.2    80  ILE80       0.2593
     39  O         37.0310   32.7060    9.6560 O.2    80  ILE80      -0.2718
     40  CB        36.9860   31.0420    6.9540 C.3    80  ILE80       0.0266
     41  CG1       36.5640   32.4850    6.6260 C.3    80  ILE80       0.0019
     42  CG2       35.7890   30.0950    7.1630 C.3    80  ILE80       0.0020
     43  CD1       36.2690   32.7470    5.1630 C.3    80  ILE80       0.0001
     44  N         36.7990   30.5670   10.3000 N.am   81  GLY81      -0.1942
     45  CA        36.0010   30.9300   11.4800 C.3    81  GLY81       0.2014
     46  C         34.5580   31.2750   11.1460 C.2    81  GLY81       0.2638
     47  O         34.1470   31.2480    9.9770 O.2    81  GLY81      -0.2714
     48  N         33.7850   31.5970   12.1820 N.am   82  MET82      -0.1976
     49  CA        32.3700   31.9130   12.0240 C.3    82  MET82       0.1605
     50  C         32.0240   33.2420   12.6610 C.2    82  MET82       0.2287
     51  O         32.5230   33.5570   13.7390 O.2    82  MET82      -0.2864
     52  CB        31.5170   30.8270   12.6790 C.3    82  MET82       0.0413
     53  CG        31.5070   29.4970   11.9110 C.3    82  MET82       0.0598
     54  SD        30.8010   28.1110   12.8390 S.3    82  MET82      -0.1393
     55  CE        32.0800   27.8650   14.0750 C.3    82  MET82       0.0692
     56  N         26.6190   33.8660   11.4350 N.3    86  ASP86      -0.1225
     57  CA        26.7110   32.4490   11.0740 C.3    86  ASP86       0.1805
     58  C         26.1230   31.5970   12.1920 C.2    86  ASP86       0.2597
     59  O         25.3120   30.6970   11.9470 O.2    86  ASP86      -0.2718
     60  CB        28.1700   32.0210   10.8580 C.3    86  ASP86       0.1424
     61  CG        28.7940   32.6010    9.5910 C.2    86  ASP86       0.3668
     62  OD1       28.0630   32.8550    8.6120 O.co2  86  ASP86      -0.2456
     63  OD2       30.0390   32.7760    9.5660 O.co2  86  ASP86      -0.2456
     64  N         26.5510   31.8780   13.4270 N.am   87  LEU87      -0.1979
     65  CA        26.1750   31.0510   14.5800 C.3    87  LEU87       0.1596
     66  C         24.6890   31.1100   14.8960 C.2    87  LEU87       0.2287
     67  O         24.1090   30.1030   15.2880 O.2    87  LEU87      -0.2864
     68  CB        26.9660   31.4560   15.8230 C.3    87  LEU87       0.0297
     69  CG        28.4710   31.1970   15.7870 C.3    87  LEU87       0.0022
     70  CD1       29.1350   31.8870   16.9590 C.3    87  LEU87       0.0001
     71  CD2       28.7930   29.7090   15.8030 C.3    87  LEU87       0.0001
     72  N         23.9290   29.5240    9.5220 N.3    91  LEU91      -0.1245
     73  CA        24.1740   28.0800    9.4910 C.3    91  LEU91       0.1561
     74  C         22.9030   27.2900    9.7220 C.2    91  LEU91       0.2260
     75  O         22.7320   26.2280    9.1440 O.2    91  LEU91      -0.2867
     76  CB        25.2840   27.6630   10.4610 C.3    91  LEU91       0.0270
     77  CG        26.6370   28.2380   10.0460 C.3    91  LEU91       0.0019
     78  CD1       27.6200   28.0620   11.1720 C.3    91  LEU91       0.0001
     79  CD2       27.1550   27.5810    8.7710 C.3    91  LEU91       0.0001
     80  N         21.0100   26.6950    6.2830 N.3    94  ILE94      -0.1231
     81  CA        21.5050   25.5440    5.5150 C.3    94  ILE94       0.1692
     82  C         21.2720   24.2230    6.2450 C.2    94  ILE94       0.2591
     83  O         20.9970   23.1910    5.6090 O.2    94  ILE94      -0.2718
     84  CB        23.0110   25.6520    5.0850 C.3    94  ILE94       0.0266
     85  CG1       23.9050   26.1830    6.2150 C.3    94  ILE94       0.0019
     86  CG2       23.1500   26.4990    3.8450 C.3    94  ILE94       0.0020
     87  CD1       24.6430   25.1080    7.0270 C.3    94  ILE94       0.0001
     88  N         21.3460   24.2480    7.5720 N.am   95  ALA95      -0.1980
     89  CA        21.1490   23.0380    8.3600 C.3    95  ALA95       0.1597
     90  C         19.7260   22.5060    8.1990 C.2    95  ALA95       0.2287
     91  O         19.5090   21.2930    8.2220 O.2    95  ALA95      -0.2864
     92  CB        21.4720   23.2780    9.8210 C.3    95  ALA95       0.0319
     93  N         25.7090   17.9390    4.6270 N.3   119  GLY119     -0.1210
     94  CA        26.2420   19.2050    5.1160 C.3   119  GLY119      0.1956
     95  C         25.9770   19.5040    6.5750 C.2   119  GLY119      0.2611
     96  O         26.1610   20.6480    7.0100 O.2   119  GLY119     -0.2717
     97  N         25.5560   18.4890    7.3290 N.am  120  VAL120     -0.1979
     98  CA        25.1970   18.6660    8.7430 C.3   120  VAL120      0.1595
     99  C         26.0410   17.7720    9.6720 C.2   120  VAL120      0.2287
    100  O         25.6550   17.4680   10.8170 O.2   120  VAL120     -0.2864
    101  CB        23.6760   18.4980    8.9860 C.3   120  VAL120      0.0276
    102  CG1       22.9110   19.6730    8.3600 C.3   120  VAL120      0.0022
    103  CG2       23.1670   17.1610    8.4580 C.3   120  VAL120      0.0022
    104  N         28.5660   18.3320   11.4730 N.3   122  PHE122     -0.1227
    105  CA        28.8940   18.9000   12.7830 C.3   122  PHE122      0.1736
    106  C         28.1170   18.2250   13.9090 C.2   122  PHE122      0.2595
    107  O         28.6780   17.9340   14.9600 O.2   122  PHE122     -0.2718
    108  CB        28.6180   20.4040   12.8120 C.3   122  PHE122      0.0547
    109  CG        28.6690   21.0030   14.2000 C.ar  122  PHE122     -0.0202
    110  CD1       29.8780   21.1360   14.8730 C.ar  122  PHE122     -0.0042
    111  CD2       27.4910   21.4000   14.8420 C.ar  122  PHE122     -0.0042
    112  CE1       29.9230   21.6720   16.1720 C.ar  122  PHE122     -0.0003
    113  CE2       27.5230   21.9390   16.1310 C.ar  122  PHE122     -0.0003
    114  CZ        28.7390   22.0760   16.7960 C.ar  122  PHE122     -0.0000
    115  N         26.8290   17.9870   13.6980 N.am  123  TYR123     -0.1976
    116  CA        26.0010   17.4770   14.7870 C.3   123  TYR123      0.1639
    117  C         26.3350   16.0380   15.1580 C.2   123  TYR123      0.2290
    118  O         25.8880   15.5570   16.1940 O.2   123  TYR123     -0.2864
    119  CB        24.5130   17.6580   14.4790 C.3   123  TYR123      0.0560
    120  CG        24.1300   19.1000   14.2710 C.ar  123  TYR123     -0.0198
    121  CD1       23.9180   19.9550   15.3540 C.ar  123  TYR123     -0.0009
    122  CD2       24.0060   19.6100   12.9870 C.ar  123  TYR123     -0.0009
    123  CE1       23.5780   21.3060   15.1330 C.ar  123  TYR123      0.0417
    124  CE2       23.6720   20.9320   12.7600 C.ar  123  TYR123      0.0417
    125  CZ        23.4650   21.7700   13.8230 C.ar  123  TYR123      0.1957
    126  OH        23.1150   23.0780   13.5290 O.3   123  TYR123     -0.2866
    127  N         32.1320   25.5750   21.3380 N.3   134  VAL134     -0.1245
    128  CA        32.8500   25.9930   20.1260 C.3   134  VAL134      0.1561
    129  C         33.3490   27.4170   20.3320 C.2   134  VAL134      0.2260
    130  O         32.5620   28.3170   20.6020 O.2   134  VAL134     -0.2867
    131  CB        31.9590   25.9090   18.8540 C.3   134  VAL134      0.0252
    132  CG1       32.7440   26.3680   17.6220 C.3   134  VAL134      0.0019
    133  CG2       31.4680   24.4850   18.6510 C.3   134  VAL134      0.0019
    134  N         30.1990   29.4870   21.5190 N.3   146  TRP146     -0.1241
    135  CA        28.9020   28.8250   21.3190 C.3   146  TRP146      0.1605
    136  C         28.9050   27.5710   22.1860 C.2   146  TRP146      0.2264
    137  O         29.9410   26.9120   22.3140 O.2   146  TRP146     -0.2867
    138  CB        28.8080   28.4430   19.8370 C.3   146  TRP146      0.0550
    139  CG        27.5810   27.7080   19.3490 C.ar  146  TRP146      0.0003
    140  CD1       26.5380   28.2390   18.6220 C.ar  146  TRP146      0.0946
    141  CD2       27.3220   26.2940   19.4380 C.ar  146  TRP146      0.0152
    142  NE1       25.6390   27.2420   18.2830 N.ar  146  TRP146     -0.2442
    143  CE2       26.0920   26.0470   18.7830 C.ar  146  TRP146      0.0810
    144  CE3       28.0020   25.2140   20.0270 C.ar  146  TRP146      0.0012
    145  CZ2       25.5330   24.7570   18.6970 C.ar  146  TRP146      0.0191
    146  CZ3       27.4450   23.9400   19.9420 C.ar  146  TRP146      0.0001
    147  CH2       26.2230   23.7240   19.2830 C.ar  146  TRP146      0.0015
    148  N         38.5880   28.0630   14.4340 N.3   168  THR168     -0.1218
    149  CA        37.5450   27.4240   15.2260 C.3   168  THR168      0.1862
    150  C         38.1300   26.3350   16.1100 C.2   168  THR168      0.2287
    151  O         38.9900   25.5670   15.6760 O.2   168  THR168     -0.2866
    152  CB        36.4490   26.8470   14.3050 C.3   168  THR168      0.1770
    153  OG1       35.8450   27.9220   13.5720 O.3   168  THR168     -0.2211
    154  CG2       35.3700   26.1120   15.0970 C.3   168  THR168      0.0375
    155  N         36.6060   23.2620   18.3670 N.3   170  VAL170     -0.1245
    156  CA        35.4490   22.4730   18.8000 C.3   170  VAL170      0.1561
    157  C         35.8780   21.6230   19.9880 C.2   170  VAL170      0.2260
    158  O         36.7430   20.7370   19.8570 O.2   170  VAL170     -0.2867
    159  CB        34.8970   21.5510   17.6760 C.3   170  VAL170      0.0252
    160  CG1       33.7430   20.6970   18.2050 C.3   170  VAL170      0.0019
    161  CG2       34.4410   22.3660   16.4780 C.3   170  VAL170      0.0019
@<TRIPOS>BOND
     1    86    84    1
     2    93    94    1
     3    84    81    1
     4    84    85    1
     5    94    95    1
     6    43    41    1
     7    81    82    1
     8    81    80    1
     9    83    82    2
    10    26    25    2
    11    23    24    1
    12    25    24    1
    13    85    87    1
    14    82    88   am
    15    24    27    1
    16    95    96    2
    17    95    97   am
    18    41    40    1
    19    40    42    1
    20    40    37    1
    21    97    98    1
    22    88    89    1
    23    20    19    2
    24    12    11    2
    25    19    18    1
    26    37    36    1
    27    37    38    1
    28    90    91    2
    29    90    89    1
    30     9    10    1
    31    15    14    2
    32    89    92    1
    33   102   101    1
    34    10    11    1
    35    10    13    1
    36   103   101    1
    37    11    17   am
    38    62    61   ar
    39    98   101    1
    40    98    99    1
    41    79    77    1
    42    75    74    2
    43    17    18    1
    44    14    13    1
    45    14    16   am
    46    38    39    2
    47    38    44   am
    48    18    21    1
    49    73    72    1
    50    73    74    1
    51    73    76    1
    52    63    61   ar
    53    61    60    1
    54    99   100    2
    55    47    46    2
    56    77    76    1
    57    77    78    1
    58    44    45    1
    59    21    22    1
    60    60    57    1
    61    57    56    1
    62    57    58    1
    63    46    45    1
    64    46    48   am
    65     4     3    2
    66   104   105    1
    67     3     2    1
    68    34    33   ar
    69     1     2    1
    70    32    33    1
    71    32    29    1
    72    53    52    1
    73    53    54    1
    74    33    35   ar
    75    59    58    2
    76    49    48    1
    77    49    50    1
    78    49    52    1
    79    58    64   am
    80     2     5    1
    81    50    51    2
    82   124   122   ar
    83   124   125   ar
    84   105   108    1
    85   105   106    1
    86   108   109    1
    87    54    55    1
    88    30    29    1
    89    30    31    2
    90   122   120   ar
    91    29    28    1
    92    64    65    1
    93   126   125    1
    94   153   152    1
    95   115   106   am
    96   115   116    1
    97     5     6    1
    98   125   123   ar
    99   106   107    2
   100   109   111   ar
   101   109   110   ar
   102   120   119    1
   103   120   121   ar
   104   152   154    1
   105   152   149    1
   106     8     6    1
   107   148   149    1
   108   119   116    1
   109     6     7    1
   110    65    66    1
   111    65    68    1
   112   116   117    1
   113   111   113   ar
   114   110   112   ar
   115    66    67    2
   116   123   121   ar
   117   117   118    2
   118   149   150    1
   119   151   150    2
   120    69    71    1
   121    69    68    1
   122    69    70    1
   123   113   114   ar
   124   112   114   ar
   125   161   159    1
   126   132   131    1
   127   159   160    1
   128   159   156    1
   129   142   140   ar
   130   142   143   ar
   131   155   156    1
   132   140   139   ar
   133   133   131    1
   134   145   143   ar
   135   145   147   ar
   136   143   141   ar
   137   156   157    1
   138   131   128    1
   139   147   146   ar
   140   139   141   ar
   141   139   138    1
   142   141   144   ar
   143   138   135    1
   144   158   157    2
   145   146   144   ar
   146   128   129    1
   147   128   127    1
   148   129   130    2
   149   135   134    1
   150   135   136    1
   151   136   137    2
