@<TRIPOS>MOLECULE
tmp/4u98A00.pdb
 154 143 0 0 0
SMALL
GASTEIGER

@<TRIPOS>ATOM
      1  N         -4.1550   26.1740    3.8750 N.3   130  SER130     -0.1217
      2  CA        -3.1230   26.6330    4.7960 C.3   130  SER130      0.1889
      3  C         -2.6250   28.0140    4.4040 C.2   130  SER130      0.2288
      4  O         -2.3810   28.2830    3.2280 O.2   130  SER130     -0.2866
      5  CB        -1.9390   25.6680    4.7900 C.3   130  SER130      0.2089
      6  OG        -1.0130   25.9950    5.8120 O.3   130  SER130     -0.2183
      7  N          0.1430   29.1570    5.8450 N.3   132  ALA132     -0.1231
      8  CA         1.5780   29.0810    6.0960 C.3   132  ALA132      0.1694
      9  C          2.3710   29.2060    4.8000 C.2   132  ALA132      0.2592
     10  O          1.9620   28.6940    3.7570 O.2   132  ALA132     -0.2718
     11  CB         1.9220   27.7780    6.8030 C.3   132  ALA132      0.0304
     12  N          3.5070   29.8920    4.8730 N.am  133  GLU133     -0.1966
     13  CA         4.3600   30.0930    3.7090 C.3   133  GLU133      0.1733
     14  C          5.0260   28.7880    3.2930 C.2   133  GLU133      0.2616
     15  O          5.6460   28.1090    4.1120 O.2   133  GLU133     -0.2715
     16  CB         5.4240   31.1500    4.0060 C.3   133  GLU133      0.0429
     17  CG         4.9390   32.5820    3.8420 C.3   133  GLU133      0.1163
     18  CD         4.7230   32.9680    2.3880 C.2   133  GLU133      0.3649
     19  OE1        4.9560   32.1200    1.5000 O.co2 133  GLU133     -0.2457
     20  OE2        4.3220   34.1230    2.1340 O.co2 133  GLU133     -0.2457
     21  N          4.8960   28.4430    2.0160 N.am  134  GLN134     -0.1963
     22  CA         5.4670   27.2050    1.5040 C.3   134  GLN134      0.1733
     23  C          5.5140   27.1910   -0.0220 C.2   134  GLN134      0.2617
     24  O          4.9730   28.0820   -0.6780 O.2   134  GLN134     -0.2715
     25  CB         4.6590   26.0110    2.0040 C.3   134  GLN134      0.0408
     26  CG         3.2070   26.0240    1.5640 C.3   134  GLN134      0.0908
     27  CD         2.6070   24.6380    1.5110 C.2   134  GLN134      0.2608
     28  OE1        3.2040   23.7090    0.9670 O.2   134  GLN134     -0.2717
     29  NE2        1.4210   24.4890    2.0800 N.am  134  GLN134     -0.0878
     30  N          6.1480   26.1600   -0.5730 N.am  135  SER135     -0.1936
     31  CA         6.3450   26.0430   -2.0140 C.3   135  SER135      0.2055
     32  C          5.2340   25.2420   -2.6880 C.2   135  SER135      0.2643
     33  O          5.1630   25.1800   -3.9140 O.2   135  SER135     -0.2714
     34  CB         7.6910   25.3800   -2.3010 C.3   135  SER135      0.2130
     35  OG         7.7190   24.0590   -1.7920 O.3   135  SER135     -0.2179
     36  N          4.3790   24.6200   -1.8820 N.am  136  ASN136     -0.1971
     37  CA         3.2430   23.8650   -2.3930 C.3   136  ASN136      0.1688
     38  C          1.9550   24.4720   -1.8530 C.2   136  ASN136      0.2292
     39  O          1.9720   25.5830   -1.3270 O.2   136  ASN136     -0.2864
     40  CB         3.3840   22.3920   -2.0060 C.3   136  ASN136      0.1181
     41  CG         4.6240   21.7550   -2.6080 C.2   136  ASN136      0.2629
     42  OD1        4.8010   21.7540   -3.8250 O.2   136  ASN136     -0.2716
     43  ND2        5.5010   21.2350   -1.7560 N.am  136  ASN136     -0.0877
     44  N         -4.3420   16.4940    6.2410 N.3   146  MET146     -0.1245
     45  CA        -3.7340   17.5350    5.4240 C.3   146  MET146      0.1570
     46  C         -3.5420   16.9990    4.0110 C.2   146  MET146      0.2261
     47  O         -2.8940   15.9720    3.8280 O.2   146  MET146     -0.2867
     48  CB        -2.3760   17.9240    6.0190 C.3   146  MET146      0.0387
     49  CG        -1.5280   18.8600    5.1600 C.3   146  MET146      0.0595
     50  SD         0.0890   19.2120    5.8920 S.3   146  MET146     -0.1393
     51  CE        -0.4030   20.0750    7.3840 C.3   146  MET146      0.0692
     52  N         -1.7060   17.8160    0.7280 N.3   148  LYS148     -0.1245
     53  CA        -0.6750   18.6450    0.1280 C.3   148  LYS148      0.1561
     54  C         -0.6360   18.3740   -1.3610 C.2   148  LYS148      0.2260
     55  O         -0.4240   17.2420   -1.7930 O.2   148  LYS148     -0.2867
     56  CB         0.6880   18.3630    0.7500 C.3   148  LYS148      0.0271
     57  CG         1.8130   19.1500    0.0990 C.3   148  LYS148      0.0035
     58  CD         3.1360   18.9440    0.8050 C.3   148  LYS148      0.0206
     59  CE         3.1990   19.7180    2.1080 C.3   148  LYS148      0.1093
     60  NZ         4.5630   19.6690    2.7000 N.3   148  LYS148     -0.1314
     61  N          3.7440   11.6480   11.0250 N.3   176  ALA176     -0.1245
     62  CA         2.3650   11.9870   10.7240 C.3   176  ALA176      0.1562
     63  C          1.9620   11.0430    9.6040 C.2   176  ALA176      0.2260
     64  O          2.5020   11.1120    8.5020 O.2   176  ALA176     -0.2867
     65  CB         2.2520   13.4320   10.2900 C.3   176  ALA176      0.0290
     66  N         -1.9310   13.3260    4.6430 N.3   200  THR200     -0.1203
     67  CA        -1.3580   12.8680    5.9010 C.3   200  THR200      0.1994
     68  C         -2.2690   13.2120    7.0670 C.2   200  THR200      0.2618
     69  O         -3.0280   14.1790    7.0230 O.2   200  THR200     -0.2717
     70  CB         0.0430   13.4680    6.1520 C.3   200  THR200      0.1784
     71  OG1       -0.0250   14.8990    6.1250 O.3   200  THR200     -0.2211
     72  CG2        1.0240   12.9880    5.0960 C.3   200  THR200      0.0376
     73  N         -2.2060   12.3870    8.1060 N.am  201  ALA201     -0.1965
     74  CA        -2.9980   12.6180    9.3060 C.3   201  ALA201      0.1728
     75  C         -2.5240   13.9020    9.9610 C.2   201  ALA201      0.2616
     76  O         -1.3310   14.0850   10.1490 O.2   201  ALA201     -0.2715
     77  CB        -2.8520   11.4530   10.2670 C.3   201  ALA201      0.0334
     78  N         -3.4560   14.7850   10.3060 N.am  202  PHE202     -0.1960
     79  CA        -3.1130   16.0670   10.9080 C.3   202  PHE202      0.1771
     80  C         -2.8930   15.9190   12.4080 C.2   202  PHE202      0.2619
     81  O         -3.7440   15.3840   13.1190 O.2   202  PHE202     -0.2715
     82  CB        -4.2190   17.0920   10.6500 C.3   202  PHE202      0.0574
     83  CG        -3.8700   18.4790   11.1010 C.ar  202  PHE202     -0.0200
     84  CD1       -3.0340   19.2780   10.3400 C.ar  202  PHE202     -0.0042
     85  CD2       -4.3750   18.9850   12.2870 C.ar  202  PHE202     -0.0042
     86  CE1       -2.7080   20.5560   10.7520 C.ar  202  PHE202     -0.0003
     87  CE2       -4.0520   20.2610   12.7060 C.ar  202  PHE202     -0.0003
     88  CZ        -3.2180   21.0480   11.9370 C.ar  202  PHE202     -0.0000
     89  N         -1.7470   16.3980   12.8790 N.am  203  ALA203     -0.1977
     90  CA        -1.4110   16.3450   14.2960 C.3   203  ALA203      0.1597
     91  C         -1.9700   17.5710   15.0060 C.2   203  ALA203      0.2287
     92  O         -1.3020   18.6000   15.1090 O.2   203  ALA203     -0.2864
     93  CB         0.0960   16.2640   14.4780 C.3   203  ALA203      0.0319
     94  N         -0.4580   20.2680   18.3480 N.3   206  SER206     -0.1217
     95  CA         0.9600   19.9460   18.3780 C.3   206  SER206      0.1889
     96  C          1.7920   21.2190   18.4390 C.2   206  SER206      0.2288
     97  O          1.3170   22.3020   18.0920 O.2   206  SER206     -0.2866
     98  CB         1.3490   19.1170   17.1520 C.3   206  SER206      0.2089
     99  OG         1.2350   19.8740   15.9590 O.3   206  SER206     -0.2183
    100  N          5.7660   22.8220   17.4610 N.3   208  GLU208     -0.1245
    101  CA         6.9950   22.6370   16.7090 C.3   208  GLU208      0.1567
    102  C          8.1750   22.5950   17.6770 C.2   208  GLU208      0.2260
    103  O          8.2320   23.3750   18.6280 O.2   208  GLU208     -0.2867
    104  CB         7.1620   23.7820   15.7120 C.3   208  GLU208      0.0388
    105  CG         8.2290   23.5570   14.6620 C.3   208  GLU208      0.1160
    106  CD         8.2310   24.6450   13.6060 C.2   208  GLU208      0.3649
    107  OE1        7.2090   24.7980   12.9050 O.co2 208  GLU208     -0.2457
    108  OE2        9.2500   25.3540   13.4840 O.co2 208  GLU208     -0.2457
    109  N         12.6970   22.4570   13.4550 N.3   308  GLY308     -0.1210
    110  CA        11.5210   22.8540   12.7000 C.3   308  GLY308      0.1956
    111  C         10.8340   21.7000   11.9870 C.2   308  GLY308      0.2611
    112  O          9.7290   21.8630   11.4730 O.2   308  GLY308     -0.2717
    113  N         11.4730   20.5320   11.9720 N.am  309  GLN309     -0.1979
    114  CA        10.9630   19.3660   11.2520 C.3   309  GLN309      0.1601
    115  C         10.3680   18.3270   12.1890 C.2   309  GLN309      0.2287
    116  O         10.0680   17.2090   11.7680 O.2   309  GLN309     -0.2864
    117  CB        12.0870   18.6970   10.4630 C.3   309  GLN309      0.0394
    118  CG        12.8770   19.6280    9.5810 C.3   309  GLN309      0.0908
    119  CD        12.1640   19.9720    8.2960 C.2   309  GLN309      0.2608
    120  OE1       10.9970   20.3660    8.2980 O.2   309  GLN309     -0.2717
    121  NE2       12.8670   19.8210    7.1810 N.am  309  GLN309     -0.0878
    122  N          7.4750   17.6150   15.4360 N.3   311  LEU311     -0.1245
    123  CA         6.2590   18.0870   16.0860 C.3   311  LEU311      0.1561
    124  C          6.0230   17.2820   17.3430 C.2   311  LEU311      0.2260
    125  O          6.1240   16.0580   17.3270 O.2   311  LEU311     -0.2867
    126  CB         5.0510   17.8990   15.1660 C.3   311  LEU311      0.0270
    127  CG         5.0500   18.6250   13.8240 C.3   311  LEU311      0.0019
    128  CD1        3.7930   18.2650   13.0560 C.3   311  LEU311      0.0001
    129  CD2        5.1560   20.1270   14.0160 C.3   311  LEU311      0.0001
    130  N          8.5760   15.1050   10.4220 N.3   320  ILE320     -0.1231
    131  CA         7.8820   15.4250    9.1810 C.3   320  ILE320      0.1692
    132  C          8.8630   15.9540    8.1390 C.2   320  ILE320      0.2592
    133  O         10.0060   16.2820    8.4540 O.2   320  ILE320     -0.2718
    134  CB         6.7440   16.4510    9.4030 C.3   320  ILE320      0.0266
    135  CG1        7.2920   17.7710    9.9550 C.3   320  ILE320      0.0019
    136  CG2        5.6830   15.8650   10.3330 C.3   320  ILE320      0.0020
    137  CD1        6.2940   18.9140    9.9180 C.3   320  ILE320      0.0001
    138  N          8.4000   16.0020    6.8940 N.am  321  ASP321     -0.1974
    139  CA         9.1320   16.6020    5.7810 C.3   321  ASP321      0.1709
    140  C         10.3850   15.8100    5.4210 C.2   321  ASP321      0.2293
    141  O         11.5090   16.2330    5.7010 O.2   321  ASP321     -0.2864
    142  CB         9.4850   18.0630    6.0790 C.3   321  ASP321      0.1436
    143  CG         9.9780   18.8060    4.8530 C.2   321  ASP321      0.3671
    144  OD1       10.2020   18.1550    3.8070 O.co2 321  ASP321     -0.2456
    145  OD2       10.1400   20.0440    4.9360 O.co2 321  ASP321     -0.2456
    146  N         11.4070   15.2070    2.3710 N.3   323  GLU323     -0.1245
    147  CA        11.7270   15.4770    0.9720 C.3   323  GLU323      0.1567
    148  C         13.2310   15.5030    0.7160 C.2   323  GLU323      0.2260
    149  O         13.6780   15.2570   -0.4050 O.2   323  GLU323     -0.2867
    150  CB        11.1120   16.8010    0.5160 C.3   323  GLU323      0.0388
    151  CG        10.6380   16.7780   -0.9290 C.3   323  GLU323      0.1160
    152  CD        10.2260   18.1450   -1.4390 C.2   323  GLU323      0.3649
    153  OE1       10.1920   19.1000   -0.6350 O.co2 323  GLU323     -0.2457
    154  OE2        9.9360   18.2630   -2.6490 O.co2 323  GLU323     -0.2457
@<TRIPOS>BOND
     1    33    32    2
     2    42    41    2
     3    32    31    1
     4    32    36   am
     5   154   152   ar
     6    41    40    1
     7    41    43   am
     8    37    40    1
     9    37    36    1
    10    37    38    1
    11    34    31    1
    12    34    35    1
    13    31    30    1
    14    38    39    2
    15    55    54    2
    16   152   151    1
    17   152   153   ar
    18    54    53    1
    19   151   150    1
    20    24    23    2
    21    30    23   am
    22   149   148    2
    23    23    22    1
    24    57    56    1
    25    57    58    1
    26    53    52    1
    27    53    56    1
    28   150   147    1
    29   148   147    1
    30    58    59    1
    31    28    27    2
    32   147   146    1
    33    19    18   ar
    34    22    25    1
    35    22    21    1
    36    27    26    1
    37    27    29   am
    38    26    25    1
    39    21    14   am
    40    59    60    1
    41    20    18   ar
    42    18    17    1
    43     4     3    2
    44    14    13    1
    45    14    15    2
    46    13    16    1
    47    13    12    1
    48    10     9    2
    49   144   143   ar
    50    47    46    2
    51    17    16    1
    52     1     2    1
    53    46    45    1
    54     3     2    1
    55    66    67    1
    56     5     2    1
    57     5     6    1
    58     9    12   am
    59     9     8    1
    60   143   145   ar
    61   143   142    1
    62    72    70    1
    63    49    50    1
    64    49    48    1
    65   140   141    2
    66   140   139    1
    67    45    48    1
    68    45    44    1
    69   139   142    1
    70   139   138    1
    71     7     8    1
    72    50    51    1
    73    67    70    1
    74    67    68    1
    75     8    11    1
    76    71    70    1
    77   138   132   am
    78    69    68    2
    79    68    73   am
    80   121   119   am
    81    73    74    1
    82   132   133    2
    83   132   131    1
    84   119   120    2
    85   119   118    1
    86    64    63    2
    87   131   134    1
    88   131   130    1
    89    74    75    1
    90    74    77    1
    91   134   135    1
    92   134   136    1
    93   118   117    1
    94    63    62    1
    95   137   135    1
    96    75    76    2
    97    75    78   am
    98    65    62    1
    99    78    79    1
   100    84    86   ar
   101    84    83   ar
   102   117   114    1
   103    82    79    1
   104    82    83    1
   105    62    61    1
   106    86    88   ar
   107    79    80    1
   108    83    85   ar
   109   114   113    1
   110   114   115    1
   111   112   111    2
   112   116   115    2
   113    88    87   ar
   114   113   111   am
   115   111   110    1
   116    85    87   ar
   117    80    89   am
   118    80    81    2
   119   110   109    1
   120    89    90    1
   121   107   106   ar
   122   128   127    1
   123   108   106   ar
   124   106   105    1
   125   127   129    1
   126   127   126    1
   127    90    93    1
   128    90    91    1
   129   105   104    1
   130    91    92    2
   131   126   123    1
   132   122   123    1
   133   104   101    1
   134    99    98    1
   135   123   124    1
   136   101   100    1
   137   101   102    1
   138    98    95    1
   139   125   124    2
   140   102   103    2
   141    97    96    2
   142    94    95    1
   143    95    96    1
