@<TRIPOS>MOLECULE
tmp/4u9hB04.pdb
 94 90 0 0 0
SMALL
GASTEIGER

@<TRIPOS>ATOM
      1  N        -16.9930  -11.0000   -5.8570 N.3    79  ASN79      -0.1240
      2  CA       -15.7490  -11.2640   -6.5560 C.3    79  ASN79       0.1653
      3  C        -15.7370  -12.6800   -7.1390 C.2    79  ASN79       0.2266
      4  O        -15.3480  -12.8890   -8.2860 O.2    79  ASN79      -0.2867
      5  CB       -14.5850  -11.0430   -5.5620 C.3    79  ASN79       0.1155
      6  CG       -13.2450  -11.3130   -6.1520 C.2    79  ASN79       0.2627
      7  OD1      -12.7030  -12.3990   -5.9560 O.2    79  ASN79      -0.2716
      8  ND2      -12.6860  -10.3530   -6.8620 N.am   79  ASN79      -0.0877
      9  N        -14.7220   -1.7090   -7.3950 N.3   287  GLU287     -0.1231
     10  CA       -14.7180   -2.8350   -6.4810 C.3   287  GLU287      0.1699
     11  C        -13.5910   -3.8340   -6.7600 C.2   287  GLU287      0.2592
     12  O        -13.2990   -4.6630   -5.8880 O.2   287  GLU287     -0.2718
     13  CB       -16.0630   -3.5600   -6.5380 C.3   287  GLU287      0.0402
     14  CG       -17.2320   -2.7140   -6.0750 C.3   287  GLU287      0.1161
     15  CD       -17.3630   -2.5030   -4.5930 C.2   287  GLU287      0.3649
     16  OE1      -17.8250   -1.4130   -4.1750 O.co2 287  GLU287     -0.2457
     17  OE2      -17.1120   -3.5230   -3.8650 O.co2 287  GLU287     -0.2457
     18  N        -13.0020   -3.8020   -7.9460 N.am  288  TYR288     -0.1962
     19  CA       -11.9530   -4.7340   -8.3260 C.3   288  TYR288      0.1771
     20  C        -10.5470   -4.1120   -8.2980 C.2   288  TYR288      0.2620
     21  O         -9.5940   -4.7930   -8.6450 O.2   288  TYR288     -0.2715
     22  CB       -12.2620   -5.3320   -9.7130 C.3   288  TYR288      0.0574
     23  CG       -13.3910   -6.3410   -9.6460 C.ar  288  TYR288     -0.0198
     24  CD1      -14.7140   -5.9470   -9.5240 C.ar  288  TYR288     -0.0009
     25  CD2      -13.1350   -7.6850   -9.6780 C.ar  288  TYR288     -0.0009
     26  CE1      -15.7260   -6.8740   -9.4250 C.ar  288  TYR288      0.0417
     27  CE2      -14.1600   -8.6210   -9.6090 C.ar  288  TYR288      0.0417
     28  CZ       -15.4590   -8.1990   -9.4790 C.ar  288  TYR288      0.1957
     29  OH       -16.4570   -9.1600   -9.4200 O.3   288  TYR288     -0.2866
     30  N        -10.4160   -2.8680   -7.8540 N.am  289  ASP289     -0.1957
     31  CA        -9.1100   -2.2130   -7.8080 C.3   289  ASP289      0.1840
     32  C         -8.9100   -1.5610   -6.4420 C.2   289  ASP289      0.2621
     33  O         -9.4880   -0.5060   -6.1550 O.2   289  ASP289     -0.2715
     34  CB        -9.0320   -1.1530   -8.9210 C.3   289  ASP289      0.1450
     35  CG        -7.6810   -0.4720   -9.0210 C.2   289  ASP289      0.3671
     36  OD1       -6.7730   -0.8060   -8.2390 O.co2 289  ASP289     -0.2456
     37  OD2       -7.5630    0.4010   -9.9090 O.co2 289  ASP289     -0.2456
     38  N         -8.0990   -2.1980   -5.5900 N.am  290  LEU290     -0.1977
     39  CA        -7.8480   -1.6330   -4.2790 C.3   290  LEU290      0.1596
     40  C         -7.2380   -0.2330   -4.3690 C.2   290  LEU290      0.2287
     41  O         -7.4170    0.5810   -3.4710 O.2   290  LEU290     -0.2864
     42  CB        -6.9460   -2.5040   -3.4200 C.3   290  LEU290      0.0297
     43  CG        -7.4430   -3.9010   -3.0440 C.3   290  LEU290      0.0022
     44  CD1       -6.3880   -4.6210   -2.2310 C.3   290  LEU290      0.0001
     45  CD2       -8.7460   -3.8580   -2.3250 C.3   290  LEU290      0.0001
     46  N         -9.3140    3.0800   -4.0360 N.3   293  ARG293     -0.1245
     47  CA        -9.9040    3.3890   -2.7470 C.3   293  ARG293      0.1563
     48  C         -9.3760    4.7270   -2.2020 C.2   293  ARG293      0.2260
     49  O         -8.2270    5.1380   -2.4720 O.2   293  ARG293     -0.2867
     50  CB        -9.6550    2.2240   -1.7990 C.3   293  ARG293      0.0307
     51  CG       -10.4680    0.9910   -2.1690 C.3   293  ARG293      0.0489
     52  CD       -10.1680   -0.2130   -1.3080 C.3   293  ARG293      0.2205
     53  NE       -11.0360   -1.3330   -1.6860 N.pl3 293  ARG293     -0.0865
     54  CZ       -11.3990   -2.3340   -0.8910 C.cat 293  ARG293      0.5346
     55  NH1      -11.0280   -2.3990    0.3800 N.pl3 293  ARG293      0.1354
     56  NH2      -12.1910   -3.2930   -1.3870 N.pl3 293  ARG293      0.1354
     57  N          0.7250   -4.4360   -1.5980 N.3   311  PHE311     -0.1241
     58  CA         0.0960   -5.5510   -0.9190 C.3   311  PHE311      0.1605
     59  C         -0.1230   -6.7320   -1.8730 C.2   311  PHE311      0.2264
     60  O         -0.8380   -6.6070   -2.8520 O.2   311  PHE311     -0.2867
     61  CB        -1.2260   -5.0780   -0.3210 C.3   311  PHE311      0.0534
     62  CG        -2.1000   -6.1960    0.1720 C.ar  311  PHE311     -0.0203
     63  CD1       -1.6310   -7.0890    1.1130 C.ar  311  PHE311     -0.0042
     64  CD2       -3.3870   -6.3940   -0.3380 C.ar  311  PHE311     -0.0042
     65  CE1       -2.4150   -8.1550    1.5420 C.ar  311  PHE311     -0.0003
     66  CE2       -4.1640   -7.4440    0.0860 C.ar  311  PHE311     -0.0003
     67  CZ        -3.6990   -8.3160    1.0270 C.ar  311  PHE311     -0.0000
     68  N         -1.6480  -10.3080   -1.8370 N.3   313  LYS313     -0.1245
     69  CA        -2.5440  -11.1280   -1.0370 C.3   313  LYS313      0.1561
     70  C         -2.0770  -12.5770   -0.9230 C.2   313  LYS313      0.2260
     71  O         -2.5730  -13.2990   -0.0550 O.2   313  LYS313     -0.2867
     72  CB        -3.9410  -11.0430   -1.6030 C.3   313  LYS313      0.0271
     73  CG        -4.1030  -11.7870   -2.9130 C.3   313  LYS313      0.0035
     74  CD        -5.5570  -11.7320   -3.3760 C.3   313  LYS313      0.0206
     75  CE        -5.8020  -12.4700   -4.6340 C.3   313  LYS313      0.1093
     76  NZ        -5.2300  -11.7580   -5.8120 N.3   313  LYS313     -0.1314
     77  N        -12.2530  -13.4540   -3.0650 N.3   453  VAL453     -0.1245
     78  CA       -11.7530  -12.7780   -1.8710 C.3   453  VAL453      0.1561
     79  C        -12.4160  -11.4010   -1.8160 C.2   453  VAL453      0.2260
     80  O        -12.6220  -10.7570   -2.8450 O.2   453  VAL453     -0.2867
     81  CB       -10.2160  -12.7140   -1.8350 C.3   453  VAL453      0.0252
     82  CG1       -9.6330  -11.9790   -3.0500 C.3   453  VAL453      0.0019
     83  CG2       -9.7200  -12.0790   -0.5270 C.3   453  VAL453      0.0019
     84  N        -12.0890   -7.6980    0.5070 N.3   455  PHE455     -0.1241
     85  CA       -11.2280   -6.8980    1.3840 C.3   455  PHE455      0.1605
     86  C        -12.0000   -5.7110    1.9120 C.2   455  PHE455      0.2264
     87  O        -12.5750   -4.9380    1.1300 O.2   455  PHE455     -0.2867
     88  CB       -10.0080   -6.3610    0.5980 C.3   455  PHE455      0.0534
     89  CG        -9.0940   -7.4490    0.1110 C.ar  455  PHE455     -0.0203
     90  CD1       -8.2420   -8.0840    0.9830 C.ar  455  PHE455     -0.0042
     91  CD2       -9.0690   -7.8140   -1.2080 C.ar  455  PHE455     -0.0042
     92  CE1       -7.3780   -9.0920    0.5650 C.ar  455  PHE455     -0.0003
     93  CE2       -8.2070   -8.8370   -1.6470 C.ar  455  PHE455     -0.0003
     94  CZ        -7.3680   -9.4590   -0.7670 C.ar  455  PHE455     -0.0000
@<TRIPOS>BOND
     1    37    35   ar
     2    22    23    1
     3    22    19    1
     4    25    23   ar
     5    25    27   ar
     6    23    24   ar
     7    27    28   ar
     8    24    26   ar
     9    28    26   ar
    10    28    29    1
    11    35    34    1
    12    35    36   ar
    13    34    31    1
    14    21    20    2
    15    19    20    1
    16    19    18    1
    17    20    30   am
    18     4     3    2
    19    18    11   am
    20    30    31    1
    21    31    32    1
    22     9    10    1
    23     3     2    1
    24     8     6   am
    25    11    10    1
    26    11    12    2
    27     2     1    1
    28     2     5    1
    29    13    10    1
    30    13    14    1
    31    32    33    2
    32    32    38   am
    33     6     7    2
    34     6     5    1
    35    14    15    1
    36    76    75    1
    37    38    39    1
    38    75    74    1
    39    15    16   ar
    40    15    17   ar
    41    40    39    1
    42    40    41    2
    43    39    42    1
    44    46    47    1
    45    42    43    1
    46    74    73    1
    47    77    78    1
    48    82    81    1
    49    43    45    1
    50    43    44    1
    51    73    72    1
    52    60    59    2
    53    80    79    2
    54    47    48    1
    55    47    50    1
    56    49    48    2
    57    51    50    1
    58    51    52    1
    59    59    58    1
    60    78    81    1
    61    78    79    1
    62    68    69    1
    63    81    83    1
    64    53    52    1
    65    53    54    2
    66    93    91   ar
    67    93    94   ar
    68    72    69    1
    69    57    58    1
    70    56    54    1
    71    91    89   ar
    72    69    70    1
    73    70    71    2
    74    58    61    1
    75    54    55    1
    76    94    92   ar
    77    64    66   ar
    78    64    62   ar
    79    61    62    1
    80    66    67   ar
    81    89    88    1
    82    89    90   ar
    83    62    63   ar
    84    84    85    1
    85    92    90   ar
    86    88    85    1
    87    67    65   ar
    88    63    65   ar
    89    87    86    2
    90    85    86    1
