@<TRIPOS>MOLECULE
tmp/4u9hA02.pdb
 84 83 0 0 0
SMALL
GASTEIGER

@<TRIPOS>ATOM
      1  N        -32.1230   -1.5740   41.6130 N.3     5  PRO5       -0.2102
      2  CA       -31.9750   -3.0220   41.4840 C.3     5  PRO5        0.1504
      3  C        -30.6870   -3.3930   40.7580 C.2     5  PRO5        0.2576
      4  O        -30.3460   -2.8030   39.7240 O.2     5  PRO5       -0.2718
      5  CB       -33.2100   -3.4220   40.6680 C.3     5  PRO5        0.0282
      6  CG       -33.5520   -2.1890   39.8900 C.3     5  PRO5        0.0208
      7  CD       -33.3230   -1.0890   40.9070 C.3     5  PRO5        0.0893
      8  N        -30.0000   -4.3870   41.2960 N.am    6  SER6       -0.1953
      9  CA       -28.7230   -4.8460   40.7450 C.3     6  SER6        0.1924
     10  C        -28.9110   -5.7540   39.5440 C.2     6  SER6        0.2314
     11  O        -29.6810   -6.7040   39.6070 O.2     6  SER6       -0.2863
     12  CB       -27.9860   -5.6030   41.8330 C.3     6  SER6        0.2116
     13  OG       -26.7800   -6.1960   41.3590 O.3     6  SER6       -0.2180
     14  N        -29.0330   -8.0170   48.8860 N.3    66  HIS66      -0.1226
     15  CA       -30.1240   -7.3270   48.2300 C.3    66  HIS66       0.1752
     16  C        -30.6320   -8.0720   46.9940 C.2    66  HIS66       0.2597
     17  O        -31.6780   -7.7140   46.4660 O.2    66  HIS66      -0.2718
     18  CB       -29.7030   -5.9220   47.8480 C.3    66  HIS66       0.0759
     19  CG       -29.4190   -5.0680   49.0370 C.ar   66  HIS66       0.0818
     20  ND1      -28.1520   -4.7380   49.4680 N.ar   66  HIS66      -0.2268
     21  CD2      -30.2710   -4.5020   49.9120 C.ar   66  HIS66       0.1154
     22  CE1      -28.2420   -3.9780   50.5460 C.ar   66  HIS66       0.1986
     23  NE2      -29.5170   -3.8190   50.8330 N.ar   66  HIS66      -0.2212
     24  N        -29.9080   -9.0880   46.5330 N.am   67  GLY67      -0.1942
     25  CA       -30.3100   -9.8160   45.3460 C.3    67  GLY67       0.2014
     26  C        -29.9280   -9.1450   44.0480 C.2    67  GLY67       0.2639
     27  O        -29.6060   -7.9630   44.0110 O.2    67  GLY67      -0.2714
     28  N        -29.9830   -9.9140   42.9670 N.am   68  PHE68      -0.1959
     29  CA       -29.6810   -9.3920   41.6400 C.3    68  PHE68       0.1771
     30  C        -30.5260  -10.0700   40.5630 C.2    68  PHE68       0.2619
     31  O        -31.0280  -11.1780   40.7430 O.2    68  PHE68      -0.2715
     32  CB       -28.1750   -9.5150   41.3030 C.3    68  PHE68       0.0574
     33  CG       -27.7200  -10.9340   41.0830 C.ar   68  PHE68      -0.0200
     34  CD1      -27.4430  -11.7710   42.1580 C.ar   68  PHE68      -0.0042
     35  CD2      -27.5910  -11.4600   39.8070 C.ar   68  PHE68      -0.0042
     36  CE1      -27.0690  -13.0850   41.9640 C.ar   68  PHE68      -0.0003
     37  CE2      -27.1980  -12.7820   39.6280 C.ar   68  PHE68      -0.0003
     38  CZ       -26.9320  -13.5920   40.6970 C.ar   68  PHE68      -0.0000
     39  N        -30.6270   -9.3790   39.4420 N.am   69  ILE69      -0.1977
     40  CA       -31.1840   -9.9000   38.1820 C.3    69  ILE69       0.1596
     41  C        -29.9990  -10.2210   37.2730 C.2    69  ILE69       0.2287
     42  O        -29.0660   -9.4100   37.1710 O.2    69  ILE69      -0.2864
     43  CB       -32.0660   -8.7840   37.4670 C.3    69  ILE69       0.0276
     44  CG1      -33.2650   -8.4170   38.3150 C.3    69  ILE69       0.0022
     45  CG2      -32.4920   -9.2410   36.0530 C.3    69  ILE69       0.0022
     46  CD1      -33.8230   -7.0620   37.9170 C.3    69  ILE69       0.0001
     47  N        -32.3900  -13.5740   41.3410 N.3   104  GLN104     -0.1245
     48  CA       -33.8220  -13.4640   41.5720 C.3   104  GLN104      0.1566
     49  C        -34.6390  -13.7130   40.3010 C.2   104  GLN104      0.2260
     50  O        -35.7710  -14.1930   40.3670 O.2   104  GLN104     -0.2867
     51  CB       -34.1610  -12.1030   42.1620 C.3   104  GLN104      0.0367
     52  CG       -33.4710  -11.8260   43.4960 C.3   104  GLN104      0.0905
     53  CD       -33.7660  -12.8680   44.5560 C.2   104  GLN104      0.2608
     54  OE1      -34.9220  -13.1740   44.8100 O.2   104  GLN104     -0.2717
     55  NE2      -32.7300  -13.4470   45.1320 N.am  104  GLN104     -0.0878
     56  N        -41.0740   -6.5220   35.1220 N.3   162  TYR162     -0.1227
     57  CA       -40.6410   -7.3210   36.2630 C.3   162  TYR162      0.1736
     58  C        -40.4520   -6.4610   37.5120 C.2   162  TYR162      0.2595
     59  O        -40.8680   -6.8480   38.6110 O.2   162  TYR162     -0.2718
     60  CB       -39.3450   -8.0820   35.8990 C.3   162  TYR162      0.0548
     61  CG       -38.7440   -8.7790   37.0820 C.ar  162  TYR162     -0.0200
     62  CD1      -39.3290   -9.9050   37.6330 C.ar  162  TYR162     -0.0009
     63  CD2      -37.6220   -8.2600   37.7110 C.ar  162  TYR162     -0.0009
     64  CE1      -38.7880  -10.5180   38.7780 C.ar  162  TYR162      0.0417
     65  CE2      -37.0830   -8.8550   38.8290 C.ar  162  TYR162      0.0417
     66  CZ       -37.6820   -9.9720   39.3490 C.ar  162  TYR162      0.1957
     67  OH       -37.1280  -10.5370   40.4720 O.3   162  TYR162     -0.2866
     68  N        -39.8350   -5.2900   37.3730 N.am  163  LEU163     -0.1980
     69  CA       -39.6210   -4.4450   38.5320 C.3   163  LEU163      0.1596
     70  C        -40.9410   -3.9580   39.1280 C.2   163  LEU163      0.2287
     71  O        -41.0870   -3.8300   40.3340 O.2   163  LEU163     -0.2864
     72  CB       -38.7200   -3.2740   38.1790 C.3   163  LEU163      0.0297
     73  CG       -37.2800   -3.6470   37.8070 C.3   163  LEU163      0.0022
     74  CD1      -36.5390   -2.3900   37.3670 C.3   163  LEU163      0.0001
     75  CD2      -36.5660   -4.3420   38.9590 C.3   163  LEU163      0.0001
     76  N        -43.0910   -7.6780   39.9910 N.3   166  LYS166     -0.1245
     77  CA       -42.3410   -8.7350   40.6950 C.3   166  LYS166      0.1561
     78  C        -42.6280  -10.1400   40.1540 C.2   166  LYS166      0.2260
     79  O        -42.6190  -11.1260   40.8850 O.2   166  LYS166     -0.2867
     80  CB       -42.5610   -8.6510   42.2120 C.3   166  LYS166      0.0271
     81  CG       -41.7510   -7.5500   42.8530 C.3   166  LYS166      0.0035
     82  CD       -42.4110   -6.2210   42.6940 C.3   166  LYS166      0.0206
     83  CE       -41.5480   -5.0990   43.2270 C.3   166  LYS166      0.1093
     84  NZ       -42.3450   -3.8390   43.2550 N.3   166  LYS166     -0.1314
@<TRIPOS>BOND
     1    56    57    1
     2    60    57    1
     3    60    61    1
     4    45    43    1
     5    57    58    1
     6    61    62   ar
     7    61    63   ar
     8    42    41    2
     9    41    40    1
    10    74    73    1
    11    68    58   am
    12    68    69    1
    13    43    40    1
    14    43    44    1
    15    58    59    2
    16    62    64   ar
    17    63    65   ar
    18    73    72    1
    19    73    75    1
    20    46    44    1
    21    72    69    1
    22    40    39    1
    23    69    70    1
    24    64    66   ar
    25    65    66   ar
    26    70    71    2
    27    66    67    1
    28    39    30   am
    29    10    11    2
    30    10     9    1
    31    37    35   ar
    32    37    38   ar
    33     4     3    2
    34    35    33   ar
    35     6     5    1
    36     6     7    1
    37    76    77    1
    38    78    77    1
    39    78    79    2
    40    49    50    2
    41    49    48    1
    42    30    31    2
    43    30    29    1
    44     5     2    1
    45    77    80    1
    46    38    36   ar
    47     9     8    1
    48     9    12    1
    49     3     8   am
    50     3     2    1
    51     7     1    1
    52    33    32    1
    53    33    34   ar
    54    32    29    1
    55    47    48    1
    56    13    12    1
    57     2     1    1
    58    48    51    1
    59    29    28    1
    60    36    34   ar
    61    51    52    1
    62    80    81    1
    63    82    81    1
    64    82    83    1
    65    28    26   am
    66    83    84    1
    67    52    53    1
    68    27    26    2
    69    26    25    1
    70    53    54    2
    71    53    55   am
    72    25    24    1
    73    17    16    2
    74    24    16   am
    75    16    15    1
    76    18    15    1
    77    18    19    1
    78    15    14    1
    79    19    20   ar
    80    19    21   ar
    81    20    22   ar
    82    21    23   ar
    83    22    23   ar
