@<TRIPOS>MOLECULE
tmp/4u9wB00.pdb
 232 226 0 0 0
SMALL
GASTEIGER

@<TRIPOS>ATOM
      1  N         -8.7310  -39.2370  130.2590 N.3    68  MET68      -0.1245
      2  CA        -9.8270  -38.2730  130.2790 C.3    68  MET68       0.1570
      3  C        -11.1230  -38.7260  130.9480 C.2    68  MET68       0.2261
      4  O        -11.9810  -37.8850  131.2200 O.2    68  MET68      -0.2867
      5  CB       -10.1520  -37.8390  128.8410 C.3    68  MET68       0.0387
      6  CG        -8.9590  -37.2630  128.0520 C.3    68  MET68       0.0595
      7  SD        -8.1150  -35.9210  128.9230 S.3    68  MET68      -0.1393
      8  CE        -9.4590  -34.7140  129.0530 C.3    68  MET68       0.0692
      9  N        -14.3770  -36.5560  132.1600 N.3    72  TYR72      -0.1241
     10  CA       -15.6240  -36.7020  131.4130 C.3    72  TYR72       0.1605
     11  C        -16.7800  -37.0360  132.3740 C.2    72  TYR72       0.2264
     12  O        -17.9050  -36.5300  132.2340 O.2    72  TYR72      -0.2867
     13  CB       -15.4930  -37.8010  130.3480 C.3    72  TYR72       0.0534
     14  CG       -15.0080  -37.3290  128.9930 C.ar   72  TYR72      -0.0201
     15  CD1      -15.9060  -37.1150  127.9600 C.ar   72  TYR72      -0.0009
     16  CD2      -13.6560  -37.0790  128.7490 C.ar   72  TYR72      -0.0009
     17  CE1      -15.4800  -36.6740  126.7080 C.ar   72  TYR72       0.0417
     18  CE2      -13.2160  -36.6410  127.4990 C.ar   72  TYR72       0.0417
     19  CZ       -14.1380  -36.4380  126.4790 C.ar   72  TYR72       0.1957
     20  OH       -13.7410  -36.0080  125.2240 O.3    72  TYR72      -0.2866
     21  N        -21.2790  -34.2650  129.9740 N.3    77  TRP77      -0.1241
     22  CA       -21.2590  -35.2690  128.9170 C.3    77  TRP77       0.1605
     23  C        -21.3140  -36.6700  129.5150 C.2    77  TRP77       0.2264
     24  O        -22.0590  -37.5220  129.0380 O.2    77  TRP77      -0.2867
     25  CB       -20.0000  -35.1290  128.0560 C.3    77  TRP77       0.0550
     26  CG       -19.8380  -33.7960  127.3990 C.ar   77  TRP77       0.0003
     27  CD1      -20.7830  -32.8130  127.2720 C.ar   77  TRP77       0.0946
     28  CD2      -18.6350  -33.2760  126.8060 C.ar   77  TRP77       0.0152
     29  NE1      -20.2430  -31.7190  126.6230 N.ar   77  TRP77      -0.2442
     30  CE2      -18.9290  -31.9800  126.3260 C.ar   77  TRP77       0.0810
     31  CE3      -17.3420  -33.7850  126.6290 C.ar   77  TRP77       0.0012
     32  CZ2      -17.9720  -31.1860  125.6750 C.ar   77  TRP77       0.0191
     33  CZ3      -16.3950  -32.9970  125.9790 C.ar   77  TRP77       0.0001
     34  CH2      -16.7160  -31.7150  125.5130 C.ar   77  TRP77       0.0015
     35  N        -17.4640  -42.4530  122.2810 N.3    84  LYS84      -0.1245
     36  CA       -16.1320  -41.8940  122.0980 C.3    84  LYS84       0.1561
     37  C        -15.3590  -42.7090  121.0480 C.2    84  LYS84       0.2260
     38  O        -14.6500  -42.1330  120.2200 O.2    84  LYS84      -0.2867
     39  CB       -15.3750  -41.8440  123.4260 C.3    84  LYS84       0.0271
     40  CG       -13.9110  -41.4100  123.2900 C.3    84  LYS84       0.0035
     41  CD       -13.7270  -40.0290  122.6090 C.3    84  LYS84       0.0206
     42  CE       -14.0550  -38.8750  123.5350 C.3    84  LYS84       0.1093
     43  NZ       -13.6700  -37.5560  122.9410 N.3    84  LYS84      -0.1314
     44  N        -16.6750  -41.6640  117.7780 N.3    87  GLU87      -0.1245
     45  CA       -16.0660  -40.4020  117.4090 C.3    87  GLU87       0.1567
     46  C        -14.6670  -40.5630  116.8100 C.2    87  GLU87       0.2260
     47  O        -14.3800  -40.0290  115.7350 O.2    87  GLU87      -0.2867
     48  CB       -15.9990  -39.5080  118.6420 C.3    87  GLU87       0.0388
     49  CG       -15.6050  -38.0710  118.3780 C.3    87  GLU87       0.1160
     50  CD       -15.6320  -37.2470  119.6530 C.2    87  GLU87       0.3649
     51  OE1      -16.6570  -36.5560  119.9060 O.co2  87  GLU87      -0.2457
     52  OE2      -14.6220  -37.3100  120.4050 O.co2  87  GLU87      -0.2457
     53  N         -9.8920  -32.5790  112.8340 N.3   112  ARG112     -0.1245
     54  CA       -10.6550  -32.5600  111.5910 C.3   112  ARG112      0.1563
     55  C        -10.5970  -31.1980  110.9020 C.2   112  ARG112      0.2260
     56  O        -10.3350  -30.1760  111.5570 O.2   112  ARG112     -0.2867
     57  CB       -12.1170  -32.9510  111.8650 C.3   112  ARG112      0.0307
     58  CG       -12.2760  -34.3530  112.4190 C.3   112  ARG112      0.0489
     59  CD       -13.7170  -34.7320  112.5010 C.3   112  ARG112      0.2205
     60  NE       -13.9090  -35.9260  113.3220 N.pl3 112  ARG112     -0.0865
     61  CZ       -15.1040  -36.4390  113.5980 C.cat 112  ARG112      0.5346
     62  NH1      -16.1950  -35.8430  113.1230 N.pl3 112  ARG112      0.1354
     63  NH2      -15.2090  -37.5280  114.3580 N.pl3 112  ARG112      0.1354
     64  N        -13.2960  -28.9620  109.2800 N.3   114  ASP114     -0.1225
     65  CA       -14.7360  -28.9970  109.4090 C.3   114  ASP114      0.1805
     66  C        -15.3250  -27.5880  109.4360 C.2   114  ASP114      0.2598
     67  O        -14.5980  -26.5880  109.3640 O.2   114  ASP114     -0.2718
     68  CB       -15.1140  -29.7920  110.6720 C.3   114  ASP114      0.1424
     69  CG       -16.5350  -30.3470  110.6150 C.2   114  ASP114      0.3668
     70  OD1      -17.1750  -30.2380  109.5410 O.co2 114  ASP114     -0.2456
     71  OD2      -17.0050  -30.9160  111.6260 O.co2 114  ASP114     -0.2456
     72  N        -16.6500  -27.5180  109.5020 N.am  115  VAL115     -0.1966
     73  CA       -17.3430  -26.2520  109.6520 C.3   115  VAL115      0.1727
     74  C        -17.7910  -26.1210  111.1090 C.2   115  VAL115      0.2616
     75  O        -18.2680  -27.0960  111.7130 O.2   115  VAL115     -0.2715
     76  CB       -18.5580  -26.1540  108.6960 C.3   115  VAL115      0.0290
     77  CG1      -19.1040  -24.7480  108.6940 C.3   115  VAL115      0.0023
     78  CG2      -18.1420  -26.4980  107.2950 C.3   115  VAL115      0.0023
     79  N        -17.5600  -24.9490  111.6940 N.am  116  GLU116     -0.1963
     80  CA       -18.0640  -24.6490  113.0290 C.3   116  GLU116      0.1733
     81  C        -18.5640  -23.2100  113.0970 C.2   116  GLU116      0.2616
     82  O        -17.7860  -22.2680  112.8920 O.2   116  GLU116     -0.2715
     83  CB       -16.9900  -24.8900  114.1010 C.3   116  GLU116      0.0429
     84  CG       -17.4410  -24.5330  115.5350 C.3   116  GLU116      0.1163
     85  CD       -18.5600  -25.4480  116.0870 C.2   116  GLU116      0.3649
     86  OE1      -19.4390  -24.9310  116.8390 O.co2 116  GLU116     -0.2457
     87  OE2      -18.5590  -26.6760  115.7780 O.co2 116  GLU116     -0.2457
     88  N        -19.8560  -23.0600  113.4190 N.am  117  CYS117     -0.1968
     89  CA       -20.5320  -21.7580  113.4840 C.3   117  CYS117      0.1712
     90  C        -20.3100  -20.9360  112.2170 C.2   117  CYS117      0.2296
     91  O        -19.9590  -19.7450  112.2770 O.2   117  CYS117     -0.2864
     92  CB       -20.0820  -20.9740  114.7170 C.3   117  CYS117      0.0983
     93  SG       -20.5810  -21.7700  116.2720 S.3   117  CYS117     -0.0798
     94  N        -12.7660  -24.3740  109.9040 N.3   121  VAL121     -0.1245
     95  CA       -11.8310  -24.4810  111.0150 C.3   121  VAL121      0.1561
     96  C        -11.0940  -25.8170  110.9800 C.2   121  VAL121      0.2260
     97  O        -11.5760  -26.8040  110.3930 O.2   121  VAL121     -0.2867
     98  CB       -12.5280  -24.3620  112.3980 C.3   121  VAL121      0.0252
     99  CG1      -13.3730  -23.1190  112.4740 C.3   121  VAL121      0.0019
    100  CG2      -13.3690  -25.6160  112.6820 C.3   121  VAL121      0.0019
    101  N        -10.5240  -28.4130  113.6140 N.3   123  TYR123     -0.1227
    102  CA       -10.9680  -28.7210  114.9690 C.3   123  TYR123      0.1736
    103  C        -10.0780  -29.7740  115.6370 C.2   123  TYR123      0.2596
    104  O         -9.9300  -30.8990  115.1410 O.2   123  TYR123     -0.2718
    105  CB       -12.4400  -29.1770  114.9830 C.3   123  TYR123      0.0548
    106  CG       -13.0880  -28.8800  116.3160 C.ar  123  TYR123     -0.0200
    107  CD1      -13.8590  -27.7430  116.5040 C.ar  123  TYR123     -0.0009
    108  CD2      -12.8600  -29.7050  117.4180 C.ar  123  TYR123     -0.0009
    109  CE1      -14.4140  -27.4510  117.7470 C.ar  123  TYR123      0.0417
    110  CE2      -13.4020  -29.4120  118.6630 C.ar  123  TYR123      0.0417
    111  CZ       -14.1770  -28.2880  118.8190 C.ar  123  TYR123      0.1957
    112  OH       -14.7190  -28.0200  120.0530 O.3   123  TYR123     -0.2866
    113  N         -9.4660  -29.3940  116.7580 N.am  124  CYS124     -0.1956
    114  CA        -8.7140  -30.3600  117.5620 C.3   124  CYS124      0.1843
    115  C         -9.6210  -31.0700  118.5840 C.2   124  CYS124      0.2625
    116  O         -9.9740  -30.4880  119.6210 O.2   124  CYS124     -0.2714
    117  CB        -7.5430  -29.6610  118.2660 C.3   124  CYS124      0.0997
    118  SG        -6.4280  -30.7950  119.1600 S.3   124  CYS124     -0.0797
    119  N         -9.9650  -32.3270  118.2800 N.am  125  TYR125     -0.1960
    120  CA       -10.8190  -33.1980  119.1100 C.3   125  TYR125      0.1771
    121  C        -10.0830  -33.7410  120.3010 C.2   125  TYR125      0.2619
    122  O        -10.6510  -33.9530  121.3670 O.2   125  TYR125     -0.2715
    123  CB       -11.3370  -34.3780  118.2840 C.3   125  TYR125      0.0574
    124  CG       -12.5740  -34.0630  117.4990 C.ar  125  TYR125     -0.0198
    125  CD1      -13.7990  -34.6520  117.8300 C.ar  125  TYR125     -0.0009
    126  CD2      -12.5330  -33.1820  116.4230 C.ar  125  TYR125     -0.0009
    127  CE1      -14.9580  -34.3610  117.1040 C.ar  125  TYR125      0.0417
    128  CE2      -13.6780  -32.8740  115.7010 C.ar  125  TYR125      0.0417
    129  CZ       -14.8850  -33.4660  116.0370 C.ar  125  TYR125      0.1957
    130  OH       -16.0100  -33.1550  115.3020 O.3   125  TYR125     -0.2866
    131  N         -8.8010  -33.9830  120.0910 N.am  126  GLU126     -0.1963
    132  CA        -7.9740  -34.6690  121.0600 C.3   126  GLU126      0.1733
    133  C         -6.5040  -34.2630  120.8770 C.2   126  GLU126      0.2616
    134  O         -6.0290  -34.1180  119.7290 O.2   126  GLU126     -0.2715
    135  CB        -8.1410  -36.1900  120.8760 C.3   126  GLU126      0.0429
    136  CG        -8.4520  -36.9940  122.1250 C.3   126  GLU126      0.1163
    137  CD        -9.8220  -36.7050  122.6830 C.2   126  GLU126      0.3649
    138  OE1      -10.8410  -36.9470  121.9940 O.co2 126  GLU126     -0.2457
    139  OE2       -9.8700  -36.2090  123.8240 O.co2 126  GLU126     -0.2457
    140  N         -5.7990  -34.0490  121.9920 N.am  127  VAL127     -0.1963
    141  CA        -4.3320  -34.1500  121.9820 C.3   127  VAL127      0.1727
    142  C         -3.9100  -34.8700  123.2770 C.2   127  VAL127      0.2616
    143  O         -4.2170  -34.4130  124.3870 O.2   127  VAL127     -0.2715
    144  CB        -3.6110  -32.7810  121.8170 C.3   127  VAL127      0.0290
    145  CG1       -4.0860  -31.7430  122.8470 C.3   127  VAL127      0.0023
    146  CG2       -2.0950  -32.9760  121.8660 C.3   127  VAL127      0.0023
    147  N         -3.2680  -36.0330  123.1240 N.am  128  GLN128     -0.1977
    148  CA        -3.0140  -36.9510  124.2420 C.3   128  GLN128      0.1601
    149  C         -1.5800  -37.4850  124.2140 C.2   128  GLN128      0.2287
    150  O         -1.1130  -37.9840  123.1850 O.2   128  GLN128     -0.2864
    151  CB        -3.9800  -38.1390  124.2150 C.3   128  GLN128      0.0394
    152  CG        -5.4620  -37.7770  124.2230 C.3   128  GLN128      0.0908
    153  CD        -5.9150  -37.2290  125.5670 C.2   128  GLN128      0.2608
    154  OE1       -5.4500  -37.6780  126.6180 O.2   128  GLN128     -0.2717
    155  NE2       -6.8350  -36.2650  125.5400 N.am  128  GLN128     -0.0878
    156  N        -10.8510  -25.9360  119.8390 N.3   160  LEU160     -0.1231
    157  CA       -10.9740  -27.1430  120.6350 C.3   160  LEU160      0.1693
    158  C        -11.8470  -26.8840  121.8560 C.2   160  LEU160      0.2593
    159  O        -12.1780  -25.7310  122.1750 O.2   160  LEU160     -0.2718
    160  CB        -9.5850  -27.6400  121.0520 C.3   160  LEU160      0.0284
    161  CG        -8.8220  -26.6090  121.8840 C.3   160  LEU160      0.0019
    162  CD1       -8.6650  -27.1010  123.3130 C.3   160  LEU160      0.0001
    163  CD2       -7.4740  -26.2990  121.2830 C.3   160  LEU160      0.0001
    164  N        -12.1990  -27.9680  122.5410 N.am  161  THR161     -0.1939
    165  CA       -12.9440  -27.8830  123.7890 C.3   161  THR161      0.2028
    166  C        -12.0530  -28.3520  124.9520 C.2   161  THR161      0.2642
    167  O        -11.3980  -29.4130  124.8780 O.2   161  THR161     -0.2714
    168  CB       -14.2250  -28.7650  123.7540 C.3   161  THR161      0.1808
    169  OG1      -15.0060  -28.4700  122.5830 O.3   161  THR161     -0.2208
    170  CG2      -15.0570  -28.5770  125.0410 C.3   161  THR161      0.0379
    171  N        -12.0460  -27.5800  126.0330 N.am  162  VAL162     -0.1963
    172  CA       -11.2810  -27.9860  127.2020 C.3   162  VAL162      0.1727
    173  C        -12.1540  -27.8520  128.4510 C.2   162  VAL162      0.2616
    174  O        -12.9720  -26.9260  128.5580 O.2   162  VAL162     -0.2715
    175  CB        -9.9570  -27.1710  127.3370 C.3   162  VAL162      0.0290
    176  CG1      -10.2310  -25.6850  127.3090 C.3   162  VAL162      0.0023
    177  CG2       -9.1820  -27.5830  128.5930 C.3   162  VAL162      0.0023
    178  N        -12.0140  -28.8240  129.3560 N.am  163  PHE163     -0.1974
    179  CA       -12.7370  -28.8310  130.6210 C.3   163  PHE163      0.1639
    180  C        -12.2190  -27.7300  131.5260 C.2   163  PHE163      0.2290
    181  O        -11.0050  -27.5380  131.6430 O.2   163  PHE163     -0.2864
    182  CB       -12.6000  -30.1920  131.3160 C.3   163  PHE163      0.0560
    183  CG       -13.3040  -31.3260  130.5910 C.ar  163  PHE163     -0.0200
    184  CD1      -14.5870  -31.1520  130.0610 C.ar  163  PHE163     -0.0042
    185  CD2      -12.6800  -32.5710  130.4480 C.ar  163  PHE163     -0.0042
    186  CE1      -15.2380  -32.1990  129.3860 C.ar  163  PHE163     -0.0003
    187  CE2      -13.3210  -33.6360  129.7710 C.ar  163  PHE163     -0.0003
    188  CZ       -14.6000  -33.4480  129.2390 C.ar  163  PHE163     -0.0000
    189  N         -3.1240  -24.3550  126.7920 N.3   173  PHE173     -0.1241
    190  CA        -3.6670  -23.6620  125.6220 C.3   173  PHE173      0.1605
    191  C         -3.7840  -22.1560  125.8150 C.2   173  PHE173      0.2264
    192  O         -3.4140  -21.3940  124.9170 O.2   173  PHE173     -0.2867
    193  CB        -5.0410  -24.2050  125.2550 C.3   173  PHE173      0.0534
    194  CG        -5.0170  -25.5860  124.6870 C.ar  173  PHE173     -0.0203
    195  CD1       -4.4550  -25.8310  123.4370 C.ar  173  PHE173     -0.0042
    196  CD2       -5.5900  -26.6430  125.3880 C.ar  173  PHE173     -0.0042
    197  CE1       -4.4530  -27.1170  122.9020 C.ar  173  PHE173     -0.0003
    198  CE2       -5.5860  -27.9310  124.8690 C.ar  173  PHE173     -0.0003
    199  CZ        -5.0170  -28.1730  123.6240 C.ar  173  PHE173     -0.0000
    200  N        -17.8270  -18.5270  120.4590 N.3   184  SER184     -0.1217
    201  CA       -18.8300  -19.5840  120.5980 C.3   184  SER184      0.1889
    202  C        -18.7570  -20.2880  121.9520 C.2   184  SER184      0.2288
    203  O        -19.5020  -21.2430  122.1930 O.2   184  SER184     -0.2866
    204  CB       -18.6840  -20.6270  119.4980 C.3   184  SER184      0.2089
    205  OG       -17.4600  -21.3220  119.6360 O.3   184  SER184     -0.2183
    206  N        -19.6120  -20.9000  125.7410 N.3   186  PRO186     -0.2116
    207  CA       -20.7990  -20.6430  126.5850 C.3   186  PRO186      0.1372
    208  C        -20.6700  -19.4310  127.5170 C.2   186  PRO186      0.2244
    209  O        -21.7050  -18.8630  127.8570 O.2   186  PRO186     -0.2868
    210  CB       -20.9350  -21.9320  127.4080 C.3   186  PRO186      0.0268
    211  CG       -20.3080  -23.0080  126.5390 C.3   186  PRO186      0.0207
    212  CD       -19.1830  -22.3140  125.7970 C.3   186  PRO186      0.0892
    213  N        -17.1490  -26.5970  130.4240 N.3   191  TYR191     -0.1241
    214  CA       -16.1050  -26.5030  129.4070 C.3   191  TYR191      0.1605
    215  C        -15.9980  -25.1260  128.7570 C.2   191  TYR191      0.2264
    216  O        -16.9220  -24.3190  128.8290 O.2   191  TYR191     -0.2867
    217  CB       -16.3280  -27.5570  128.3040 C.3   191  TYR191      0.0534
    218  CG       -17.5890  -27.3460  127.4790 C.ar  191  TYR191     -0.0201
    219  CD1      -17.5860  -26.5070  126.3610 C.ar  191  TYR191     -0.0009
    220  CD2      -18.7760  -28.0100  127.7990 C.ar  191  TYR191     -0.0009
    221  CE1      -18.7340  -26.3200  125.6040 C.ar  191  TYR191      0.0417
    222  CE2      -19.9250  -27.8330  127.0430 C.ar  191  TYR191      0.0417
    223  CZ       -19.9000  -26.9900  125.9540 C.ar  191  TYR191      0.1957
    224  OH       -21.0490  -26.8240  125.2160 O.3   191  TYR191     -0.2866
    225  N        -14.6990  -23.2870  124.8840 N.3   193  ILE193     -0.1245
    226  CA       -14.2280  -23.4370  123.5260 C.3   193  ILE193      0.1561
    227  C        -13.0870  -22.4390  123.3380 C.2   193  ILE193      0.2260
    228  O        -13.2570  -21.2270  123.6090 O.2   193  ILE193     -0.2867
    229  CB       -15.3170  -23.1760  122.4830 C.3   193  ILE193      0.0252
    230  CG1      -16.5960  -23.9530  122.8240 C.3   193  ILE193      0.0019
    231  CG2      -14.7870  -23.5530  121.1120 C.3   193  ILE193      0.0019
    232  CD1      -16.4310  -25.4860  122.7570 C.3   193  ILE193      0.0001
@<TRIPOS>BOND
     1    78    76    1
     2    77    76    1
     3    76    73    1
     4    64    65    1
     5    67    66    2
     6    65    66    1
     7    65    68    1
     8    66    72   am
     9    72    73    1
    10    70    69   ar
    11    73    74    1
    12    94    95    1
    13    97    96    2
    14    69    68    1
    15    69    71   ar
    16    55    56    2
    17    55    54    1
    18    96    95    1
    19    95    98    1
    20    74    79   am
    21    74    75    2
    22    54    57    1
    23    54    53    1
    24    79    80    1
    25    57    58    1
    26    90    91    2
    27    90    89    1
    28    98    99    1
    29    98   100    1
    30    58    59    1
    31    59    60    1
    32    82    81    2
    33    80    81    1
    34    80    83    1
    35    81    88   am
    36    62    61    1
    37    60    61    2
    38    88    89    1
    39    89    92    1
    40    61    63    1
    41   101   102    1
    42    83    84    1
    43    92    93    1
    44   102   105    1
    45   102   103    1
    46   105   106    1
    47   104   103    2
    48   130   129    1
    49    84    85    1
    50   103   113   am
    51   128   129   ar
    52   128   126   ar
    53    47    46    2
    54    87    85   ar
    55   129   127   ar
    56    85    86   ar
    57   106   107   ar
    58   106   108   ar
    59   126   124   ar
    60   107   109   ar
    61   113   114    1
    62    46    45    1
    63   127   125   ar
    64    45    44    1
    65    45    48    1
    66   108   110   ar
    67   124   125   ar
    68   124   123    1
    69   114   117    1
    70   114   115    1
    71   109   111   ar
    72   117   118    1
    73   119   115   am
    74   119   120    1
    75   123   120    1
    76    49    48    1
    77    49    50    1
    78   115   116    2
    79   110   111   ar
    80   111   112    1
    81   120   121    1
    82   204   205    1
    83   204   201    1
    84    50    51   ar
    85    50    52   ar
    86   134   133    2
    87   156   157    1
    88   131   121   am
    89   131   132    1
    90    38    37    2
    91   121   122    2
    92   200   201    1
    93   201   202    1
    94   157   160    1
    95   157   158    1
    96   135   132    1
    97   135   136    1
    98   133   132    1
    99   133   140   am
   100    37    36    1
   101   160   161    1
   102   231   229    1
   103   163   161    1
   104   144   146    1
   105   144   141    1
   106   144   145    1
   107   158   159    2
   108   158   164   am
   109   161   162    1
   110   202   203    2
   111   141   140    1
   112   141   142    1
   113   138   137   ar
   114    36    35    1
   115    36    39    1
   116   136   137    1
   117   229   230    1
   118   229   226    1
   119   164   165    1
   120   169   168    1
   121    41    40    1
   122    41    42    1
   123   137   139   ar
   124   232   230    1
   125   197   195   ar
   126   197   199   ar
   127    43    42    1
   128   147   142   am
   129   147   148    1
   130   150   149    2
   131   142   143    2
   132    40    39    1
   133   227   226    1
   134   227   228    2
   135   195   194   ar
   136   226   225    1
   137   199   198   ar
   138   168   165    1
   139   168   170    1
   140   165   166    1
   141   149   148    1
   142   151   152    1
   143   151   148    1
   144   152   153    1
   145   194   193    1
   146   194   196   ar
   147   198   196   ar
   148   167   166    2
   149   192   191    2
   150   166   171   am
   151   224   223    1
   152    20    19    1
   153   193   190    1
   154    34    32   ar
   155    34    33   ar
   156   155   153   am
   157   153   154    2
   158   221   223   ar
   159   221   219   ar
   160   190   191    1
   161   190   189    1
   162    32    30   ar
   163   206   212    1
   164   206   207    1
   165   212   211    1
   166   223   222   ar
   167    33    31   ar
   168   171   172    1
   169    30    29   ar
   170    30    28   ar
   171   219   218   ar
   172    19    17   ar
   173    19    18   ar
   174   211   210    1
   175   207   210    1
   176   207   208    1
   177    29    27   ar
   178    31    28   ar
   179    17    15   ar
   180    28    26   ar
   181   222   220   ar
   182   172   175    1
   183   172   173    1
   184    27    26   ar
   185   176   175    1
   186   175   177    1
   187    26    25    1
   188   218   220   ar
   189   218   217    1
   190    18    16   ar
   191   208   209    2
   192    15    14   ar
   193     6     5    1
   194     6     7    1
   195    25    22    1
   196   217   214    1
   197   173   174    2
   198   173   178   am
   199    16    14   ar
   200   215   216    2
   201   215   214    1
   202     5     2    1
   203    22    23    1
   204    22    21    1
   205     7     8    1
   206    14    13    1
   207    24    23    2
   208   188   186   ar
   209   188   187   ar
   210   178   179    1
   211   186   184   ar
   212   214   213    1
   213   187   185   ar
   214   184   183   ar
   215     1     2    1
   216     2     3    1
   217    13    10    1
   218   185   183   ar
   219   183   182    1
   220   179   182    1
   221   179   180    1
   222     3     4    2
   223    10     9    1
   224    10    11    1
   225   180   181    2
   226    12    11    2
