@<TRIPOS>MOLECULE
tmp/4u9wB01.pdb
 199 193 0 0 0
SMALL
GASTEIGER

@<TRIPOS>ATOM
      1  N         -6.5850  -41.1200  130.2630 N.3    67  ASN67      -0.1225
      2  CA        -6.3640  -39.7230  130.6180 C.3    67  ASN67       0.1785
      3  C         -7.6360  -38.9450  130.9470 C.2    67  ASN67       0.2597
      4  O         -7.6250  -38.0640  131.8050 O.2    67  ASN67      -0.2718
      5  CB        -5.6490  -38.9720  129.4800 C.3    67  ASN67       0.1169
      6  CG        -4.2350  -39.5000  129.1820 C.2    67  ASN67       0.2627
      7  OD1       -3.6460  -40.2650  129.9550 O.2    67  ASN67      -0.2716
      8  ND2       -3.6610  -39.0240  128.0720 N.am   67  ASN67      -0.0877
      9  N         -8.7310  -39.2370  130.2590 N.am   68  MET68      -0.1979
     10  CA        -9.8270  -38.2730  130.2790 C.3    68  MET68       0.1605
     11  C        -11.1230  -38.7260  130.9480 C.2    68  MET68       0.2287
     12  O        -11.9810  -37.8850  131.2200 O.2    68  MET68      -0.2864
     13  CB       -10.1520  -37.8390  128.8410 C.3    68  MET68       0.0413
     14  CG        -8.9590  -37.2630  128.0520 C.3    68  MET68       0.0598
     15  SD        -8.1150  -35.9210  128.9230 S.3    68  MET68      -0.1393
     16  CE        -9.4590  -34.7140  129.0530 C.3    68  MET68       0.0692
     17  N        -12.4670  -36.9090  134.1210 N.3    71  MET71      -0.1245
     18  CA       -12.8590  -35.5450  133.7800 C.3    71  MET71       0.1570
     19  C        -14.1350  -35.5010  132.9380 C.2    71  MET71       0.2261
     20  O        -14.8730  -34.5140  132.9880 O.2    71  MET71      -0.2867
     21  CB       -11.7140  -34.8310  133.0560 C.3    71  MET71       0.0387
     22  CG       -10.5670  -34.4260  133.9840 C.3    71  MET71       0.0595
     23  SD        -9.1840  -33.5520  133.1860 S.3    71  MET71      -0.1393
     24  CE        -8.2650  -34.9380  132.5050 C.3    71  MET71       0.0692
     25  N         -8.8010  -33.9830  120.0910 N.3   126  GLU126     -0.1231
     26  CA        -7.9740  -34.6690  121.0600 C.3   126  GLU126      0.1699
     27  C         -6.5040  -34.2630  120.8770 C.2   126  GLU126      0.2592
     28  O         -6.0290  -34.1180  119.7290 O.2   126  GLU126     -0.2718
     29  CB        -8.1410  -36.1900  120.8760 C.3   126  GLU126      0.0402
     30  CG        -8.4520  -36.9940  122.1250 C.3   126  GLU126      0.1161
     31  CD        -9.8220  -36.7050  122.6830 C.2   126  GLU126      0.3649
     32  OE1      -10.8410  -36.9470  121.9940 O.co2 126  GLU126     -0.2457
     33  OE2       -9.8700  -36.2090  123.8240 O.co2 126  GLU126     -0.2457
     34  N         -5.7990  -34.0490  121.9920 N.am  127  VAL127     -0.1966
     35  CA        -4.3320  -34.1500  121.9820 C.3   127  VAL127      0.1727
     36  C         -3.9100  -34.8700  123.2770 C.2   127  VAL127      0.2616
     37  O         -4.2170  -34.4130  124.3870 O.2   127  VAL127     -0.2715
     38  CB        -3.6110  -32.7810  121.8170 C.3   127  VAL127      0.0290
     39  CG1       -4.0860  -31.7430  122.8470 C.3   127  VAL127      0.0023
     40  CG2       -2.0950  -32.9760  121.8660 C.3   127  VAL127      0.0023
     41  N         -3.2680  -36.0330  123.1240 N.am  128  GLN128     -0.1963
     42  CA        -3.0140  -36.9510  124.2420 C.3   128  GLN128      0.1733
     43  C         -1.5800  -37.4850  124.2140 C.2   128  GLN128      0.2616
     44  O         -1.1130  -37.9840  123.1850 O.2   128  GLN128     -0.2715
     45  CB        -3.9800  -38.1390  124.2150 C.3   128  GLN128      0.0408
     46  CG        -5.4620  -37.7770  124.2230 C.3   128  GLN128      0.0908
     47  CD        -5.9150  -37.2290  125.5670 C.2   128  GLN128      0.2608
     48  OE1       -5.4500  -37.6780  126.6180 O.2   128  GLN128     -0.2717
     49  NE2       -6.8350  -36.2650  125.5400 N.am  128  GLN128     -0.0878
     50  N         -0.8780  -37.3740  125.3390 N.am  129  LEU129     -0.1977
     51  CA         0.4960  -37.8750  125.4270 C.3   129  LEU129      0.1596
     52  C          0.5950  -38.9510  126.5100 C.2   129  LEU129      0.2287
     53  O         -0.1150  -38.8860  127.5310 O.2   129  LEU129     -0.2864
     54  CB         1.4830  -36.7470  125.7440 C.3   129  LEU129      0.0297
     55  CG         1.9700  -35.7870  124.6520 C.3   129  LEU129      0.0022
     56  CD1        0.8210  -35.0020  124.0060 C.3   129  LEU129      0.0001
     57  CD2        3.0220  -34.8350  125.2160 C.3   129  LEU129      0.0001
     58  N          5.5430  -36.2350  128.6470 N.3   134  ARG134     -0.1231
     59  CA         4.9240  -34.9160  128.8500 C.3   134  ARG134      0.1694
     60  C          5.9180  -33.8680  129.3450 C.2   134  ARG134      0.2592
     61  O          7.0100  -34.2070  129.8150 O.2   134  ARG134     -0.2718
     62  CB         3.7570  -35.0200  129.8400 C.3   134  ARG134      0.0321
     63  CG         2.5760  -35.8540  129.3330 C.3   134  ARG134      0.0489
     64  CD         1.4520  -36.0000  130.3750 C.3   134  ARG134      0.2205
     65  NE         0.5830  -37.1450  130.0500 N.pl3 134  ARG134     -0.0865
     66  CZ        -0.3680  -37.6360  130.8370 C.cat 134  ARG134      0.5346
     67  NH1       -0.5860  -37.0950  132.0290 N.pl3 134  ARG134      0.1354
     68  NH2       -1.0900  -38.6830  130.4390 N.pl3 134  ARG134      0.1354
     69  N          5.5520  -32.5940  129.1820 N.am  135  ARG135     -0.1966
     70  CA         6.3870  -31.4690  129.6050 C.3   135  ARG135      0.1729
     71  C          7.7880  -31.5420  129.0090 C.2   135  ARG135      0.2616
     72  O          8.7890  -31.2820  129.6920 O.2   135  ARG135     -0.2715
     73  CB         6.4660  -31.3920  131.1360 C.3   135  ARG135      0.0348
     74  CG         5.1040  -31.2250  131.7990 C.3   135  ARG135      0.0492
     75  CD         4.3760  -29.9990  131.2740 C.3   135  ARG135      0.2205
     76  NE         4.8740  -28.7440  131.8330 N.pl3 135  ARG135     -0.0865
     77  CZ         4.3970  -28.1730  132.9410 C.cat 135  ARG135      0.5346
     78  NH1        3.4020  -28.7470  133.5990 N.pl3 135  ARG135      0.1354
     79  NH2        4.8910  -27.0130  133.3780 N.pl3 135  ARG135      0.1354
     80  N          7.8460  -31.8940  127.7300 N.am  136  LYS136     -0.1963
     81  CA         9.1030  -31.9210  126.9970 C.3   136  LYS136      0.1728
     82  C          8.8980  -31.1550  125.6810 C.2   136  LYS136      0.2617
     83  O          9.7750  -31.1410  124.8130 O.2   136  LYS136     -0.2715
     84  CB         9.5530  -33.3690  126.7600 C.3   136  LYS136      0.0311
     85  CG         9.7770  -34.1180  128.0730 C.3   136  LYS136      0.0038
     86  CD         9.9400  -35.6230  127.8960 C.3   136  LYS136      0.0206
     87  CE        10.1040  -36.3010  129.2620 C.3   136  LYS136      0.1093
     88  NZ        11.2460  -35.7600  130.0510 N.3   136  LYS136     -0.1314
     89  N          7.7220  -30.5370  125.5360 N.am  137  GLY137     -0.1940
     90  CA         7.4480  -29.6750  124.3960 C.3   137  GLY137      0.2014
     91  C          6.7410  -30.3710  123.2410 C.2   137  GLY137      0.2639
     92  O          6.4100  -29.7530  122.2250 O.2   137  GLY137     -0.2714
     93  N          6.5050  -31.6650  123.3820 N.am  138  LEU138     -0.1963
     94  CA         5.9100  -32.4090  122.2860 C.3   138  LEU138      0.1728
     95  C          4.4730  -31.9590  122.0750 C.2   138  LEU138      0.2617
     96  O          4.0370  -31.7770  120.9340 O.2   138  LEU138     -0.2715
     97  CB         5.9810  -33.9180  122.5480 C.3   138  LEU138      0.0311
     98  CG         5.3990  -34.7950  121.4350 C.3   138  LEU138      0.0022
     99  CD1        6.0150  -34.4500  120.0710 C.3   138  LEU138      0.0001
    100  CD2        5.5700  -36.2800  121.7700 C.3   138  LEU138      0.0001
    101  N          3.7570  -31.7390  123.1780 N.am  139  GLY139     -0.1940
    102  CA         2.3900  -31.2650  123.1020 C.3   139  GLY139      0.2014
    103  C          2.2630  -29.9470  122.3480 C.2   139  GLY139      0.2638
    104  O          1.4310  -29.8180  121.4330 O.2   139  GLY139     -0.2714
    105  N          3.1010  -28.9780  122.7040 N.am  140  LYS140     -0.1977
    106  CA         3.1070  -27.6670  122.0450 C.3   140  LYS140      0.1596
    107  C          3.4270  -27.8140  120.5590 C.2   140  LYS140      0.2287
    108  O          2.7840  -27.2080  119.6960 O.2   140  LYS140     -0.2864
    109  CB         4.1310  -26.7560  122.7240 C.3   140  LYS140      0.0298
    110  CG         4.3650  -25.4020  122.0740 C.3   140  LYS140      0.0038
    111  CD         5.3930  -24.5990  122.8920 C.3   140  LYS140      0.0206
    112  CE         5.6030  -23.1870  122.3530 C.3   140  LYS140      0.1093
    113  NZ         6.5310  -22.4010  123.2110 N.3   140  LYS140     -0.1314
    114  N        -10.8510  -25.9360  119.8390 N.3   160  LEU160     -0.1231
    115  CA       -10.9740  -27.1430  120.6350 C.3   160  LEU160      0.1693
    116  C        -11.8470  -26.8840  121.8560 C.2   160  LEU160      0.2593
    117  O        -12.1780  -25.7310  122.1750 O.2   160  LEU160     -0.2718
    118  CB        -9.5850  -27.6400  121.0520 C.3   160  LEU160      0.0284
    119  CG        -8.8220  -26.6090  121.8840 C.3   160  LEU160      0.0019
    120  CD1       -8.6650  -27.1010  123.3130 C.3   160  LEU160      0.0001
    121  CD2       -7.4740  -26.2990  121.2830 C.3   160  LEU160      0.0001
    122  N        -12.1990  -27.9680  122.5410 N.am  161  THR161     -0.1939
    123  CA       -12.9440  -27.8830  123.7890 C.3   161  THR161      0.2028
    124  C        -12.0530  -28.3520  124.9520 C.2   161  THR161      0.2642
    125  O        -11.3980  -29.4130  124.8780 O.2   161  THR161     -0.2714
    126  CB       -14.2250  -28.7650  123.7540 C.3   161  THR161      0.1808
    127  OG1      -15.0060  -28.4700  122.5830 O.3   161  THR161     -0.2208
    128  CG2      -15.0570  -28.5770  125.0410 C.3   161  THR161      0.0379
    129  N        -12.0460  -27.5800  126.0330 N.am  162  VAL162     -0.1963
    130  CA       -11.2810  -27.9860  127.2020 C.3   162  VAL162      0.1727
    131  C        -12.1540  -27.8520  128.4510 C.2   162  VAL162      0.2616
    132  O        -12.9720  -26.9260  128.5580 O.2   162  VAL162     -0.2715
    133  CB        -9.9570  -27.1710  127.3370 C.3   162  VAL162      0.0290
    134  CG1      -10.2310  -25.6850  127.3090 C.3   162  VAL162      0.0023
    135  CG2       -9.1820  -27.5830  128.5930 C.3   162  VAL162      0.0023
    136  N        -12.0140  -28.8240  129.3560 N.am  163  PHE163     -0.1974
    137  CA       -12.7370  -28.8310  130.6210 C.3   163  PHE163      0.1639
    138  C        -12.2190  -27.7300  131.5260 C.2   163  PHE163      0.2290
    139  O        -11.0050  -27.5380  131.6430 O.2   163  PHE163     -0.2864
    140  CB       -12.6000  -30.1920  131.3160 C.3   163  PHE163      0.0560
    141  CG       -13.3040  -31.3260  130.5910 C.ar  163  PHE163     -0.0200
    142  CD1      -14.5870  -31.1520  130.0610 C.ar  163  PHE163     -0.0042
    143  CD2      -12.6800  -32.5710  130.4480 C.ar  163  PHE163     -0.0042
    144  CE1      -15.2380  -32.1990  129.3860 C.ar  163  PHE163     -0.0003
    145  CE2      -13.3210  -33.6360  129.7710 C.ar  163  PHE163     -0.0003
    146  CZ       -14.6000  -33.4480  129.2390 C.ar  163  PHE163     -0.0000
    147  N        -10.0460  -29.2640  133.8330 N.3   166  ASN166     -0.1240
    148  CA        -8.7310  -29.6750  133.3700 C.3   166  ASN166      0.1653
    149  C         -7.8400  -28.4410  133.4270 C.2   166  ASN166      0.2266
    150  O         -7.4970  -27.8560  132.3910 O.2   166  ASN166     -0.2867
    151  CB        -8.7890  -30.2500  131.9540 C.3   166  ASN166      0.1155
    152  CG        -7.5370  -31.0230  131.5920 C.2   166  ASN166      0.2627
    153  OD1       -6.5470  -30.9930  132.3280 O.2   166  ASN166     -0.2716
    154  ND2       -7.5700  -31.7220  130.4600 N.am  166  ASN166     -0.0877
    155  N         -4.7370  -27.8160  134.1360 N.3   168  GLY168     -0.1210
    156  CA        -3.4320  -27.8640  133.4970 C.3   168  GLY168      0.1956
    157  C         -3.4940  -27.6650  131.9900 C.2   168  GLY168      0.2611
    158  O         -2.7150  -26.8950  131.4210 O.2   168  GLY168     -0.2717
    159  N         -4.4340  -28.3400  131.3400 N.am  169  ALA169     -0.1979
    160  CA        -4.5850  -28.1930  129.9110 C.3   169  ALA169      0.1597
    161  C         -5.0580  -26.7810  129.5600 C.2   169  ALA169      0.2287
    162  O         -4.6030  -26.1920  128.5710 O.2   169  ALA169     -0.2864
    163  CB        -5.5450  -29.2320  129.3770 C.3   169  ALA169      0.0319
    164  N         -4.3180  -24.0130  131.0410 N.3   171  GLN171     -0.1231
    165  CA        -3.1510  -23.1490  131.0840 C.3   171  GLN171      0.1698
    166  C         -2.2600  -23.3870  129.8800 C.2   171  GLN171      0.2592
    167  O         -1.7500  -22.4300  129.2740 O.2   171  GLN171     -0.2718
    168  CB        -2.3730  -23.3740  132.3730 C.3   171  GLN171      0.0381
    169  CG        -3.1400  -22.9220  133.6180 C.3   171  GLN171      0.0905
    170  CD        -2.3420  -23.1240  134.8870 C.2   171  GLN171      0.2608
    171  OE1       -1.8170  -24.2230  135.1420 O.2   171  GLN171     -0.2717
    172  NE2       -2.2640  -22.0820  135.7080 N.am  171  GLN171     -0.0878
    173  N         -2.1220  -24.6630  129.5150 N.am  172  PHE172     -0.1962
    174  CA        -1.3640  -25.0550  128.3360 C.3   172  PHE172      0.1771
    175  C         -1.8330  -24.2670  127.1040 C.2   172  PHE172      0.2619
    176  O         -1.0520  -23.5070  126.5110 O.2   172  PHE172     -0.2715
    177  CB        -1.5010  -26.5760  128.1210 C.3   172  PHE172      0.0574
    178  CG        -0.8870  -27.0800  126.8360 C.ar  172  PHE172     -0.0200
    179  CD1        0.4880  -27.0400  126.6450 C.ar  172  PHE172     -0.0042
    180  CD2       -1.6900  -27.6090  125.8290 C.ar  172  PHE172     -0.0042
    181  CE1        1.0680  -27.4980  125.4470 C.ar  172  PHE172     -0.0003
    182  CE2       -1.1350  -28.0810  124.6350 C.ar  172  PHE172     -0.0003
    183  CZ         0.2490  -28.0270  124.4420 C.ar  172  PHE172     -0.0000
    184  N         -3.1240  -24.3550  126.7920 N.am  173  PHE173     -0.1974
    185  CA        -3.6670  -23.6620  125.6220 C.3   173  PHE173      0.1639
    186  C         -3.7840  -22.1560  125.8150 C.2   173  PHE173      0.2290
    187  O         -3.4140  -21.3940  124.9170 O.2   173  PHE173     -0.2864
    188  CB        -5.0410  -24.2050  125.2550 C.3   173  PHE173      0.0560
    189  CG        -5.0170  -25.5860  124.6870 C.ar  173  PHE173     -0.0200
    190  CD1       -4.4550  -25.8310  123.4370 C.ar  173  PHE173     -0.0042
    191  CD2       -5.5900  -26.6430  125.3880 C.ar  173  PHE173     -0.0042
    192  CE1       -4.4530  -27.1170  122.9020 C.ar  173  PHE173     -0.0003
    193  CE2       -5.5860  -27.9310  124.8690 C.ar  173  PHE173     -0.0003
    194  CZ        -5.0170  -28.1730  123.6240 C.ar  173  PHE173     -0.0000
    195  N          0.3250  -20.9420  127.5890 N.3   176  ALA176     -0.1245
    196  CA         1.5370  -21.2400  126.8290 C.3   176  ALA176      0.1562
    197  C          1.3720  -20.9550  125.3330 C.2   176  ALA176      0.2260
    198  O          2.2340  -20.3210  124.7180 O.2   176  ALA176     -0.2867
    199  CB         1.9570  -22.7030  127.0430 C.3   176  ALA176      0.0290
@<TRIPOS>BOND
     1   108   107    2
     2    28    27    2
     3   114   115    1
     4    99    98    1
     5    25    26    1
     6   107   106    1
     7   115   118    1
     8   115   116    1
     9    29    26    1
    10    29    30    1
    11    27    26    1
    12    27    34   am
    13    96    95    2
    14   118   119    1
    15   121   119    1
    16   104   103    2
    17    98   100    1
    18    98    97    1
    19    38    40    1
    20    38    35    1
    21    38    39    1
    22   116   117    2
    23   116   122   am
    24   119   120    1
    25    35    34    1
    26    35    36    1
    27    32    31   ar
    28   106   105    1
    29   106   109    1
    30   110   109    1
    31   110   111    1
    32    95    94    1
    33    95   101   am
    34    30    31    1
    35    92    91    2
    36    94    97    1
    37    94    93    1
    38   103   105   am
    39   103   102    1
    40   112   111    1
    41   112   113    1
    42   122   123    1
    43   127   126    1
    44    31    33   ar
    45   192   190   ar
    46   192   194   ar
    47   102   101    1
    48    41    36   am
    49    41    42    1
    50    44    43    2
    51    91    93   am
    52    91    90    1
    53    36    37    2
    54   190   189   ar
    55   194   193   ar
    56   126   123    1
    57   126   128    1
    58   123   124    1
    59    56    55    1
    60    43    42    1
    61    43    50   am
    62    45    46    1
    63    45    42    1
    64    46    47    1
    65    90    89    1
    66   183   182   ar
    67   183   181   ar
    68   182   180   ar
    69    55    57    1
    70    55    54    1
    71   189   188    1
    72   189   191   ar
    73   198   197    2
    74    83    82    2
    75   193   191   ar
    76   125   124    2
    77   187   186    2
    78   124   129   am
    79   188   185    1
    80   197   196    1
    81    50    51    1
    82    51    54    1
    83    51    52    1
    84   181   179   ar
    85    89    82   am
    86    49    47   am
    87    47    48    2
    88   185   186    1
    89   185   184    1
    90    82    81    1
    91   180   178   ar
    92   129   130    1
    93    52    53    2
    94   176   175    2
    95   179   178   ar
    96    84    81    1
    97    84    85    1
    98   184   175   am
    99   196   199    1
   100   196   195    1
   101   178   177    1
   102    81    80    1
   103   175   174    1
   104   130   133    1
   105   130   131    1
   106   134   133    1
   107   133   135    1
   108    80    71   am
   109    86    85    1
   110    86    87    1
   111    14    13    1
   112    14    15    1
   113     8     6   am
   114   177   174    1
   115   174   173    1
   116   131   132    2
   117   131   136   am
   118   162   161    2
   119    58    59    1
   120    13    10    1
   121    59    60    1
   122    59    62    1
   123    15    16    1
   124    71    70    1
   125    71    72    2
   126    69    60   am
   127    69    70    1
   128     6     5    1
   129     6     7    2
   130   146   144   ar
   131   146   145   ar
   132    87    88    1
   133   167   166    2
   134    63    62    1
   135    63    64    1
   136    60    61    2
   137   136   137    1
   138   163   160    1
   139   144   142   ar
   140     5     2    1
   141   173   166   am
   142   161   160    1
   143    70    73    1
   144   145   143   ar
   145   166   165    1
   146   160   159    1
   147    65    64    1
   148    65    66    2
   149   142   141   ar
   150     9    10    1
   151     9     3   am
   152     1     2    1
   153    10    11    1
   154    68    66    1
   155   143   141   ar
   156   154   152   am
   157   141   140    1
   158     2     3    1
   159   137   140    1
   160   137   138    1
   161    66    67    1
   162     3     4    2
   163    11    12    2
   164   164   165    1
   165   165   168    1
   166    73    74    1
   167    75    74    1
   168    75    76    1
   169   159   157   am
   170   158   157    2
   171   138   139    2
   172   152   151    1
   173   152   153    2
   174    76    77    2
   175   151   148    1
   176   157   156    1
   177   168   169    1
   178   150   149    2
   179    24    23    1
   180    19    20    2
   181    19    18    1
   182    77    79    1
   183    77    78    1
   184    21    18    1
   185    21    22    1
   186    23    22    1
   187   148   149    1
   188   148   147    1
   189   156   155    1
   190   169   170    1
   191    18    17    1
   192   170   171    2
   193   170   172   am
