@<TRIPOS>MOLECULE
tmp/4ua3B00.pdb
 215 211 0 0 0
SMALL
GASTEIGER

@<TRIPOS>ATOM
      1  N         31.5110   36.0970   19.6130 N.3    47  ASN47      -0.1240
      2  CA        31.6260   34.6530   19.4450 C.3    47  ASN47       0.1653
      3  C         31.2700   34.1630   18.0370 C.2    47  ASN47       0.2266
      4  O         31.8150   33.1640   17.5660 O.2    47  ASN47      -0.2867
      5  CB        30.7260   33.9250   20.4560 C.3    47  ASN47       0.1155
      6  CG        31.2410   34.0140   21.8910 C.2    47  ASN47       0.2627
      7  OD1       32.2680   34.6320   22.1670 O.2    47  ASN47      -0.2716
      8  ND2       30.5130   33.3890   22.8150 N.am   47  ASN47      -0.0877
      9  N         31.6060   33.0970   12.1510 N.3    50  LEU50      -0.1245
     10  CA        30.7710   31.9600   11.7730 C.3    50  LEU50       0.1561
     11  C         29.5800   32.3870   10.9380 C.2    50  LEU50       0.2260
     12  O         29.2220   31.7190    9.9690 O.2    50  LEU50      -0.2867
     13  CB        30.2810   31.2040   13.0110 C.3    50  LEU50       0.0270
     14  CG        31.2890   30.2290   13.6090 C.3    50  LEU50       0.0019
     15  CD1       30.8260   29.7330   14.9670 C.3    50  LEU50       0.0001
     16  CD2       31.4510   29.0700   12.6510 C.3    50  LEU50       0.0001
     17  N         17.7540   29.3090   21.6270 N.3   103  TYR103     -0.1227
     18  CA        18.2040   30.2160   20.5720 C.3   103  TYR103      0.1736
     19  C         19.6990   30.4570   20.6070 C.2   103  TYR103      0.2595
     20  O         20.3540   30.4360   19.5740 O.2   103  TYR103     -0.2718
     21  CB        17.4820   31.5500   20.6440 C.3   103  TYR103      0.0548
     22  CG        16.1570   31.5140   19.9220 C.ar  103  TYR103     -0.0200
     23  CD1       15.1430   30.6650   20.3330 C.ar  103  TYR103     -0.0009
     24  CD2       15.9590   32.2660   18.7670 C.ar  103  TYR103     -0.0009
     25  CE1       13.9340   30.6190   19.6540 C.ar  103  TYR103      0.0417
     26  CE2       14.7770   32.2200   18.0920 C.ar  103  TYR103      0.0417
     27  CZ        13.7670   31.3990   18.5330 C.ar  103  TYR103      0.1957
     28  OH        12.5950   31.3770   17.8220 O.3   103  TYR103     -0.2866
     29  N         20.2370   30.6750   21.8010 N.am  104  GLU104     -0.1965
     30  CA        21.6610   30.9360   21.9450 C.3   104  GLU104      0.1733
     31  C         22.1790   30.1950   23.1620 C.2   104  GLU104      0.2616
     32  O         21.4680   30.0690   24.1530 O.2   104  GLU104     -0.2715
     33  CB        21.9470   32.4310   22.1170 C.3   104  GLU104      0.0429
     34  CG        21.3440   33.3660   21.0970 C.3   104  GLU104      0.1163
     35  CD        22.0940   33.3670   19.7840 C.2   104  GLU104      0.3649
     36  OE1       23.2000   32.7700   19.7160 O.co2 104  GLU104     -0.2457
     37  OE2       21.5800   33.9880   18.8300 O.co2 104  GLU104     -0.2457
     38  N         23.4030   29.6840   23.0760 N.am  105  ILE105     -0.1963
     39  CA        24.1610   29.3680   24.2850 C.3   105  ILE105      0.1727
     40  C         25.5600   29.9690   24.1000 C.2   105  ILE105      0.2616
     41  O         26.2840   29.6080   23.1710 O.2   105  ILE105     -0.2715
     42  CB        24.2220   27.8460   24.5700 C.3   105  ILE105      0.0290
     43  CG1       25.0320   27.5700   25.8360 C.3   105  ILE105      0.0022
     44  CG2       24.8270   27.0600   23.4000 C.3   105  ILE105      0.0023
     45  CD1       24.9080   26.1450   26.2920 C.3   105  ILE105      0.0001
     46  N         25.9040   30.9300   24.9530 N.am  106  GLN106     -0.1963
     47  CA        27.0910   31.7570   24.7380 C.3   106  GLN106      0.1733
     48  C         27.9060   31.9280   26.0140 C.2   106  GLN106      0.2616
     49  O         27.3680   32.3010   27.0540 O.2   106  GLN106     -0.2715
     50  CB        26.6970   33.1370   24.2010 C.3   106  GLN106      0.0408
     51  CG        25.9000   33.1250   22.8870 C.3   106  GLN106      0.0908
     52  CD        26.7730   32.7920   21.6800 C.2   106  GLN106      0.2608
     53  OE1       27.9970   32.7880   21.7820 O.2   106  GLN106     -0.2717
     54  NE2       26.1430   32.5260   20.5280 N.am  106  GLN106     -0.0878
     55  N         29.2000   31.6480   25.9300 N.am  107  LEU107     -0.1977
     56  CA        30.1070   31.8620   27.0520 C.3   107  LEU107      0.1596
     57  C         31.2770   32.7150   26.5850 C.2   107  LEU107      0.2287
     58  O         31.7950   32.4870   25.4930 O.2   107  LEU107     -0.2864
     59  CB        30.6270   30.5280   27.5820 C.3   107  LEU107      0.0297
     60  CG        29.6670   29.4880   28.1450 C.3   107  LEU107      0.0022
     61  CD1       30.4620   28.2670   28.5650 C.3   107  LEU107      0.0001
     62  CD2       28.8770   30.0580   29.3160 C.3   107  LEU107      0.0001
     63  N         35.4560   31.6770   30.6090 N.3   111  ILE111     -0.1231
     64  CA        34.7180   30.7200   31.4400 C.3   111  ILE111      0.1692
     65  C         34.3930   29.3850   30.7290 C.2   111  ILE111      0.2592
     66  O         33.6630   28.5410   31.2650 O.2   111  ILE111     -0.2718
     67  CB        33.4050   31.3640   31.9960 C.3   111  ILE111      0.0266
     68  CG1       33.0260   30.7350   33.3430 C.3   111  ILE111      0.0019
     69  CG2       32.2790   31.2930   30.9770 C.3   111  ILE111      0.0020
     70  CD1       31.8600   31.4160   34.0500 C.3   111  ILE111      0.0001
     71  N         34.9460   29.1810   29.5350 N.am  112  ARG112     -0.1966
     72  CA        34.7860   27.9010   28.8390 C.3   112  ARG112      0.1729
     73  C         35.6550   26.7940   29.4210 C.2   112  ARG112      0.2617
     74  O         36.7360   27.0490   29.9570 O.2   112  ARG112     -0.2715
     75  CB        35.1000   28.0440   27.3420 C.3   112  ARG112      0.0348
     76  CG        34.1330   28.9480   26.6160 C.3   112  ARG112      0.0492
     77  CD        34.4320   29.0690   25.1330 C.3   112  ARG112      0.2205
     78  NE        33.7630   30.2450   24.5940 N.pl3 112  ARG112     -0.0865
     79  CZ        33.9680   30.7490   23.3840 C.cat 112  ARG112      0.5346
     80  NH1       34.8210   30.1700   22.5430 N.pl3 112  ARG112      0.1354
     81  NH2       33.2970   31.8310   23.0110 N.pl3 112  ARG112      0.1354
     82  N         35.1850   25.5580   29.2890 N.am  113  GLY113     -0.1940
     83  CA        35.9510   24.4040   29.7250 C.3   113  GLY113      0.2014
     84  C         35.8460   24.1890   31.2230 C.2   113  GLY113      0.2639
     85  O         36.7370   23.6060   31.8400 O.2   113  GLY113     -0.2714
     86  N         34.7520   24.6700   31.8060 N.am  114  ARG114     -0.1963
     87  CA        34.5340   24.5460   33.2550 C.3   114  ARG114      0.1729
     88  C         33.1500   24.0010   33.6020 C.2   114  ARG114      0.2616
     89  O         32.6850   24.1510   34.7510 O.2   114  ARG114     -0.2715
     90  CB        34.7170   25.9010   33.9310 C.3   114  ARG114      0.0348
     91  CG        36.0570   26.5590   33.6930 C.3   114  ARG114      0.0492
     92  CD        36.1720   27.8180   34.5360 C.3   114  ARG114      0.2205
     93  NE        37.3860   28.5690   34.2420 N.pl3 114  ARG114     -0.0865
     94  CZ        37.7100   29.7200   34.8230 C.cat 114  ARG114      0.5346
     95  NH1       36.9030   30.2540   35.7320 N.pl3 114  ARG114      0.1354
     96  NH2       38.8400   30.3370   34.4970 N.pl3 114  ARG114      0.1354
     97  N         32.5020   23.3920   32.6030 N.am  115  ASN115     -0.1972
     98  CA        31.1790   22.7560   32.7340 C.3   115  ASN115      0.1688
     99  C         30.0040   23.7150   32.8940 C.2   115  ASN115      0.2292
    100  O         28.8960   23.2940   33.2380 O.2   115  ASN115     -0.2864
    101  CB        31.1670   21.7640   33.8940 C.3   115  ASN115      0.1181
    102  CG        31.9610   20.5310   33.5980 C.2   115  ASN115      0.2629
    103  OD1       31.5230   19.6700   32.8350 O.2   115  ASN115     -0.2716
    104  ND2       33.1380   20.4220   34.2110 N.am  115  ASN115     -0.0877
    105  N         28.8070   25.2650   30.3480 N.3   117  GLY117     -0.1210
    106  CA        27.9950   24.9540   29.1870 C.3   117  GLY117      0.1956
    107  C         27.0560   23.8220   29.5350 C.2   117  GLY117      0.2611
    108  O         25.8560   23.9140   29.2970 O.2   117  GLY117     -0.2717
    109  N         27.5940   22.7670   30.1360 N.am  118  LYS118     -0.1979
    110  CA        26.7490   21.6910   30.6390 C.3   118  LYS118      0.1596
    111  C         25.7410   22.2170   31.6750 C.2   118  LYS118      0.2287
    112  O         24.5780   21.8150   31.6810 O.2   118  LYS118     -0.2864
    113  CB        27.5710   20.5610   31.2570 C.3   118  LYS118      0.0298
    114  CG        26.6660   19.5320   31.9200 C.3   118  LYS118      0.0038
    115  CD        27.3820   18.3030   32.4240 C.3   118  LYS118      0.0206
    116  CE        26.3420   17.2920   32.8960 C.3   118  LYS118      0.1093
    117  NZ        26.9120   16.0910   33.5500 N.3   118  LYS118     -0.1314
    118  N         18.9080   25.1520   16.4150 N.3   139  THR139     -0.1203
    119  CA        19.5470   25.1910   15.0970 C.3   139  THR139      0.1994
    120  C         21.0390   25.3390   15.3190 C.2   139  THR139      0.2618
    121  O         21.4520   26.0810   16.1950 O.2   139  THR139     -0.2717
    122  CB        19.0390   26.3520   14.2520 C.3   139  THR139      0.1784
    123  OG1       17.6200   26.2220   14.0540 O.3   139  THR139     -0.2211
    124  CG2       19.7530   26.3950   12.8840 C.3   139  THR139      0.0376
    125  N         21.8490   24.6580   14.5160 N.am  140  VAL140     -0.1965
    126  CA        23.2850   24.8320   14.6290 C.3   140  VAL140      0.1727
    127  C         23.9580   24.7890   13.2510 C.2   140  VAL140      0.2616
    128  O         23.6560   23.9270   12.4410 O.2   140  VAL140     -0.2715
    129  CB        23.8970   23.7610   15.5320 C.3   140  VAL140      0.0290
    130  CG1       23.5410   22.3650   15.0290 C.3   140  VAL140      0.0023
    131  CG2       25.4230   23.9470   15.6300 C.3   140  VAL140      0.0023
    132  N         24.8760   25.7190   13.0170 N.am  141  PHE141     -0.1974
    133  CA        25.7120   25.7090   11.8100 C.3   141  PHE141      0.1639
    134  C         26.6270   24.5050   11.7790 C.2   141  PHE141      0.2290
    135  O         27.3110   24.2240   12.7700 O.2   141  PHE141     -0.2864
    136  CB        26.6150   26.9340   11.7500 C.3   141  PHE141      0.0560
    137  CG        25.9000   28.2110   11.5640 C.ar  141  PHE141     -0.0200
    138  CD1       25.0150   28.3690   10.5270 C.ar  141  PHE141     -0.0042
    139  CD2       26.1260   29.2700   12.4290 C.ar  141  PHE141     -0.0042
    140  CE1       24.3680   29.5540   10.3470 C.ar  141  PHE141     -0.0003
    141  CE2       25.4740   30.4650   12.2610 C.ar  141  PHE141     -0.0003
    142  CZ        24.5880   30.6090   11.2200 C.ar  141  PHE141     -0.0000
    143  N         30.0300   25.3990   12.7460 N.3   144  ASN144     -0.1240
    144  CA        30.3220   25.5540   14.1610 C.3   144  ASN144      0.1653
    145  C         30.5870   24.1790   14.7470 C.2   144  ASN144      0.2266
    146  O         29.7780   23.6510   15.5120 O.2   144  ASN144     -0.2867
    147  CB        29.1780   26.2480   14.8970 C.3   144  ASN144      0.1155
    148  CG        29.5600   26.6510   16.3180 C.2   144  ASN144      0.2627
    149  OD1       30.6010   26.2440   16.8340 O.2   144  ASN144     -0.2716
    150  ND2       28.7210   27.4570   16.9420 N.am  144  ASN144     -0.0877
    151  N         32.6750   22.8910   16.9580 N.3   146  ASN146     -0.1225
    152  CA        32.7670   22.7180   18.4150 C.3   146  ASN146      0.1785
    153  C         31.3810   22.6050   19.0250 C.2   146  ASN146      0.2597
    154  O         31.1260   21.7290   19.8390 O.2   146  ASN146     -0.2718
    155  CB        33.5200   23.8630   19.0870 C.3   146  ASN146      0.1169
    156  CG        33.7830   23.5940   20.5740 C.2   146  ASN146      0.2627
    157  OD1       34.5210   22.6760   20.9410 O.2   146  ASN146     -0.2716
    158  ND2       33.1570   24.3900   21.4280 N.am  146  ASN146     -0.0877
    159  N         30.4840   23.4760   18.5950 N.am  147  ALA147     -0.1979
    160  CA        29.1290   23.4810   19.1740 C.3   147  ALA147      0.1597
    161  C         28.3940   22.2000   18.7860 C.2   147  ALA147      0.2287
    162  O         27.7500   21.5600   19.6140 O.2   147  ALA147     -0.2864
    163  CB        28.3670   24.6980   18.7180 C.3   147  ALA147      0.0319
    164  N         29.6240   19.2760   18.1240 N.3   149  ASN149     -0.1225
    165  CA        30.0990   18.1140   18.8370 C.3   149  ASN149      0.1785
    166  C         29.6480   18.1650   20.3000 C.2   149  ASN149      0.2597
    167  O         29.2850   17.1440   20.8650 O.2   149  ASN149     -0.2718
    168  CB        31.6250   18.0130   18.7390 C.3   149  ASN149      0.1169
    169  CG        32.0800   17.5270   17.3640 C.2   149  ASN149      0.2627
    170  OD1       31.3150   16.8680   16.6550 O.2   149  ASN149     -0.2716
    171  ND2       33.3220   17.8430   16.9910 N.am  149  ASN149     -0.0877
    172  N         29.6120   19.3700   20.8550 N.am  150  PHE150     -0.1962
    173  CA        29.0920   19.6130   22.2160 C.3   150  PHE150      0.1771
    174  C         27.6620   19.1150   22.3220 C.2   150  PHE150      0.2619
    175  O         27.3340   18.3340   23.2150 O.2   150  PHE150     -0.2715
    176  CB        29.2010   21.1030   22.5520 C.3   150  PHE150      0.0574
    177  CG        28.4400   21.5280   23.7910 C.ar  150  PHE150     -0.0200
    178  CD1       28.9320   21.2540   25.0590 C.ar  150  PHE150     -0.0042
    179  CD2       27.2580   22.2350   23.6770 C.ar  150  PHE150     -0.0042
    180  CE1       28.2400   21.6610   26.1860 C.ar  150  PHE150     -0.0003
    181  CE2       26.5560   22.6430   24.8020 C.ar  150  PHE150     -0.0003
    182  CZ        27.0550   22.3540   26.0570 C.ar  150  PHE150     -0.0000
    183  N         26.8170   19.5370   21.3750 N.am  151  TYR151     -0.1974
    184  CA        25.4170   19.1340   21.4010 C.3   151  TYR151      0.1639
    185  C         25.2930   17.6200   21.2520 C.2   151  TYR151      0.2290
    186  O         24.4660   16.9900   21.8970 O.2   151  TYR151     -0.2864
    187  CB        24.6170   19.8200   20.2790 C.3   151  TYR151      0.0560
    188  CG        24.4860   21.3190   20.3700 C.ar  151  TYR151     -0.0198
    189  CD1       24.1660   21.9520   21.5680 C.ar  151  TYR151     -0.0009
    190  CD2       24.6450   22.1030   19.2350 C.ar  151  TYR151     -0.0009
    191  CE1       24.0310   23.3370   21.6290 C.ar  151  TYR151      0.0417
    192  CE2       24.5170   23.4710   19.2820 C.ar  151  TYR151      0.0417
    193  CZ        24.2080   24.0900   20.4750 C.ar  151  TYR151      0.1957
    194  OH        24.0750   25.4640   20.4850 O.3   151  TYR151     -0.2866
    195  N         27.2900   15.3840   22.1990 N.3   153  HIS153     -0.1226
    196  CA        27.7050   14.7660   23.4540 C.3   153  HIS153      0.1752
    197  C         26.5070   14.6470   24.4110 C.2   153  HIS153      0.2596
    198  O         26.4480   13.7400   25.2350 O.2   153  HIS153     -0.2718
    199  CB        28.8350   15.5760   24.0850 C.3   153  HIS153      0.0759
    200  CG        29.5110   14.8900   25.2280 C.ar  153  HIS153      0.0818
    201  ND1       30.5120   13.9570   25.0500 N.ar  153  HIS153     -0.2268
    202  CD2       29.3200   14.9870   26.5650 C.ar  153  HIS153      0.1154
    203  CE1       30.9190   13.5220   26.2280 C.ar  153  HIS153      0.1986
    204  NE2       30.2080   14.1280   27.1650 N.ar  153  HIS153     -0.2212
    205  N         25.5540   15.5640   24.2790 N.am  154  PHE154     -0.1976
    206  CA        24.3620   15.5690   25.1220 C.3   154  PHE154      0.1639
    207  C         23.1030   15.0760   24.3970 C.2   154  PHE154      0.2290
    208  O         21.9830   15.5520   24.6620 O.2   154  PHE154     -0.2864
    209  CB        24.1610   16.9680   25.7020 C.3   154  PHE154      0.0560
    210  CG        25.1750   17.3240   26.7600 C.ar  154  PHE154     -0.0200
    211  CD1       24.9780   16.9360   28.0840 C.ar  154  PHE154     -0.0042
    212  CD2       26.3250   18.0210   26.4360 C.ar  154  PHE154     -0.0042
    213  CE1       25.9130   17.2480   29.0670 C.ar  154  PHE154     -0.0003
    214  CE2       27.2700   18.3310   27.4030 C.ar  154  PHE154     -0.0003
    215  CZ        27.0620   17.9440   28.7280 C.ar  154  PHE154     -0.0000
@<TRIPOS>BOND
     1    12    11    2
     2   140   138   ar
     3   140   142   ar
     4   138   137   ar
     5    11    10    1
     6   142   141   ar
     7   137   136    1
     8   137   139   ar
     9   136   133    1
    10    10     9    1
    11    10    13    1
    12   134   133    1
    13   134   135    2
    14   133   132    1
    15   141   139   ar
    16   128   127    2
    17    16    14    1
    18   143   144    1
    19   124   122    1
    20    13    14    1
    21   132   127   am
    22   127   126    1
    23    14    15    1
    24   123   122    1
    25   144   145    1
    26   144   147    1
    27   122   119    1
    28   125   126    1
    29   125   120   am
    30   126   129    1
    31   145   146    2
    32   147   148    1
    33   130   129    1
    34   119   120    1
    35   119   118    1
    36   120   121    2
    37   129   131    1
    38   148   149    2
    39   148   150   am
    40   170   169    2
    41   151   152    1
    42   171   169   am
    43   169   168    1
    44     4     3    2
    45    28    27    1
    46     3     2    1
    47    26    27   ar
    48    26    24   ar
    49   164   165    1
    50   152   153    1
    51   152   155    1
    52    27    25   ar
    53   159   153   am
    54   159   160    1
    55   163   160    1
    56   168   165    1
    57    24    22   ar
    58   161   160    1
    59   161   162    2
    60    37    35   ar
    61   165   166    1
    62   153   154    2
    63   155   156    1
    64   190   192   ar
    65   190   188   ar
    66   192   193   ar
    67     2     1    1
    68     2     5    1
    69    20    19    2
    70    25    23   ar
    71    36    35   ar
    72    35    34    1
    73    22    23   ar
    74    22    21    1
    75   187   188    1
    76   187   184    1
    77   166   172   am
    78   166   167    2
    79   188   189   ar
    80     5     6    1
    81   193   194    1
    82   193   191   ar
    83    54    52   am
    84    18    19    1
    85    18    21    1
    86    18    17    1
    87   156   157    2
    88   156   158   am
    89    19    29   am
    90   172   173    1
    91    34    33    1
    92   185   184    1
    93   185   186    2
    94   183   184    1
    95   183   174   am
    96   189   191   ar
    97    52    53    2
    98    52    51    1
    99    29    30    1
   100     6     7    2
   101     6     8   am
   102    30    33    1
   103    30    31    1
   104   195   196    1
   105   173   174    1
   106   173   176    1
   107   174   175    2
   108    80    79    1
   109   176   177    1
   110    51    50    1
   111    81    79    1
   112    38    31   am
   113    38    39    1
   114    31    32    2
   115    41    40    2
   116    79    78    2
   117    44    42    1
   118   196   199    1
   119   196   197    1
   120   179   177   ar
   121   179   181   ar
   122   177   178   ar
   123   199   200    1
   124    40    39    1
   125    40    46   am
   126    50    47    1
   127   205   197   am
   128   205   206    1
   129    39    42    1
   130   207   208    2
   131   207   206    1
   132   197   198    2
   133    42    43    1
   134    78    77    1
   135    47    46    1
   136    47    48    1
   137   181   182   ar
   138   201   200   ar
   139   201   203   ar
   140   178   180   ar
   141   206   209    1
   142    77    76    1
   143   200   202   ar
   144    58    57    2
   145   209   210    1
   146    43    45    1
   147    55    48   am
   148    55    56    1
   149    48    49    2
   150   182   180   ar
   151   203   204   ar
   152   212   210   ar
   153   212   214   ar
   154   202   204   ar
   155    57    56    1
   156    76    75    1
   157   210   211   ar
   158    56    59    1
   159    75    72    1
   160   214   215   ar
   161    59    60    1
   162   211   213   ar
   163    60    61    1
   164    60    62    1
   165   215   213   ar
   166    72    73    1
   167    72    71    1
   168   106   107    1
   169   106   105    1
   170    82    73   am
   171    82    83    1
   172   108   107    2
   173    73    74    2
   174    71    65   am
   175   107   109   am
   176    83    84    1
   177   109   110    1
   178    63    64    1
   179   110   113    1
   180   110   111    1
   181    65    66    2
   182    65    64    1
   183    69    67    1
   184    84    86   am
   185    84    85    2
   186   113   114    1
   187    64    67    1
   188   111   112    2
   189    86    87    1
   190   114   115    1
   191    67    68    1
   192   115   116    1
   193    97    98    1
   194    97    88   am
   195    98    99    1
   196    98   101    1
   197   103   102    2
   198    99   100    2
   199   116   117    1
   200    87    88    1
   201    87    90    1
   202    68    70    1
   203   102   101    1
   204   102   104   am
   205    88    89    2
   206    91    90    1
   207    91    92    1
   208    93    92    1
   209    93    94    2
   210    96    94    1
   211    94    95    1
