@<TRIPOS>MOLECULE
tmp/4ua4B00.pdb
 126 123 0 0 0
SMALL
GASTEIGER

@<TRIPOS>ATOM
      1  N        -29.5300  -15.1680  -35.8310 N.3    31  PHE31      -0.1241
      2  CA       -28.0930  -15.1150  -36.0600 C.3    31  PHE31       0.1605
      3  C        -27.8150  -15.6760  -37.4400 C.2    31  PHE31       0.2264
      4  O        -28.1550  -16.8250  -37.7260 O.2    31  PHE31      -0.2867
      5  CB       -27.3100  -15.9060  -35.0030 C.3    31  PHE31       0.0534
      6  CG       -25.8180  -15.8770  -35.2120 C.ar   31  PHE31      -0.0203
      7  CD1      -25.1800  -16.8740  -35.9550 C.ar   31  PHE31      -0.0042
      8  CD2      -25.0460  -14.8500  -34.6750 C.ar   31  PHE31      -0.0042
      9  CE1      -23.8070  -16.8460  -36.1540 C.ar   31  PHE31      -0.0003
     10  CE2      -23.6730  -14.8190  -34.8710 C.ar   31  PHE31      -0.0003
     11  CZ       -23.0540  -15.8170  -35.6110 C.ar   31  PHE31      -0.0000
     12  N        -32.1700  -19.2790  -33.3900 N.3    36  TYR36      -0.1241
     13  CA       -31.6370  -20.3130  -32.5130 C.3    36  TYR36       0.1605
     14  C        -32.1590  -20.1360  -31.1030 C.2    36  TYR36       0.2264
     15  O        -32.3770  -18.9990  -30.6610 O.2    36  TYR36      -0.2867
     16  CB       -30.1090  -20.2230  -32.4550 C.3    36  TYR36       0.0534
     17  CG       -29.4430  -20.4780  -33.7810 C.ar   36  TYR36      -0.0201
     18  CD1      -29.2190  -19.4330  -34.6800 C.ar   36  TYR36      -0.0009
     19  CD2      -29.0520  -21.7680  -34.1500 C.ar   36  TYR36      -0.0009
     20  CE1      -28.6180  -19.6660  -35.9060 C.ar   36  TYR36       0.0417
     21  CE2      -28.4510  -22.0100  -35.3790 C.ar   36  TYR36       0.0417
     22  CZ       -28.2410  -20.9550  -36.2470 C.ar   36  TYR36       0.1957
     23  OH       -27.6350  -21.1940  -37.4580 O.3    36  TYR36      -0.2866
     24  N        -29.7730  -13.2580  -24.1450 N.3    56  TRP56      -0.1241
     25  CA       -29.2950  -12.9450  -25.5000 C.3    56  TRP56       0.1605
     26  C        -29.8950  -11.6540  -26.0170 C.2    56  TRP56       0.2264
     27  O        -30.6670  -11.6300  -26.9890 O.2    56  TRP56      -0.2867
     28  CB       -29.5320  -14.1210  -26.4470 C.3    56  TRP56       0.0550
     29  CG       -28.7170  -14.1170  -27.7100 C.ar   56  TRP56       0.0003
     30  CD1      -27.9170  -13.1010  -28.2240 C.ar   56  TRP56       0.0946
     31  CD2      -28.6400  -15.2020  -28.6750 C.ar   56  TRP56       0.0152
     32  NE1      -27.3580  -13.4840  -29.4190 N.ar   56  TRP56      -0.2442
     33  CE2      -27.7560  -14.7420  -29.7420 C.ar   56  TRP56       0.0810
     34  CE3      -29.2040  -16.4740  -28.7580 C.ar   56  TRP56       0.0012
     35  CZ2      -27.4650  -15.5420  -30.8450 C.ar   56  TRP56       0.0191
     36  CZ3      -28.9100  -17.2660  -29.8680 C.ar   56  TRP56       0.0001
     37  CH2      -28.0520  -16.8150  -30.8800 C.ar   56  TRP56       0.0015
     38  N        -19.3350  -16.8260  -20.5620 N.3    83  HIS83      -0.1241
     39  CA       -18.2730  -16.3780  -21.4890 C.3    83  HIS83       0.1621
     40  C        -18.6620  -15.0670  -22.1150 C.2    83  HIS83       0.2264
     41  O        -19.7160  -14.5250  -21.7880 O.2    83  HIS83      -0.2867
     42  CB       -17.8150  -17.4490  -22.5050 C.3    83  HIS83       0.0745
     43  CG       -18.8370  -17.8140  -23.5660 C.ar   83  HIS83       0.0817
     44  ND1      -19.8540  -18.6730  -23.3390 N.ar   83  HIS83      -0.2268
     45  CD2      -18.9020  -17.4810  -24.9170 C.ar   83  HIS83       0.1154
     46  CE1      -20.5690  -18.8340  -24.4640 C.ar   83  HIS83       0.1986
     47  NE2      -19.9860  -18.1100  -25.4380 N.ar   83  HIS83      -0.2212
     48  N        -19.4780  -13.9200  -25.1890 N.3    85  HIS85      -0.1241
     49  CA       -20.3760  -13.7580  -26.3400 C.3    85  HIS85       0.1621
     50  C        -21.6960  -13.1200  -25.9590 C.2    85  HIS85       0.2264
     51  O        -22.1090  -13.1640  -24.7880 O.2    85  HIS85      -0.2867
     52  CB       -20.6200  -15.1030  -27.0310 C.3    85  HIS85       0.0745
     53  CG       -19.4270  -15.6310  -27.8000 C.ar   85  HIS85       0.0817
     54  ND1      -19.2730  -16.9520  -28.1200 N.ar   85  HIS85      -0.2268
     55  CD2      -18.3140  -14.9720  -28.3160 C.ar   85  HIS85       0.1154
     56  CE1      -18.1230  -17.1060  -28.8050 C.ar   85  HIS85       0.1986
     57  NE2      -17.5420  -15.9000  -28.9340 N.ar   85  HIS85      -0.2212
     58  N        -24.8050  -13.9360  -26.3590 N.3    87  ASP87      -0.1239
     59  CA       -25.8400  -14.7800  -25.7680 C.3    87  ASP87       0.1674
     60  C        -25.6450  -14.9770  -24.2610 C.2    87  ASP87       0.2266
     61  O        -26.5370  -15.4940  -23.5900 O.2    87  ASP87      -0.2867
     62  CB       -25.9870  -16.1130  -26.5280 C.3    87  ASP87       0.1410
     63  CG       -24.7520  -17.0000  -26.4480 C.2    87  ASP87       0.3668
     64  OD1      -23.6070  -16.4890  -26.4070 O.co2  87  ASP87      -0.2456
     65  OD2      -24.9410  -18.2380  -26.4400 O.co2  87  ASP87      -0.2456
     66  N        -15.0190  -23.9200  -26.2600 N.3   148  HIS148     -0.1241
     67  CA       -15.7780  -23.0440  -27.1480 C.3   148  HIS148      0.1621
     68  C        -15.1700  -21.6520  -27.2030 C.2   148  HIS148      0.2264
     69  O        -15.1430  -21.0160  -28.2610 O.2   148  HIS148     -0.2867
     70  CB       -17.2280  -23.0310  -26.6710 C.3   148  HIS148      0.0745
     71  CG       -18.0760  -21.9540  -27.2810 C.ar  148  HIS148      0.0817
     72  ND1      -18.7080  -22.1010  -28.4640 N.ar  148  HIS148     -0.2268
     73  CD2      -18.4120  -20.6880  -26.8080 C.ar  148  HIS148      0.1154
     74  CE1      -19.4010  -20.9820  -28.7420 C.ar  148  HIS148      0.1986
     75  NE2      -19.2150  -20.1120  -27.7310 N.ar  148  HIS148     -0.2212
     76  N        -21.8770  -23.0280  -23.4650 N.3   167  CYS167     -0.1235
     77  CA       -21.6750  -23.2670  -24.8890 C.3   167  CYS167      0.1677
     78  C        -20.4950  -24.1890  -25.2080 C.2   167  CYS167      0.2270
     79  O        -20.2820  -24.5430  -26.3630 O.2   167  CYS167     -0.2867
     80  CB       -21.6550  -21.9370  -25.6270 C.3   167  CYS167      0.0956
     81  SG       -23.1700  -21.0260  -25.1870 S.3   167  CYS167     -0.0801
     82  N        -22.4250  -29.2980  -26.3850 N.3   170  TYR170     -0.1241
     83  CA       -23.4290  -29.3440  -27.4500 C.3   170  TYR170      0.1605
     84  C        -24.5920  -30.2900  -27.1200 C.2   170  TYR170      0.2264
     85  O        -24.3950  -31.3340  -26.4850 O.2   170  TYR170     -0.2867
     86  CB       -22.7820  -29.8270  -28.7570 C.3   170  TYR170      0.0534
     87  CG       -21.7980  -28.8930  -29.4460 C.ar  170  TYR170     -0.0201
     88  CD1      -21.8410  -27.5070  -29.2710 C.ar  170  TYR170     -0.0009
     89  CD2      -20.8530  -29.4070  -30.3300 C.ar  170  TYR170     -0.0009
     90  CE1      -20.9510  -26.6710  -29.9340 C.ar  170  TYR170      0.0417
     91  CE2      -19.9660  -28.5760  -30.9960 C.ar  170  TYR170      0.0417
     92  CZ       -20.0210  -27.2120  -30.7990 C.ar  170  TYR170      0.1957
     93  OH       -19.1410  -26.4030  -31.4770 O.3   170  TYR170     -0.2866
     94  N        -27.0640  -32.0170  -32.2750 N.3   174  ARG174     -0.1245
     95  CA       -26.0810  -31.2560  -33.0300 C.3   174  ARG174      0.1563
     96  C        -24.9480  -32.1790  -33.4650 C.2   174  ARG174      0.2260
     97  O        -24.2460  -32.7340  -32.6290 O.2   174  ARG174     -0.2867
     98  CB       -25.5380  -30.1280  -32.1600 C.3   174  ARG174      0.0307
     99  CG       -24.6600  -29.1370  -32.8920 C.3   174  ARG174      0.0489
    100  CD       -24.2340  -28.0470  -31.9360 C.3   174  ARG174      0.2205
    101  NE       -23.7370  -26.8780  -32.6400 N.pl3 174  ARG174     -0.0865
    102  CZ       -23.6390  -25.6770  -32.0860 C.cat 174  ARG174      0.5346
    103  NH1      -24.0080  -25.4970  -30.8260 N.pl3 174  ARG174      0.1354
    104  NH2      -23.1830  -24.6580  -32.7920 N.pl3 174  ARG174      0.1354
    105  N        -20.1010  -25.8420  -34.2330 N.3   178  GLY178     -0.1210
    106  CA       -20.7100  -24.5500  -34.4990 C.3   178  GLY178      0.1956
    107  C        -19.6590  -23.4990  -34.7600 C.2   178  GLY178      0.2611
    108  O        -18.6720  -23.7490  -35.4640 O.2   178  GLY178     -0.2717
    109  N        -19.8810  -22.3200  -34.1830 N.am  179  ASN179     -0.1974
    110  CA       -18.9330  -21.2230  -34.2620 C.3   179  ASN179      0.1688
    111  C        -17.6580  -21.5930  -33.5200 C.2   179  ASN179      0.2292
    112  O        -17.6610  -21.7510  -32.2970 O.2   179  ASN179     -0.2864
    113  CB       -19.5460  -19.9440  -33.6800 C.3   179  ASN179      0.1181
    114  CG       -18.6020  -18.7550  -33.7430 C.2   179  ASN179      0.2629
    115  OD1      -17.8230  -18.6100  -34.6870 O.2   179  ASN179     -0.2716
    116  ND2      -18.6760  -17.8900  -32.7360 N.am  179  ASN179     -0.0877
    117  N        -27.1860  -24.3600  -25.8770 N.3   209  HIS209     -0.1241
    118  CA       -28.2460  -24.2620  -26.8750 C.3   209  HIS209      0.1621
    119  C        -28.8980  -25.6050  -27.0560 C.2   209  HIS209      0.2264
    120  O        -28.2170  -26.5990  -27.3290 O.2   209  HIS209     -0.2867
    121  CB       -27.6730  -23.7510  -28.2040 C.3   209  HIS209      0.0745
    122  CG       -26.9410  -22.4330  -28.0760 C.ar  209  HIS209      0.0817
    123  ND1      -27.5730  -21.2470  -28.1690 N.ar  209  HIS209     -0.2268
    124  CD2      -25.5990  -22.1430  -27.8060 C.ar  209  HIS209      0.1154
    125  CE1      -26.6810  -20.2510  -27.9910 C.ar  209  HIS209      0.1986
    126  NE2      -25.4800  -20.8000  -27.7540 N.ar  209  HIS209     -0.2212
@<TRIPOS>BOND
     1     4     3    2
     2    23    22    1
     3     3     2    1
     4    22    20   ar
     5    22    21   ar
     6     9     7   ar
     7     9    11   ar
     8     2     1    1
     9     2     5    1
    10     7     6   ar
    11    20    18   ar
    12    11    10   ar
    13   108   107    2
    14    21    19   ar
    15     6     5    1
    16     6     8   ar
    17    10     8   ar
    18   107   106    1
    19   107   109   am
    20   115   114    2
    21    18    17   ar
    22   106   105    1
    23   110   109    1
    24   110   113    1
    25   110   111    1
    26    19    17   ar
    27    17    16    1
    28   114   113    1
    29   114   116   am
    30   111   112    2
    31    96    95    1
    32    96    97    2
    33    12    13    1
    34    95    94    1
    35    95    98    1
    36    99    98    1
    37    99   100    1
    38   104   102    1
    39   101   102    2
    40   101   100    1
    41    13    16    1
    42    13    14    1
    43   102   103    1
    44    93    92    1
    45    14    15    2
    46    91    92   ar
    47    91    89   ar
    48    37    35   ar
    49    37    36   ar
    50    35    33   ar
    51    92    90   ar
    52    89    87   ar
    53    90    88   ar
    54    36    34   ar
    55    33    32   ar
    56    33    31   ar
    57    87    88   ar
    58    87    86    1
    59    32    30   ar
    60    57    56   ar
    61    57    55   ar
    62    56    54   ar
    63    34    31   ar
    64    86    83    1
    65    74    72   ar
    66    74    75   ar
    67    31    29   ar
    68    72    71   ar
    69    55    53   ar
    70    69    68    2
    71    30    29   ar
    72   121   122    1
    73   121   118    1
    74   123   122   ar
    75   123   125   ar
    76    54    53   ar
    77   122   124   ar
    78   125   126   ar
    79   124   126   ar
    80    53    52    1
    81    75    73   ar
    82    29    28    1
    83    83    84    1
    84    83    82    1
    85   120   119    2
    86    71    73   ar
    87    71    70    1
    88    68    67    1
    89    67    70    1
    90    67    66    1
    91    84    85    2
    92   119   118    1
    93    52    49    1
    94    27    26    2
    95   118   117    1
    96    62    63    1
    97    62    59    1
    98    63    65   ar
    99    63    64   ar
   100    28    25    1
   101    79    78    2
   102    58    59    1
   103    49    50    1
   104    49    48    1
   105    26    25    1
   106    50    51    2
   107    59    60    1
   108    80    81    1
   109    80    77    1
   110    25    24    1
   111    47    45   ar
   112    47    46   ar
   113    78    77    1
   114    45    43   ar
   115    77    76    1
   116    46    44   ar
   117    60    61    2
   118    43    44   ar
   119    43    42    1
   120    42    39    1
   121    40    41    2
   122    40    39    1
   123    39    38    1
