@<TRIPOS>MOLECULE
tmp/4ua4A01.pdb
 120 118 0 0 0
SMALL
GASTEIGER

@<TRIPOS>ATOM
      1  N         -4.2230    3.8130  -29.3320 N.3    33  PHE33      -0.1241
      2  CA        -5.1030    2.8980  -28.6280 C.3    33  PHE33       0.1605
      3  C         -6.4490    2.9120  -29.3470 C.2    33  PHE33       0.2264
      4  O         -7.0020    3.9810  -29.5940 O.2    33  PHE33      -0.2867
      5  CB        -5.2850    3.3260  -27.1650 C.3    33  PHE33       0.0534
      6  CG        -6.2080    2.4260  -26.3940 C.ar   33  PHE33      -0.0203
      7  CD1       -5.7490    1.2210  -25.8750 C.ar   33  PHE33      -0.0042
      8  CD2       -7.5450    2.7670  -26.2120 C.ar   33  PHE33      -0.0042
      9  CE1       -6.6010    0.3810  -25.1780 C.ar   33  PHE33      -0.0003
     10  CE2       -8.4030    1.9280  -25.5190 C.ar   33  PHE33      -0.0003
     11  CZ        -7.9310    0.7330  -25.0040 C.ar   33  PHE33      -0.0000
     12  N          3.9280    5.1260  -21.0680 N.3    58  TRP58      -0.1241
     13  CA         3.0810    4.3060  -21.9580 C.3    58  TRP58       0.1605
     14  C          3.8660    3.6920  -23.0970 C.2    58  TRP58       0.2264
     15  O          3.6360    3.9740  -24.2870 O.2    58  TRP58      -0.2867
     16  CB         1.8830    5.1130  -22.4510 C.3    58  TRP58       0.0550
     17  CG         0.7080    4.3220  -22.9550 C.ar   58  TRP58       0.0003
     18  CD1        0.6010    2.9430  -23.1590 C.ar   58  TRP58       0.0946
     19  CD2       -0.5740    4.8760  -23.3770 C.ar   58  TRP58       0.0152
     20  NE1       -0.6390    2.6230  -23.6570 N.ar   58  TRP58      -0.2442
     21  CE2       -1.3940    3.7440  -23.8060 C.ar   58  TRP58       0.0810
     22  CE3       -1.1100    6.1600  -23.4290 C.ar   58  TRP58       0.0012
     23  CZ2       -2.6890    3.9160  -24.2730 C.ar   58  TRP58       0.0191
     24  CZ3       -2.4100    6.3160  -23.9050 C.ar   58  TRP58       0.0001
     25  CH2       -3.1770    5.2190  -24.3190 C.ar   58  TRP58       0.0015
     26  N         -1.9070   -1.4830  -12.9840 N.3    86  PHE86      -0.1227
     27  CA        -1.2270   -2.4780  -13.8250 C.3    86  PHE86       0.1736
     28  C         -1.2720   -2.2560  -15.3360 C.2    86  PHE86       0.2595
     29  O         -0.6300   -3.0020  -16.0720 O.2    86  PHE86      -0.2718
     30  CB        -1.7390   -3.8850  -13.5090 C.3    86  PHE86       0.0547
     31  CG        -3.1030   -4.1970  -14.0680 C.ar   86  PHE86      -0.0202
     32  CD1       -4.2650   -3.8130  -13.3950 C.ar   86  PHE86      -0.0042
     33  CD2       -3.2230   -4.9220  -15.2550 C.ar   86  PHE86      -0.0042
     34  CE1       -5.5170   -4.1410  -13.9070 C.ar   86  PHE86      -0.0003
     35  CE2       -4.4650   -5.2560  -15.7680 C.ar   86  PHE86      -0.0003
     36  CZ        -5.6160   -4.8640  -15.0970 C.ar   86  PHE86      -0.0000
     37  N         -2.0430   -1.2710  -15.7950 N.am   87  HIS87      -0.1961
     38  CA        -2.2170   -1.0470  -17.2320 C.3    87  HIS87       0.1787
     39  C         -0.9430   -0.6050  -17.9060 C.2    87  HIS87       0.2620
     40  O         -0.0350   -0.0590  -17.2730 O.2    87  HIS87      -0.2715
     41  CB        -3.3220   -0.0250  -17.4820 C.3    87  HIS87       0.0785
     42  CG        -4.7170   -0.5430  -17.2240 C.ar   87  HIS87       0.0821
     43  ND1       -5.7920    0.2850  -17.0450 N.ar   87  HIS87      -0.2267
     44  CD2       -5.2080   -1.8450  -17.1470 C.ar   87  HIS87       0.1154
     45  CE1       -6.8970   -0.4680  -16.8740 C.ar   87  HIS87       0.1986
     46  NE2       -6.5430   -1.7620  -16.9350 N.ar   87  HIS87      -0.2212
     47  N         -0.8630   -0.8380  -19.2140 N.am   88  ASP88      -0.1957
     48  CA         0.3350   -0.5360  -20.0050 C.3    88  ASP88       0.1840
     49  C          0.7380    0.9490  -19.9900 C.2    88  ASP88       0.2622
     50  O          1.9130    1.2740  -20.1690 O.2    88  ASP88      -0.2715
     51  CB         0.1080   -1.0210  -21.4430 C.3    88  ASP88       0.1450
     52  CG         1.3620   -1.0040  -22.2900 C.2    88  ASP88       0.3671
     53  OD1        1.2870   -0.4870  -23.4260 O.co2  88  ASP88      -0.2456
     54  OD2        2.4030   -1.5290  -21.8530 O.co2  88  ASP88      -0.2456
     55  N         -0.2230    1.8500  -19.7820 N.am   89  ASP89      -0.1971
     56  CA         0.1180    3.2690  -19.6780 C.3    89  ASP89       0.1709
     57  C          0.8390    3.6320  -18.3680 C.2    89  ASP89       0.2293
     58  O          1.3890    4.7280  -18.2420 O.2    89  ASP89      -0.2864
     59  CB        -1.1020    4.1660  -19.9260 C.3    89  ASP89       0.1436
     60  CG        -2.1900    4.0170  -18.8710 C.2    89  ASP89       0.3671
     61  OD1       -2.4080    2.9050  -18.3560 O.co2  89  ASP89      -0.2456
     62  OD2       -2.8470    5.0300  -18.5650 O.co2  89  ASP89      -0.2456
     63  N         -1.8670  -10.0950  -17.0020 N.3   117  GLU117     -0.1245
     64  CA        -2.1250   -9.4430  -18.2900 C.3   117  GLU117      0.1567
     65  C         -1.0230   -9.6720  -19.3330 C.2   117  GLU117      0.2260
     66  O         -1.2470   -9.4610  -20.5250 O.2   117  GLU117     -0.2867
     67  CB        -2.3120   -7.9320  -18.0920 C.3   117  GLU117      0.0388
     68  CG        -3.0910   -7.2410  -19.2050 C.3   117  GLU117      0.1160
     69  CD        -4.5540   -7.6630  -19.2450 C.2   117  GLU117      0.3649
     70  OE1       -5.1360   -7.9050  -18.1710 O.co2 117  GLU117     -0.2457
     71  OE2       -5.1330   -7.7500  -20.3440 O.co2 117  GLU117     -0.2457
     72  N          1.7360   -7.8600  -19.0050 N.3   119  ASN119     -0.1240
     73  CA         2.4150   -6.5690  -18.9930 C.3   119  ASN119      0.1653
     74  C          3.7350   -6.6580  -18.2250 C.2   119  ASN119      0.2266
     75  O          4.0020   -7.6510  -17.5390 O.2   119  ASN119     -0.2867
     76  CB         1.5180   -5.4930  -18.3550 C.3   119  ASN119      0.1155
     77  CG         0.2860   -5.1780  -19.1860 C.2   119  ASN119      0.2627
     78  OD1        0.1700   -5.5810  -20.3460 O.2   119  ASN119     -0.2716
     79  ND2       -0.6450   -4.4480  -18.5910 N.am  119  ASN119     -0.0877
     80  N        -11.1980    2.7600  -11.1310 N.3   150  HIS150     -0.1241
     81  CA       -10.7970    2.4210  -12.4950 C.3   150  HIS150      0.1621
     82  C        -10.2620    1.0030  -12.5910 C.2   150  HIS150      0.2264
     83  O        -10.5000    0.2970  -13.5680 O.2   150  HIS150     -0.2867
     84  CB        -9.7830    3.4670  -12.9490 C.3   150  HIS150      0.0745
     85  CG        -9.0550    3.1460  -14.2390 C.ar  150  HIS150      0.0817
     86  ND1       -9.5680    3.4090  -15.4690 N.ar  150  HIS150     -0.2268
     87  CD2       -7.7860    2.6310  -14.4460 C.ar  150  HIS150      0.1154
     88  CE1       -8.6710    3.0490  -16.4120 C.ar  150  HIS150      0.1986
     89  NE2       -7.5760    2.5750  -15.7870 N.ar  150  HIS150     -0.2212
     90  N        -12.3000    2.8560  -20.4330 N.3   181  ASN181     -0.1240
     91  CA       -12.2730    1.4040  -20.2870 C.3   181  ASN181      0.1653
     92  C        -12.7740    1.0040  -18.9100 C.2   181  ASN181      0.2266
     93  O        -12.3630    1.5830  -17.8960 O.2   181  ASN181     -0.2867
     94  CB       -10.8590    0.8700  -20.4850 C.3   181  ASN181      0.1155
     95  CG       -10.3230    1.1540  -21.8690 C.2   181  ASN181      0.2627
     96  OD1       -9.5340    2.0870  -22.0700 O.2   181  ASN181     -0.2716
     97  ND2      -10.7460    0.3510  -22.8390 N.am  181  ASN181     -0.0877
     98  N        -13.5260   -2.6850  -18.1520 N.3   183  ALA183     -0.1231
     99  CA       -13.4210   -4.1290  -17.8790 C.3   183  ALA183      0.1694
    100  C        -12.7450   -4.4390  -16.5450 C.2   183  ALA183      0.2592
    101  O        -13.0160   -5.4750  -15.9470 O.2   183  ALA183     -0.2718
    102  CB       -12.7110   -4.8600  -19.0080 C.3   183  ALA183      0.0304
    103  N        -11.8640   -3.5450  -16.0940 N.am  184  ASP184     -0.1974
    104  CA       -11.1300   -3.7200  -14.8480 C.3   184  ASP184      0.1709
    105  C        -11.7400   -2.9300  -13.6980 C.2   184  ASP184      0.2293
    106  O        -11.2760   -3.0270  -12.5580 O.2   184  ASP184     -0.2864
    107  CB        -9.6730   -3.3090  -15.0570 C.3   184  ASP184      0.1436
    108  CG        -8.9630   -4.2040  -16.0440 C.2   184  ASP184      0.3671
    109  OD1       -9.0400   -5.4290  -15.8520 O.co2 184  ASP184     -0.2456
    110  OD2       -8.3540   -3.7030  -17.0140 O.co2 184  ASP184     -0.2456
    111  N         -5.2490   11.0240  -17.6450 N.3   211  HIS211     -0.1241
    112  CA        -5.2870   11.4250  -19.0510 C.3   211  HIS211      0.1621
    113  C         -5.9430   12.7730  -19.1710 C.2   211  HIS211      0.2264
    114  O         -7.0660   12.9790  -18.6930 O.2   211  HIS211     -0.2867
    115  CB        -6.0260   10.3780  -19.9010 C.3   211  HIS211      0.0745
    116  CG        -5.4850    8.9760  -19.7310 C.ar  211  HIS211      0.0817
    117  ND1       -4.5110    8.4780  -20.5170 N.ar  211  HIS211     -0.2268
    118  CD2       -5.7890    7.9770  -18.8060 C.ar  211  HIS211      0.1154
    119  CE1       -4.2030    7.2310  -20.1200 C.ar  211  HIS211      0.1986
    120  NE2       -4.9860    6.9180  -19.0740 N.ar  211  HIS211     -0.2212
@<TRIPOS>BOND
     1     4     3    2
     2     3     2    1
     3     1     2    1
     4     2     5    1
     5     5     6    1
     6     6     8   ar
     7     6     7   ar
     8     8    10   ar
     9     7     9   ar
    10    10    11   ar
    11     9    11   ar
    12    25    23   ar
    13    25    24   ar
    14    15    14    2
    15    23    21   ar
    16    24    22   ar
    17    21    20   ar
    18    21    19   ar
    19    20    18   ar
    20    22    19   ar
    21    53    52   ar
    22    19    17   ar
    23    18    17   ar
    24    14    13    1
    25    17    16    1
    26    97    95   am
    27    16    13    1
    28    52    54   ar
    29    52    51    1
    30    96    95    2
    31    13    12    1
    32    95    94    1
    33    51    48    1
    34    66    65    2
    35   117   119   ar
    36   117   116   ar
    37    94    91    1
    38    90    91    1
    39    78    77    2
    40    71    69   ar
    41    91    92    1
    42    50    49    2
    43   119   120   ar
    44    48    49    1
    45    48    47    1
    46    49    55   am
    47    59    56    1
    48    59    60    1
    49   115   116    1
    50   115   112    1
    51    55    56    1
    52   116   118   ar
    53    56    57    1
    54    65    64    1
    55    69    68    1
    56    69    70   ar
    57    47    39   am
    58    68    67    1
    59    77    79   am
    60    77    76    1
    61   113   112    1
    62   113   114    2
    63   120   118   ar
    64   112   111    1
    65   102    99    1
    66    72    73    1
    67    73    76    1
    68    73    74    1
    69    92    93    2
    70    60    62   ar
    71    60    61   ar
    72    57    58    2
    73    64    67    1
    74    64    63    1
    75    74    75    2
    76    98    99    1
    77    39    40    2
    78    39    38    1
    79    99   100    1
    80    41    38    1
    81    41    42    1
    82    38    37    1
    83    42    44   ar
    84    42    43   ar
    85    44    46   ar
    86    43    45   ar
    87   110   108   ar
    88    46    45   ar
    89   100   103   am
    90   100   101    2
    91    88    89   ar
    92    88    86   ar
    93   103   104    1
    94    29    28    2
    95   108   109   ar
    96   108   107    1
    97    37    28   am
    98    89    87   ar
    99    35    33   ar
   100    35    36   ar
   101    86    85   ar
   102    28    27    1
   103    33    31   ar
   104    36    34   ar
   105   107   104    1
   106   104   105    1
   107    87    85   ar
   108    85    84    1
   109    31    30    1
   110    31    32   ar
   111    34    32   ar
   112    27    30    1
   113    27    26    1
   114   105   106    2
   115    83    82    2
   116    84    81    1
   117    82    81    1
   118    81    80    1
