@<TRIPOS>MOLECULE
tmp/4ua8A00.pdb
 187 182 0 0 0
SMALL
GASTEIGER

@<TRIPOS>ATOM
      1  N        -38.0630   13.8130   -8.8260 N.3    10  PRO10      -0.2116
      2  CA       -38.0740   12.3720   -9.0780 C.3    10  PRO10       0.1372
      3  C        -39.4520   11.8430   -9.4240 C.2    10  PRO10       0.2244
      4  O        -40.4680   12.4410   -9.0940 O.2    10  PRO10      -0.2868
      5  CB       -37.5700   11.7930   -7.7630 C.3    10  PRO10       0.0268
      6  CG       -37.9370   12.8300   -6.7320 C.3    10  PRO10       0.0207
      7  CD       -37.7380   14.1250   -7.4220 C.3    10  PRO10       0.0892
      8  N        -41.2330    9.5630   -8.1770 N.3    12  GLU12      -0.1245
      9  CA       -42.1320    9.3370   -7.0450 C.3    12  GLU12       0.1567
     10  C        -42.9140   10.5790   -6.6350 C.2    12  GLU12       0.2260
     11  O        -44.0170   10.4720   -6.1250 O.2    12  GLU12      -0.2867
     12  CB       -41.3340    8.8180   -5.8560 C.3    12  GLU12       0.0388
     13  CG       -40.7130    7.4370   -6.0730 C.3    12  GLU12       0.1160
     14  CD       -39.3390    7.4360   -6.7120 C.2    12  GLU12       0.3649
     15  OE1      -38.8010    8.4930   -7.1380 O.co2  12  GLU12      -0.2457
     16  OE2      -38.7680    6.3120   -6.7760 O.co2  12  GLU12      -0.2457
     17  N        -34.1670   11.8490  -11.1090 N.3    46  SER46      -0.1202
     18  CA       -33.7580   11.6250   -9.7290 C.3    46  SER46       0.2020
     19  C        -32.8420   12.7300   -9.2460 C.2    46  SER46       0.2619
     20  O        -31.9850   13.2020   -9.9810 O.2    46  SER46      -0.2717
     21  CB       -32.9970   10.3040   -9.6170 C.3    46  SER46       0.2103
     22  OG       -32.4360   10.1290   -8.3220 O.3    46  SER46      -0.2182
     23  N        -32.9670   13.0880   -7.9730 N.am   47  GLU47      -0.1965
     24  CA       -32.0120   14.0100   -7.3880 C.3    47  GLU47       0.1733
     25  C        -30.5590   13.5210   -7.5380 C.2    47  GLU47       0.2617
     26  O        -29.6320   14.3200   -7.5480 O.2    47  GLU47      -0.2715
     27  CB       -32.3260   14.2140   -5.8920 C.3    47  GLU47       0.0429
     28  CG       -33.7240   14.7520   -5.5950 C.3    47  GLU47       0.1163
     29  CD       -34.7030   13.6520   -5.1820 C.2    47  GLU47       0.3649
     30  OE1      -34.6790   12.6020   -5.8300 O.co2  47  GLU47      -0.2457
     31  OE2      -35.4880   13.8530   -4.2170 O.co2  47  GLU47      -0.2457
     32  N        -30.3600   12.2140   -7.6020 N.am   48  SER48      -0.1950
     33  CA       -29.0190   11.6600   -7.7130 C.3    48  SER48       0.1924
     34  C        -28.3590   11.9850   -9.0450 C.2    48  SER48       0.2314
     35  O        -27.1340   11.9820   -9.1460 O.2    48  SER48      -0.2863
     36  CB       -29.0470   10.1440   -7.5190 C.3    48  SER48       0.2116
     37  OG       -29.5970    9.4940   -8.6430 O.3    48  SER48      -0.2180
     38  N        -26.7500   16.7130  -11.1360 N.3    51  LYS51      -0.1231
     39  CA       -25.5090   17.3130  -11.6300 C.3    51  LYS51       0.1693
     40  C        -25.3820   17.0740  -13.1190 C.2    51  LYS51       0.2592
     41  O        -25.1480   18.0120  -13.8950 O.2    51  LYS51      -0.2718
     42  CB       -24.2490   16.7660  -10.9400 C.3    51  LYS51       0.0285
     43  CG       -22.9340   17.3440  -11.5220 C.3    51  LYS51       0.0035
     44  CD       -21.7060   16.7650  -10.8320 C.3    51  LYS51       0.0206
     45  CE       -21.1340   15.6020  -11.5880 C.3    51  LYS51       0.1093
     46  NZ       -19.6780   15.4020  -11.2220 N.3    51  LYS51      -0.1314
     47  N        -25.5220   15.8150  -13.5160 N.am   52  ASP52      -0.1974
     48  CA       -25.3050   15.4510  -14.8970 C.3    52  ASP52       0.1709
     49  C        -26.3290   16.1270  -15.8110 C.2    52  ASP52       0.2293
     50  O        -25.9870   16.6770  -16.8630 O.2    52  ASP52      -0.2864
     51  CB       -25.3850   13.9320  -15.0320 C.3    52  ASP52       0.1436
     52  CG       -24.3830   13.2230  -14.1370 C.2    52  ASP52       0.3671
     53  OD1      -23.2390   13.7200  -14.0150 O.co2  52  ASP52      -0.2456
     54  OD2      -24.7360   12.1810  -13.5570 O.co2  52  ASP52      -0.2456
     55  N        -29.3120   16.6550   -4.8740 N.3    68  ALA68      -0.1245
     56  CA       -28.5850   16.2380   -3.6780 C.3    68  ALA68       0.1562
     57  C        -27.3990   17.1670   -3.4290 C.2    68  ALA68       0.2260
     58  O        -26.6650   17.5360   -4.3550 O.2    68  ALA68      -0.2867
     59  CB       -28.1140   14.8250   -3.8280 C.3    68  ALA68       0.0290
     60  N        -24.4140   17.3350   -2.4010 N.3    70  ASP70      -0.1225
     61  CA       -23.0210   17.1310   -2.8120 C.3    70  ASP70       0.1805
     62  C        -22.7480   17.6160   -4.2230 C.2    70  ASP70       0.2597
     63  O        -21.5930   17.7670   -4.6420 O.2    70  ASP70      -0.2718
     64  CB       -22.6480   15.6580   -2.7300 C.3    70  ASP70       0.1424
     65  CG       -23.5290   14.7920   -3.6000 C.2    70  ASP70       0.3668
     66  OD1      -24.6590   14.4980   -3.1650 O.co2  70  ASP70      -0.2456
     67  OD2      -23.1070   14.4610   -4.7280 O.co2  70  ASP70      -0.2456
     68  N        -23.8090   17.8660   -4.9670 N.am   71  GLN71      -0.1979
     69  CA       -23.7040   18.4260   -6.3190 C.3    71  GLN71       0.1601
     70  C        -23.5730   19.9250   -6.3520 C.2    71  GLN71       0.2287
     71  O        -23.4200   20.5080   -7.4300 O.2    71  GLN71      -0.2864
     72  CB       -24.9400   18.0030   -7.1220 C.3    71  GLN71       0.0394
     73  CG       -25.0870   16.5010   -7.2360 C.3    71  GLN71       0.0908
     74  CD       -26.5070   16.0390   -7.4270 C.2    71  GLN71       0.2608
     75  OE1      -27.4340   16.8350   -7.5780 O.2    71  GLN71      -0.2717
     76  NE2      -26.7180   14.7550   -7.3790 N.am   71  GLN71      -0.0878
     77  N        -30.4360   13.8950    3.7810 N.3   118  ASN118     -0.1240
     78  CA       -30.0060   12.9150    2.8060 C.3   118  ASN118      0.1653
     79  C        -28.9700   12.0000    3.4230 C.2   118  ASN118      0.2266
     80  O        -27.8060   12.4090    3.6530 O.2   118  ASN118     -0.2867
     81  CB       -29.4360   13.5990    1.5670 C.3   118  ASN118      0.1155
     82  CG       -29.3630   12.6710    0.3730 C.2   118  ASN118      0.2627
     83  OD1      -30.2140   11.7840    0.2000 O.2   118  ASN118     -0.2716
     84  ND2      -28.3790   12.8980   -0.4650 N.am  118  ASN118     -0.0877
     85  N        -21.3330    1.5650   -4.9890 N.3   152  ASN152     -0.1225
     86  CA       -21.9060    2.9110   -4.8800 C.3   152  ASN152      0.1785
     87  C        -21.1250    3.6710   -3.8170 C.2   152  ASN152      0.2598
     88  O        -21.2090    3.3370   -2.6290 O.2   152  ASN152     -0.2718
     89  CB       -23.3800    2.8080   -4.5370 C.3   152  ASN152      0.1169
     90  CG       -24.0830    4.1220   -4.6190 C.2   152  ASN152      0.2627
     91  OD1      -23.5260    5.1670   -4.2540 O.2   152  ASN152     -0.2716
     92  ND2      -25.3010    4.0910   -5.1110 N.am  152  ASN152     -0.0877
     93  N        -20.3220    4.6460   -4.2300 N.am  153  GLY153     -0.1942
     94  CA       -19.4690    5.3500   -3.2890 C.3   153  GLY153      0.2014
     95  C        -20.1800    6.0270   -2.1370 C.2   153  GLY153      0.2639
     96  O        -19.5840    6.2350   -1.0750 O.2   153  GLY153     -0.2714
     97  N        -21.4410    6.3850   -2.3320 N.am  154  TRP154     -0.1959
     98  CA       -22.2030    7.0350   -1.2820 C.3   154  TRP154      0.1771
     99  C        -22.4500    6.1050   -0.0910 C.2   154  TRP154      0.2619
    100  O        -22.6790    6.5740    1.0190 O.2   154  TRP154     -0.2715
    101  CB       -23.5190    7.5550   -1.8730 C.3   154  TRP154      0.0590
    102  CG       -24.3090    8.4890   -1.0320 C.ar  154  TRP154      0.0006
    103  CD1      -23.9440    9.7470   -0.6030 C.ar  154  TRP154      0.0946
    104  CD2      -25.6130    8.2590   -0.5450 C.ar  154  TRP154      0.0152
    105  NE1      -24.9620   10.3030    0.1420 N.ar  154  TRP154     -0.2442
    106  CE2      -25.9990    9.4070    0.1970 C.ar  154  TRP154      0.0810
    107  CE3      -26.5110    7.1990   -0.6530 C.ar  154  TRP154      0.0012
    108  CZ2      -27.2480    9.5060    0.7990 C.ar  154  TRP154      0.0191
    109  CZ3      -27.7440    7.2960   -0.0510 C.ar  154  TRP154      0.0001
    110  CH2      -28.1140    8.4500    0.6560 C.ar  154  TRP154      0.0015
    111  N        -22.3470    4.7940   -0.3390 N.am  155  TYR155     -0.1974
    112  CA       -22.4210    3.7400    0.6810 C.3   155  TYR155      0.1639
    113  C        -21.0540    3.1770    1.0940 C.2   155  TYR155      0.2290
    114  O        -20.8280    2.8630    2.2470 O.2   155  TYR155     -0.2864
    115  CB       -23.2950    2.6050    0.1590 C.3   155  TYR155      0.0560
    116  CG       -24.7430    2.9590   -0.0880 C.ar  155  TYR155     -0.0198
    117  CD1      -25.7010    2.7680    0.9160 C.ar  155  TYR155     -0.0009
    118  CD2      -25.1770    3.4610   -1.3010 C.ar  155  TYR155     -0.0009
    119  CE1      -27.0210    3.0840    0.7120 C.ar  155  TYR155      0.0417
    120  CE2      -26.5220    3.7720   -1.5190 C.ar  155  TYR155      0.0417
    121  CZ       -27.4370    3.5810   -0.5060 C.ar  155  TYR155      0.1957
    122  OH       -28.7720    3.8670   -0.7020 O.3   155  TYR155     -0.2866
    123  N        -26.0340   -1.1010   -7.7630 N.3   206  ASN206     -0.1225
    124  CA       -25.7450    0.3040   -7.4920 C.3   206  ASN206      0.1785
    125  C        -26.9280    1.0770   -6.9550 C.2   206  ASN206      0.2597
    126  O        -26.7810    1.8450   -5.9820 O.2   206  ASN206     -0.2718
    127  CB       -25.2330    0.9450   -8.7670 C.3   206  ASN206      0.1169
    128  CG       -24.7030    2.3350   -8.5450 C.2   206  ASN206      0.2627
    129  OD1      -25.4000    3.3220   -8.7890 O.2   206  ASN206     -0.2716
    130  ND2      -23.4560    2.4300   -8.1200 N.am  206  ASN206     -0.0877
    131  N        -28.1010    0.8860   -7.5460 N.am  207  GLU207     -0.1979
    132  CA       -29.2570    1.6470   -7.0760 C.3   207  GLU207      0.1602
    133  C        -30.2600    0.8210   -6.2720 C.2   207  GLU207      0.2287
    134  O        -31.3450    1.2900   -5.9590 O.2   207  GLU207     -0.2864
    135  CB       -29.9130    2.3360   -8.2590 C.3   207  GLU207      0.0415
    136  CG       -29.0600    3.5390   -8.6640 C.3   207  GLU207      0.1163
    137  CD       -29.7190    4.4170   -9.6880 C.2   207  GLU207      0.3649
    138  OE1      -30.4770    3.8900  -10.5310 O.co2 207  GLU207     -0.2457
    139  OE2      -29.4760    5.6390   -9.6390 O.co2 207  GLU207     -0.2457
    140  N        -36.6070    7.1430    0.3260 N.3   228  TRP228     -0.1241
    141  CA       -37.3480    7.1640   -0.9330 C.3   228  TRP228      0.1605
    142  C        -37.9840    5.8120   -1.2690 C.2   228  TRP228      0.2264
    143  O        -38.9430    5.7530   -2.0440 O.2   228  TRP228     -0.2867
    144  CB       -36.4410    7.6150   -2.0790 C.3   228  TRP228      0.0550
    145  CG       -35.1920    6.8060   -2.1580 C.ar  228  TRP228      0.0003
    146  CD1      -35.0140    5.6870   -2.8940 C.ar  228  TRP228      0.0946
    147  CD2      -33.9650    7.0460   -1.4590 C.ar  228  TRP228      0.0152
    148  NE1      -33.7490    5.1850   -2.6860 N.ar  228  TRP228     -0.2442
    149  CE2      -33.0890    5.9920   -1.8000 C.ar  228  TRP228      0.0810
    150  CE3      -33.5170    8.0340   -0.5670 C.ar  228  TRP228      0.0012
    151  CZ2      -31.8000    5.9000   -1.2840 C.ar  228  TRP228      0.0191
    152  CZ3      -32.2280    7.9420   -0.0630 C.ar  228  TRP228      0.0001
    153  CH2      -31.3860    6.8790   -0.4230 C.ar  228  TRP228      0.0015
    154  N        -31.2220   16.8850    0.5680 N.3   266  LYS266     -0.1245
    155  CA       -31.7720   17.1320   -0.7570 C.3   266  LYS266      0.1561
    156  C        -32.4730   18.4820   -0.6970 C.2   266  LYS266      0.2260
    157  O        -33.1190   18.8100    0.2960 O.2   266  LYS266     -0.2867
    158  CB       -32.6990   16.0160   -1.1830 C.3   266  LYS266      0.0271
    159  CG       -31.9460   14.6900   -1.2780 C.3   266  LYS266      0.0035
    160  CD       -32.7330   13.6170   -2.0070 C.3   266  LYS266      0.0206
    161  CE       -33.9630   13.1590   -1.2340 C.3   266  LYS266      0.1093
    162  NZ       -34.7770   12.0950   -1.9160 N.3   266  LYS266     -0.1314
    163  N        -46.0570   10.5740    1.0510 N.3   300  ARG300     -0.1245
    164  CA       -45.1780    9.4560    0.7380 C.3   300  ARG300      0.1563
    165  C        -44.0780    9.1990    1.7720 C.2   300  ARG300      0.2260
    166  O        -43.0810    8.5180    1.5010 O.2   300  ARG300     -0.2867
    167  CB       -44.6240    9.6250   -0.6860 C.3   300  ARG300      0.0307
    168  CG       -43.8820   10.8810   -0.9670 C.3   300  ARG300      0.0489
    169  CD       -43.1550   10.8100   -2.3540 C.3   300  ARG300      0.2205
    170  NE       -42.1200    9.7680   -2.3420 N.pl3 300  ARG300     -0.0865
    171  CZ       -40.8640    9.9350   -2.7590 C.cat 300  ARG300      0.5346
    172  NH1      -40.4610   11.0970   -3.2270 N.pl3 300  ARG300      0.1354
    173  NH2      -40.0010    8.9190   -2.6760 N.pl3 300  ARG300      0.1354
    174  N        -16.6870    9.4730   -6.4630 N.3   344  TRP344     -0.1241
    175  CA       -17.8320    8.7470   -6.9720 C.3   344  TRP344      0.1605
    176  C        -17.4040    7.8980   -8.1650 C.2   344  TRP344      0.2264
    177  O        -17.8290    6.7600   -8.3080 O.2   344  TRP344     -0.2867
    178  CB       -18.9710    9.6730   -7.3980 C.3   344  TRP344      0.0550
    179  CG       -19.4110   10.7410   -6.4370 C.ar  344  TRP344      0.0003
    180  CD1      -19.5450   12.0620   -6.7260 C.ar  344  TRP344      0.0946
    181  CD2      -19.8210   10.5850   -5.0660 C.ar  344  TRP344      0.0152
    182  NE1      -19.9600   12.7620   -5.6150 N.ar  344  TRP344     -0.2442
    183  CE2      -20.1660   11.8760   -4.5910 C.ar  344  TRP344      0.0810
    184  CE3      -19.9120    9.5040   -4.1980 C.ar  344  TRP344      0.0012
    185  CZ2      -20.5860   12.1080   -3.2880 C.ar  344  TRP344      0.0191
    186  CZ3      -20.3290    9.7360   -2.9040 C.ar  344  TRP344      0.0001
    187  CH2      -20.6610   11.0340   -2.4580 C.ar  344  TRP344      0.0015
@<TRIPOS>BOND
     1    50    49    2
     2    49    48    1
     3    51    48    1
     4    51    52    1
     5    48    47    1
     6    52    53   ar
     7    52    54   ar
     8    41    40    2
     9    47    40   am
    10    40    39    1
    11    39    38    1
    12    39    42    1
    13    45    46    1
    14    45    44    1
    15    43    42    1
    16    43    44    1
    17    17    18    1
    18   138   137   ar
    19    20    19    2
    20    18    21    1
    21    18    19    1
    22   137   139   ar
    23   137   136    1
    24    21    22    1
    25     3     4    2
    26     3     2    1
    27    19    23   am
    28    35    34    2
    29     2     1    1
    30     2     5    1
    31    34    33    1
    32     1     7    1
    33   129   128    2
    34   127   128    1
    35   127   124    1
    36   136   135    1
    37    37    36    1
    38   128   130   am
    39   177   176    2
    40   135   132    1
    41     8     9    1
    42   176   175    1
    43    23    24    1
    44   123   124    1
    45     5     6    1
    46    33    32    1
    47    33    36    1
    48    32    25   am
    49    75    74    2
    50    26    25    2
    51   131   132    1
    52   131   125   am
    53    25    24    1
    54   124   125    1
    55    71    70    2
    56    74    76   am
    57    74    73    1
    58     7     6    1
    59   178   175    1
    60   178   179    1
    61    24    27    1
    62    73    72    1
    63    15    14   ar
    64    72    69    1
    65   132   133    1
    66     9    10    1
    67     9    12    1
    68   175   174    1
    69   125   126    2
    70    16    14   ar
    71   180   179   ar
    72   180   182   ar
    73    14    13    1
    74    10    11    2
    75   179   181   ar
    76    70    69    1
    77    69    68    1
    78   133   134    2
    79    13    12    1
    80    27    28    1
    81    30    29   ar
    82   182   183   ar
    83    28    29    1
    84    29    31   ar
    85    92    90   am
    86   181   183   ar
    87   181   184   ar
    88    85    86    1
    89    68    62   am
    90    86    89    1
    91    86    87    1
    92    55    56    1
    93    67    65   ar
    94    63    62    2
    95    90    89    1
    96    90    91    2
    97   183   185   ar
    98    58    57    2
    99    93    87   am
   100    93    94    1
   101    62    61    1
   102   184   186   ar
   103    59    56    1
   104    87    88    2
   105    56    57    1
   106    65    66   ar
   107    65    64    1
   108    94    95    1
   109   185   187   ar
   110   172   171    1
   111   186   187   ar
   112   146   148   ar
   113   146   145   ar
   114    61    64    1
   115    61    60    1
   116   171   173    1
   117   171   170    2
   118   148   149   ar
   119   169   170    1
   120   169   168    1
   121    97    95   am
   122    97    98    1
   123   145   144    1
   124   145   147   ar
   125    95    96    2
   126   144   141    1
   127   143   142    2
   128   160   159    1
   129   160   161    1
   130   162   161    1
   131   101    98    1
   132   101   102    1
   133   149   147   ar
   134   149   151   ar
   135   120   118   ar
   136   120   121   ar
   137   147   150   ar
   138   118   116   ar
   139   151   153   ar
   140    98    99    1
   141   159   158    1
   142   142   141    1
   143   158   155    1
   144   102   103   ar
   145   102   104   ar
   146   168   167    1
   147   141   140    1
   148   155   156    1
   149   155   154    1
   150   122   121    1
   151   156   157    2
   152   167   164    1
   153   107   104   ar
   154   107   109   ar
   155   103   105   ar
   156   150   152   ar
   157   104   106   ar
   158   121   119   ar
   159    84    82   am
   160   153   152   ar
   161   111    99   am
   162   111   112    1
   163    99   100    2
   164   116   115    1
   165   116   117   ar
   166   109   110   ar
   167   105   106   ar
   168   115   112    1
   169   106   108   ar
   170    83    82    2
   171    82    81    1
   172   110   108   ar
   173   112   113    1
   174   119   117   ar
   175   164   163    1
   176   164   165    1
   177   113   114    2
   178   166   165    2
   179    81    78    1
   180    78    79    1
   181    78    77    1
   182    79    80    2
