@<TRIPOS>MOLECULE
tmp/4uacA01.pdb
 91 86 0 0 0
SMALL
GASTEIGER

@<TRIPOS>ATOM
      1  N         18.1550   59.6220   17.7650 N.3   157  ASN157     -0.1240
      2  CA        17.2960   60.3590   16.8560 C.3   157  ASN157      0.1653
      3  C         17.5690   59.9890   15.4100 C.2   157  ASN157      0.2266
      4  O         16.6840   60.0800   14.5870 O.2   157  ASN157     -0.2867
      5  CB        17.4380   61.8830   17.0150 C.3   157  ASN157      0.1155
      6  CG        16.4330   62.6520   16.1340 C.2   157  ASN157      0.2627
      7  OD1       16.8050   63.4250   15.2250 O.2   157  ASN157     -0.2716
      8  ND2       15.1590   62.3970   16.3800 N.am  157  ASN157     -0.0877
      9  N         14.5920   60.1770   12.7180 N.3   161  ALA161     -0.1245
     10  CA        14.6960   61.1690   11.6400 C.3   161  ALA161      0.1562
     11  C         14.6780   60.4900   10.2750 C.2   161  ALA161      0.2260
     12  O         14.2090   61.0730    9.2920 O.2   161  ALA161     -0.2867
     13  CB        15.9530   61.9860   11.7880 C.3   161  ALA161      0.0290
     14  N         10.3340   61.4970   11.4280 N.3   165  CYS165     -0.1221
     15  CA        10.0400   62.1000   12.7210 C.3   165  CYS165      0.1808
     16  C         10.8520   63.3780   12.8560 C.2   165  CYS165      0.2602
     17  O         11.9500   63.5230   12.2620 O.2   165  CYS165     -0.2717
     18  CB        10.3410   61.1390   13.8730 C.3   165  CYS165      0.0970
     19  SG         9.4010   59.6060   13.8160 S.3   165  CYS165     -0.0800
     20  N         10.2940   64.3260   13.5910 N.am  166  THR166     -0.1939
     21  CA        10.8990   65.6510   13.6980 C.3   166  THR166      0.2028
     22  C         10.9910   66.1970   15.1160 C.2   166  THR166      0.2642
     23  O         10.2230   65.8420   16.0090 O.2   166  THR166     -0.2714
     24  CB        10.1180   66.6740   12.8410 C.3   166  THR166      0.1808
     25  OG1        8.7530   66.7000   13.2610 O.3   166  THR166     -0.2208
     26  CG2       10.1830   66.3190   11.3470 C.3   166  THR166      0.0379
     27  N         11.9760   67.0800   15.2830 N.am  167  ILE167     -0.1977
     28  CA        12.1760   67.8580   16.4900 C.3   167  ILE167      0.1596
     29  C         12.0770   69.3420   16.1060 C.2   167  ILE167      0.2287
     30  O         12.8940   69.8450   15.3310 O.2   167  ILE167     -0.2864
     31  CB        13.5340   67.5410   17.1240 C.3   167  ILE167      0.0276
     32  CG1       13.5990   66.0640   17.5280 C.3   167  ILE167      0.0022
     33  CG2       13.7920   68.4350   18.3170 C.3   167  ILE167      0.0022
     34  CD1       14.9690   65.5970   17.8890 C.3   167  ILE167      0.0001
     35  N         10.0860   70.8790   14.0970 N.3   169  GLY169     -0.1210
     36  CA         9.9310   71.0760   12.6730 C.3   169  GLY169      0.1956
     37  C         11.2340   70.7630   11.9880 C.2   169  GLY169      0.2612
     38  O         11.6720   69.6180   11.9960 O.2   169  GLY169     -0.2717
     39  N         11.8750   71.7840   11.4310 N.am  170  ASP170     -0.1959
     40  CA        13.1890   71.5870   10.8310 C.3   170  ASP170      0.1840
     41  C         14.3020   71.7640   11.8540 C.2   170  ASP170      0.2622
     42  O         15.4870   71.7440   11.4930 O.2   170  ASP170     -0.2715
     43  CB        13.3780   72.5450    9.6550 C.3   170  ASP170      0.1450
     44  CG        13.5580   73.9820   10.0800 C.2   170  ASP170      0.3671
     45  OD1       13.4880   74.2940   11.2740 O.co2 170  ASP170     -0.2456
     46  OD2       13.7490   74.8370    9.1870 O.co2 170  ASP170     -0.2456
     47  N         13.9100   71.9640   13.0910 N.am  171  GLY171     -0.1954
     48  CA        14.8020   72.1440   14.1870 C.3   171  GLY171      0.1869
     49  C         14.7680   73.5050   14.8260 C.2   171  GLY171      0.2309
     50  O         15.2650   73.6830   15.8690 O.2   171  GLY171     -0.2863
     51  N          7.1010   62.3150   16.9360 N.3   180  PHE180     -0.1241
     52  CA         7.5320   60.9340   16.8520 C.3   180  PHE180      0.1605
     53  C          6.3030   60.0290   16.7900 C.2   180  PHE180      0.2264
     54  O          6.3810   58.8290   17.0400 O.2   180  PHE180     -0.2867
     55  CB         8.4090   60.5640   18.0490 C.3   180  PHE180      0.0534
     56  CG         9.7850   61.1650   18.0140 C.ar  180  PHE180     -0.0203
     57  CD1        9.9520   62.5350   18.0640 C.ar  180  PHE180     -0.0042
     58  CD2       10.9120   60.3630   17.9700 C.ar  180  PHE180     -0.0042
     59  CE1       11.2240   63.0900   18.0250 C.ar  180  PHE180     -0.0003
     60  CE2       12.1580   60.9150   17.9400 C.ar  180  PHE180     -0.0003
     61  CZ        12.3170   62.2720   17.9770 C.ar  180  PHE180     -0.0000
     62  N         22.7530   64.2600   14.3650 N.3   262  PHE262     -0.1241
     63  CA        22.8080   65.6950   14.6160 C.3   262  PHE262      0.1605
     64  C         24.1480   66.2580   14.1810 C.2   262  PHE262      0.2264
     65  O         25.1990   65.6100   14.3670 O.2   262  PHE262     -0.2867
     66  CB        22.6210   66.0110   16.1000 C.3   262  PHE262      0.0534
     67  CG        21.2740   65.6720   16.6350 C.ar  262  PHE262     -0.0203
     68  CD1       20.1500   66.3440   16.1850 C.ar  262  PHE262     -0.0042
     69  CD2       21.1230   64.6850   17.5950 C.ar  262  PHE262     -0.0042
     70  CE1       18.9010   66.0530   16.6790 C.ar  262  PHE262     -0.0003
     71  CE2       19.8620   64.3940   18.1160 C.ar  262  PHE262     -0.0003
     72  CZ        18.7550   65.0610   17.6460 C.ar  262  PHE262     -0.0000
     73  N         21.0780   66.2310   10.2910 N.3   333  VAL333     -0.1231
     74  CA        20.1710   67.3320   10.5040 C.3   333  VAL333      0.1692
     75  C         20.8510   68.2970   11.4610 C.2   333  VAL333      0.2591
     76  O         21.6370   67.8900   12.3180 O.2   333  VAL333     -0.2718
     77  CB        18.8230   66.8670   11.0590 C.3   333  VAL333      0.0266
     78  CG1       18.1000   66.0060   10.0240 C.3   333  VAL333      0.0020
     79  CG2       18.9960   66.0740   12.3470 C.3   333  VAL333      0.0020
     80  N         20.5690   69.5780   11.3010 N.am  334  ALA334     -0.1980
     81  CA        21.2150   70.5720   12.1440 C.3   334  ALA334      0.1597
     82  C         20.7510   70.3950   13.5800 C.2   334  ALA334      0.2287
     83  O         19.5680   70.2650   13.8560 O.2   334  ALA334     -0.2864
     84  CB        20.9210   71.9750   11.6400 C.3   334  ALA334      0.0319
     85  N         19.3040   71.1980   16.8940 N.3   336  PRO336     -0.2116
     86  CA        18.5280   72.3290   17.4230 C.3   336  PRO336      0.1372
     87  C         19.2420   73.0520   18.5570 C.2   336  PRO336      0.2244
     88  O         19.9490   72.4430   19.3670 O.2   336  PRO336     -0.2868
     89  CB        17.2440   71.6520   17.9300 C.3   336  PRO336      0.0268
     90  CG        17.1020   70.4510   17.0290 C.3   336  PRO336      0.0207
     91  CD        18.5190   69.9520   16.8820 C.3   336  PRO336      0.0892
@<TRIPOS>BOND
     1    46    44   ar
     2    12    11    2
     3    43    44    1
     4    43    40    1
     5    78    77    1
     6    44    45   ar
     7    11    10    1
     8    73    74    1
     9    74    77    1
    10    74    75    1
    11    40    39    1
    12    40    41    1
    13    77    79    1
    14    80    75   am
    15    80    81    1
    16    26    24    1
    17    14    15    1
    18    39    37   am
    19    75    76    2
    20    42    41    2
    21    10    13    1
    22    10     9    1
    23    84    81    1
    24    41    47   am
    25    37    38    2
    26    37    36    1
    27    81    82    1
    28    17    16    2
    29    36    35    1
    30    15    16    1
    31    15    18    1
    32    24    25    1
    33    24    21    1
    34    16    20   am
    35    47    48    1
    36    82    83    2
    37    20    21    1
    38    21    22    1
    39    19    18    1
    40    64    65    2
    41    64    63    1
    42    48    49    1
    43    62    63    1
    44     4     3    2
    45    63    66    1
    46    49    50    2
    47    22    27   am
    48    22    23    2
    49     7     6    2
    50    27    28    1
    51    30    29    2
    52     3     2    1
    53    66    67    1
    54    29    28    1
    55     6     8   am
    56     6     5    1
    57    68    67   ar
    58    68    70   ar
    59    28    31    1
    60    67    69   ar
    61    70    72   ar
    62    53    52    1
    63    53    54    2
    64    52    51    1
    65    52    55    1
    66     2     5    1
    67     2     1    1
    68    91    85    1
    69    91    90    1
    70    85    86    1
    71    90    89    1
    72    31    32    1
    73    31    33    1
    74    86    89    1
    75    86    87    1
    76    32    34    1
    77    69    71   ar
    78    72    71   ar
    79    60    58   ar
    80    60    61   ar
    81    58    56   ar
    82    61    59   ar
    83    56    55    1
    84    56    57   ar
    85    59    57   ar
    86    87    88    2
