@<TRIPOS>MOLECULE
tmp/4uacA00.pdb
 208 201 0 0 0
SMALL
GASTEIGER

@<TRIPOS>ATOM
      1  N         38.2450   69.0170   28.0200 N.3    10  PRO10      -0.2116
      2  CA        38.2300   67.5790   28.2990 C.3    10  PRO10       0.1372
      3  C         39.6070   67.0220   28.6110 C.2    10  PRO10       0.2244
      4  O         40.6150   67.6190   28.2570 O.2    10  PRO10      -0.2868
      5  CB        37.6730   66.9740   27.0170 C.3    10  PRO10       0.0268
      6  CG        38.0120   67.9880   25.9300 C.3    10  PRO10       0.0207
      7  CD        37.9200   69.3260   26.6110 C.3    10  PRO10       0.0892
      8  N         41.4170   64.7400   27.4310 N.3    12  GLU12      -0.1245
      9  CA        42.3000   64.5130   26.2970 C.3    12  GLU12       0.1567
     10  C         43.0560   65.7740   25.8810 C.2    12  GLU12       0.2260
     11  O         44.1610   65.6830   25.3690 O.2    12  GLU12      -0.2867
     12  CB        41.4990   63.9710   25.1050 C.3    12  GLU12       0.0388
     13  CG        40.8640   62.5880   25.3360 C.3    12  GLU12       0.1160
     14  CD        39.5000   62.6130   26.0330 C.2    12  GLU12       0.3649
     15  OE1       38.9840   63.6890   26.4140 O.co2  12  GLU12      -0.2457
     16  OE2       38.9350   61.5100   26.2010 O.co2  12  GLU12      -0.2457
     17  N         34.3680   66.9440   30.2500 N.3    46  SER46      -0.1202
     18  CA        33.8980   66.7090   28.8940 C.3    46  SER46       0.2020
     19  C         33.0110   67.8460   28.4290 C.2    46  SER46       0.2619
     20  O         32.1980   68.3630   29.1920 O.2    46  SER46      -0.2717
     21  CB        33.1100   65.4030   28.8360 C.3    46  SER46       0.2103
     22  OG        32.5220   65.2320   27.5590 O.3    46  SER46      -0.2182
     23  N         33.1220   68.2040   27.1550 N.am   47  GLU47      -0.1965
     24  CA        32.1750   69.1540   26.5840 C.3    47  GLU47       0.1733
     25  C         30.7050   68.7180   26.7440 C.2    47  GLU47       0.2617
     26  O         29.8050   69.5690   26.7730 O.2    47  GLU47      -0.2715
     27  CB        32.4700   69.3620   25.0910 C.3    47  GLU47       0.0429
     28  CG        33.8590   69.9080   24.7960 C.3    47  GLU47       0.1163
     29  CD        34.8410   68.8130   24.3750 C.2    47  GLU47       0.3649
     30  OE1       34.8150   67.7250   24.9810 O.co2  47  GLU47      -0.2457
     31  OE2       35.6190   69.0180   23.4150 O.co2  47  GLU47      -0.2457
     32  N         30.4650   67.4130   26.8160 N.am   48  SER48      -0.1950
     33  CA        29.1270   66.8480   26.9750 C.3    48  SER48       0.1924
     34  C         28.4920   67.2150   28.3100 C.2    48  SER48       0.2314
     35  O         27.2790   67.2480   28.4380 O.2    48  SER48      -0.2863
     36  CB        29.1890   65.3200   26.8410 C.3    48  SER48       0.2116
     37  OG        27.9260   64.7260   27.0970 O.3    48  SER48      -0.2180
     38  N         27.3150   72.0190   30.3600 N.3    51  LYS51      -0.1231
     39  CA        26.0880   72.6530   30.8110 C.3    51  LYS51       0.1693
     40  C         25.8580   72.3480   32.2860 C.2    51  LYS51       0.2592
     41  O         25.5890   73.2600   33.0750 O.2    51  LYS51      -0.2718
     42  CB        24.8690   72.2010   30.0040 C.3    51  LYS51       0.0285
     43  CG        23.5300   72.6390   30.6340 C.3    51  LYS51       0.0035
     44  CD        22.3300   72.1710   29.8400 C.3    51  LYS51       0.0206
     45  CE        21.9980   70.7570   30.1820 C.3    51  LYS51       0.1093
     46  NZ        21.4560   70.6430   31.5650 N.3    51  LYS51      -0.1314
     47  N         25.9480   71.0750   32.6500 N.am   52  ASP52      -0.1974
     48  CA        25.6910   70.6620   34.0260 C.3    52  ASP52       0.1709
     49  C         26.6730   71.3320   34.9970 C.2    52  ASP52       0.2293
     50  O         26.2860   71.8490   36.0560 O.2    52  ASP52      -0.2864
     51  CB        25.8040   69.1450   34.1460 C.3    52  ASP52       0.1436
     52  CG        24.6550   68.4170   33.4810 C.2    52  ASP52       0.3671
     53  OD1       23.5840   69.0270   33.3100 O.co2  52  ASP52      -0.2456
     54  OD2       24.8250   67.2300   33.1560 O.co2  52  ASP52      -0.2456
     55  N         29.4610   71.8280   24.1290 N.3    68  ALA68      -0.1245
     56  CA        28.7270   71.4120   22.9300 C.3    68  ALA68       0.1562
     57  C         27.5660   72.3480   22.6850 C.2    68  ALA68       0.2260
     58  O         26.8430   72.7060   23.5920 O.2    68  ALA68      -0.2867
     59  CB        28.2270   69.9910   23.0670 C.3    68  ALA68       0.0290
     60  N         24.5410   72.5250   21.6610 N.3    70  ASP70      -0.1225
     61  CA        23.1470   72.3130   22.0490 C.3    70  ASP70       0.1805
     62  C         22.8960   72.8170   23.4570 C.2    70  ASP70       0.2597
     63  O         21.7410   72.9750   23.8880 O.2    70  ASP70      -0.2718
     64  CB        22.7990   70.8400   21.9690 C.3    70  ASP70       0.1424
     65  CG        23.6970   70.0130   22.8440 C.2    70  ASP70       0.3668
     66  OD1       24.8420   69.7220   22.4120 O.co2  70  ASP70      -0.2456
     67  OD2       23.3070   69.7110   23.9880 O.co2  70  ASP70      -0.2456
     68  N         23.9790   73.0630   24.1850 N.am   71  GLN71      -0.1979
     69  CA        23.8810   73.5970   25.5500 C.3    71  GLN71       0.1601
     70  C         23.6920   75.1030   25.6070 C.2    71  GLN71       0.2287
     71  O         23.5300   75.6760   26.6880 O.2    71  GLN71      -0.2864
     72  CB        25.1260   73.2120   26.3240 C.3    71  GLN71       0.0394
     73  CG        25.2610   71.6910   26.5160 C.3    71  GLN71       0.0908
     74  CD        26.6780   71.2480   26.7890 C.2    71  GLN71       0.2608
     75  OE1       27.5540   72.0640   27.0120 O.2    71  GLN71      -0.2717
     76  NE2       26.9170   69.9560   26.7320 N.am   71  GLN71      -0.0878
     77  N         30.5780   69.0740   15.3220 N.3   118  ASN118     -0.1240
     78  CA        30.1640   68.0920   16.3210 C.3   118  ASN118      0.1653
     79  C         29.1000   67.1860   15.7300 C.2   118  ASN118      0.2266
     80  O         27.9530   67.6040   15.5290 O.2   118  ASN118     -0.2867
     81  CB        29.6270   68.7860   17.5640 C.3   118  ASN118      0.1155
     82  CG        29.5750   67.8630   18.7610 C.2   118  ASN118      0.2627
     83  OD1       30.4390   66.9880   18.9250 O.2   118  ASN118     -0.2716
     84  ND2       28.5830   68.0630   19.6120 N.am  118  ASN118     -0.0877
     85  N         21.4300   56.7060   24.2830 N.3   152  ASN152     -0.1225
     86  CA        21.9930   58.0550   24.1730 C.3   152  ASN152      0.1785
     87  C         21.2110   58.8520   23.1350 C.2   152  ASN152      0.2598
     88  O         21.2220   58.5130   21.9490 O.2   152  ASN152     -0.2718
     89  CB        23.4760   57.9470   23.8210 C.3   152  ASN152      0.1169
     90  CG        24.1900   59.2840   23.8420 C.2   152  ASN152      0.2627
     91  OD1       23.6340   60.3110   23.4420 O.2   152  ASN152     -0.2716
     92  ND2       25.4350   59.2680   24.3230 N.am  152  ASN152     -0.0877
     93  N         20.4730   59.8640   23.5780 N.am  153  GLY153     -0.1942
     94  CA        19.5980   60.5940   22.6820 C.3   153  GLY153      0.2014
     95  C         20.2990   61.2590   21.5130 C.2   153  GLY153      0.2639
     96  O         19.6830   61.5100   20.4670 O.2   153  GLY153     -0.2714
     97  N         21.5780   61.5550   21.6850 N.am  154  TRP154     -0.1959
     98  CA        22.3370   62.2120   20.6230 C.3   154  TRP154      0.1771
     99  C         22.5150   61.2910   19.4100 C.2   154  TRP154      0.2619
    100  O         22.7310   61.7690   18.2930 O.2   154  TRP154     -0.2715
    101  CB        23.6870   62.6800   21.1730 C.3   154  TRP154      0.0590
    102  CG        24.4450   63.6330   20.3170 C.ar  154  TRP154      0.0006
    103  CD1       24.0440   64.8820   19.9060 C.ar  154  TRP154      0.0946
    104  CD2       25.7410   63.4340   19.7740 C.ar  154  TRP154      0.0152
    105  NE1       25.0200   65.4660   19.1350 N.ar  154  TRP154     -0.2442
    106  CE2       26.0780   64.5950   19.0420 C.ar  154  TRP154      0.0810
    107  CE3       26.6680   62.3880   19.8310 C.ar  154  TRP154      0.0012
    108  CZ2       27.3050   64.7230   18.3880 C.ar  154  TRP154      0.0191
    109  CZ3       27.8790   62.5270   19.1880 C.ar  154  TRP154      0.0001
    110  CH2       28.1860   63.6820   18.4760 C.ar  154  TRP154      0.0015
    111  N         22.3860   59.9780   19.6500 N.am  155  TYR155     -0.1974
    112  CA        22.4470   58.9340   18.6280 C.3   155  TYR155      0.1639
    113  C         21.0700   58.3770   18.2150 C.2   155  TYR155      0.2290
    114  O         20.8380   58.0480   17.0510 O.2   155  TYR155     -0.2864
    115  CB        23.3230   57.7870   19.1230 C.3   155  TYR155      0.0560
    116  CG        24.7700   58.1320   19.3280 C.ar  155  TYR155     -0.0198
    117  CD1       25.6870   57.9460   18.3080 C.ar  155  TYR155     -0.0009
    118  CD2       25.2200   58.6140   20.5400 C.ar  155  TYR155     -0.0009
    119  CE1       27.0300   58.2510   18.4930 C.ar  155  TYR155      0.0417
    120  CE2       26.5510   58.9280   20.7340 C.ar  155  TYR155      0.0417
    121  CZ        27.4470   58.7420   19.7180 C.ar  155  TYR155      0.1957
    122  OH        28.7550   59.0530   19.9350 O.3   155  TYR155     -0.2866
    123  N         26.0700   54.0010   26.9560 N.3   206  ASN206     -0.1225
    124  CA        25.7770   55.4050   26.7210 C.3   206  ASN206      0.1785
    125  C         26.9610   56.1940   26.1760 C.2   206  ASN206      0.2597
    126  O         26.8000   56.9700   25.2120 O.2   206  ASN206     -0.2718
    127  CB        25.2680   56.0330   28.0150 C.3   206  ASN206      0.1169
    128  CG        24.7540   57.4260   27.8150 C.2   206  ASN206      0.2627
    129  OD1       25.4760   58.4020   28.0390 O.2   206  ASN206     -0.2716
    130  ND2       23.5240   57.5350   27.3540 N.am  206  ASN206     -0.0877
    131  N         28.1480   56.0090   26.7410 N.am  207  GLU207     -0.1979
    132  CA        29.2790   56.8040   26.2470 C.3   207  GLU207      0.1602
    133  C         30.3220   55.9890   25.4800 C.2   207  GLU207      0.2287
    134  O         31.4170   56.4600   25.2100 O.2   207  GLU207     -0.2864
    135  CB        29.8790   57.5860   27.4090 C.3   207  GLU207      0.0415
    136  CG        29.0060   58.8260   27.6930 C.3   207  GLU207      0.1163
    137  CD        29.5470   59.7130   28.7850 C.2   207  GLU207      0.3649
    138  OE1       30.1830   59.1890   29.7280 O.co2 207  GLU207     -0.2457
    139  OE2       29.3240   60.9380   28.6990 O.co2 207  GLU207     -0.2457
    140  N         36.6640   62.2690   18.8170 N.3   228  TRP228     -0.1241
    141  CA        37.4010   62.2520   20.0800 C.3   228  TRP228      0.1605
    142  C         38.0020   60.8830   20.4140 C.2   228  TRP228      0.2264
    143  O         38.9530   60.8010   21.2020 O.2   228  TRP228     -0.2867
    144  CB        36.4940   62.7200   21.2270 C.3   228  TRP228      0.0550
    145  CG        35.2500   61.9270   21.3040 C.ar  228  TRP228      0.0003
    146  CD1       35.0610   60.7920   22.0240 C.ar  228  TRP228      0.0946
    147  CD2       34.0250   62.1690   20.6010 C.ar  228  TRP228      0.0152
    148  NE1       33.8000   60.3020   21.8060 N.ar  228  TRP228     -0.2442
    149  CE2       33.1470   61.1290   20.9310 C.ar  228  TRP228      0.0810
    150  CE3       33.5910   63.1580   19.7110 C.ar  228  TRP228      0.0012
    151  CZ2       31.8610   61.0460   20.4150 C.ar  228  TRP228      0.0191
    152  CZ3       32.3100   63.0730   19.2000 C.ar  228  TRP228      0.0001
    153  CH2       31.4600   62.0210   19.5500 C.ar  228  TRP228      0.0015
    154  N         31.3610   72.0450   18.6480 N.3   266  LYS266     -0.1245
    155  CA        31.8970   72.3150   19.9750 C.3   266  LYS266      0.1561
    156  C         32.6030   73.6590   19.9100 C.2   266  LYS266      0.2260
    157  O         33.2570   73.9780   18.9170 O.2   266  LYS266     -0.2867
    158  CB        32.8160   71.2020   20.4320 C.3   266  LYS266      0.0271
    159  CG        32.0740   69.8580   20.4840 C.3   266  LYS266      0.0035
    160  CD        32.8590   68.7420   21.2170 C.3   266  LYS266      0.0206
    161  CE        34.0860   68.2950   20.4310 C.3   266  LYS266      0.1093
    162  NZ        34.8880   67.2680   21.1480 N.3   266  LYS266     -0.1314
    163  N         46.1220   65.7740   18.1550 N.3   300  ARG300     -0.1245
    164  CA        45.2690   64.6220   18.4410 C.3   300  ARG300      0.1563
    165  C         44.1670   64.3680   17.4090 C.2   300  ARG300      0.2260
    166  O         43.1620   63.7040   17.6960 O.2   300  ARG300     -0.2867
    167  CB        44.6990   64.7500   19.8700 C.3   300  ARG300      0.0307
    168  CG        44.0040   66.0350   20.2050 C.3   300  ARG300      0.0489
    169  CD        43.2860   65.9510   21.5800 C.3   300  ARG300      0.2205
    170  NE        42.2400   64.9260   21.5530 N.pl3 300  ARG300     -0.0865
    171  CZ        40.9840   65.0930   21.9530 C.cat 300  ARG300      0.5346
    172  NH1       40.5680   66.2500   22.4430 N.pl3 300  ARG300      0.1354
    173  NH2       40.1300   64.0690   21.8540 N.pl3 300  ARG300      0.1354
    174  N         16.2040   69.5370   26.5160 N.3   341  SER341     -0.1217
    175  CA        16.3190   68.8400   27.8010 C.3   341  SER341      0.1889
    176  C         15.3680   67.6530   27.9760 C.2   341  SER341      0.2288
    177  O         15.8060   66.5800   28.3880 O.2   341  SER341     -0.2866
    178  CB        16.0920   69.8300   28.9640 C.3   341  SER341      0.2089
    179  OG        14.7730   70.3500   28.9840 O.3   341  SER341     -0.2183
    180  N         16.5710   64.7560   25.8030 N.3   344  TRP344     -0.1227
    181  CA        17.7530   64.0630   26.2780 C.3   344  TRP344      0.1737
    182  C         17.3880   63.1570   27.4580 C.2   344  TRP344      0.2595
    183  O         17.8870   62.0430   27.5830 O.2   344  TRP344     -0.2718
    184  CB        18.8500   65.0210   26.7290 C.3   344  TRP344      0.0564
    185  CG        19.2950   66.0690   25.7660 C.ar  344  TRP344      0.0003
    186  CD1       19.3280   67.4130   26.0040 C.ar  344  TRP344      0.0946
    187  CD2       19.8140   65.8810   24.4470 C.ar  344  TRP344      0.0152
    188  NE1       19.8150   68.0750   24.9120 N.ar  344  TRP344     -0.2442
    189  CE2       20.1310   67.1610   23.9360 C.ar  344  TRP344      0.0810
    190  CE3       20.0360   64.7630   23.6380 C.ar  344  TRP344      0.0012
    191  CZ2       20.6550   67.3540   22.6570 C.ar  344  TRP344      0.0191
    192  CZ3       20.5540   64.9570   22.3640 C.ar  344  TRP344      0.0001
    193  CH2       20.8480   66.2440   21.8810 C.ar  344  TRP344      0.0015
    194  N         16.5090   63.6510   28.3170 N.am  345  ASP345     -0.1974
    195  CA        16.1010   62.9020   29.5070 C.3   345  ASP345      0.1709
    196  C         15.2610   61.6790   29.1610 C.2   345  ASP345      0.2293
    197  O         15.5170   60.6000   29.6820 O.2   345  ASP345     -0.2864
    198  CB        15.3180   63.8020   30.4600 C.3   345  ASP345      0.1436
    199  CG        16.2110   64.8010   31.2100 C.2   345  ASP345      0.3671
    200  OD1       17.4640   64.7240   31.1090 O.co2 345  ASP345     -0.2456
    201  OD2       15.6430   65.6670   31.9100 O.co2 345  ASP345     -0.2456
    202  N         16.9390   58.2210   27.2010 N.3   348  THR348     -0.1218
    203  CA        17.7480   57.1970   27.8190 C.3   348  THR348      0.1862
    204  C         16.9130   56.0110   28.3330 C.2   348  THR348      0.2287
    205  O         17.1850   54.8630   27.9560 O.2   348  THR348     -0.2866
    206  CB        18.6080   57.8110   28.9300 C.3   348  THR348      0.1770
    207  OG1       19.4790   58.7990   28.3480 O.3   348  THR348     -0.2211
    208  CG2       19.4440   56.7420   29.6060 C.3   348  THR348      0.0375
@<TRIPOS>BOND
     1    77    78    1
     2    80    79    2
     3    79    78    1
     4    78    81    1
     5   114   113    2
     6   165   166    2
     7   165   164    1
     8    81    82    1
     9   163   164    1
    10   113   112    1
    11   100    99    2
    12   117   119   ar
    13   117   116   ar
    14   108   110   ar
    15   108   106   ar
    16   164   167    1
    17   110   109   ar
    18   119   121   ar
    19   112   115    1
    20   112   111    1
    21   154   155    1
    22    82    83    2
    23    82    84   am
    24   140   141    1
    25   157   156    2
    26   106   105   ar
    27   106   104   ar
    28   115   116    1
    29   105   103   ar
    30   109   107   ar
    31   152   153   ar
    32   152   150   ar
    33   116   118   ar
    34    99   111   am
    35    99    98    1
    36   153   151   ar
    37   150   147   ar
    38   121   122    1
    39   121   120   ar
    40   104   107   ar
    41   104   102   ar
    42   167   168    1
    43   103   102   ar
    44   156   155    1
    45   155   158    1
    46   141   142    1
    47   141   144    1
    48   168   169    1
    49   102   101    1
    50   142   143    2
    51   151   149   ar
    52   161   162    1
    53   161   160    1
    54   158   159    1
    55    96    95    2
    56   159   160    1
    57   118   120   ar
    58   147   149   ar
    59   147   145   ar
    60    98   101    1
    61    98    97    1
    62   149   148   ar
    63   144   145    1
    64   145   146   ar
    65    95    97   am
    66    95    94    1
    67   170   169    1
    68   170   171    2
    69    60    61    1
    70   148   146   ar
    71   173   171    1
    72   193   192   ar
    73   193   191   ar
    74    88    87    2
    75   171   172    1
    76    64    61    1
    77    64    65    1
    78    61    62    1
    79   192   190   ar
    80    66    65   ar
    81   191   189   ar
    82    94    93    1
    83    57    56    1
    84    57    58    2
    85    65    67   ar
    86    56    59    1
    87    56    55    1
    88    87    93   am
    89    87    86    1
    90    31    29   ar
    91    91    90    2
    92    62    63    2
    93    62    68   am
    94   190   187   ar
    95    89    90    1
    96    89    86    1
    97    90    92   am
    98   189   187   ar
    99   189   188   ar
   100    86    85    1
   101    68    69    1
   102    29    28    1
   103    29    30   ar
   104   187   185   ar
   105    28    27    1
   106   188   186   ar
   107    27    24    1
   108    12    13    1
   109    12     9    1
   110   134   133    2
   111   126   125    2
   112    13    14    1
   113    11    10    2
   114   133   132    1
   115    69    70    1
   116    69    72    1
   117    70    71    2
   118   185   186   ar
   119   185   184    1
   120   180   181    1
   121    10     9    1
   122     6     7    1
   123     6     5    1
   124    14    16   ar
   125    14    15   ar
   126   125   124    1
   127   125   131   am
   128   132   131    1
   129   132   135    1
   130   181   184    1
   131   181   182    1
   132     9     8    1
   133    72    73    1
   134    73    74    1
   135   174   175    1
   136    24    25    1
   137    24    23    1
   138     7     1    1
   139   124   123    1
   140   124   127    1
   141    76    74   am
   142    25    26    2
   143    25    32   am
   144    74    75    2
   145    32    33    1
   146    36    33    1
   147    36    37    1
   148    33    34    1
   149     5     2    1
   150    23    19   am
   151   202   203    1
   152   130   128   am
   153   135   136    1
   154   182   183    2
   155   182   194   am
   156    22    21    1
   157   136   137    1
   158   175   176    1
   159   175   178    1
   160   128   127    1
   161   128   129    2
   162   203   204    1
   163   203   206    1
   164   205   204    2
   165   176   177    2
   166     1     2    1
   167     4     3    2
   168     2     3    1
   169    34    35    2
   170   194   195    1
   171   207   206    1
   172    19    18    1
   173    19    20    2
   174   139   137   ar
   175   137   138   ar
   176    21    18    1
   177    18    17    1
   178   206   208    1
   179   178   179    1
   180   196   195    1
   181   196   197    2
   182   195   198    1
   183    44    45    1
   184    44    43    1
   185    42    43    1
   186    42    39    1
   187    45    46    1
   188    38    39    1
   189   198   199    1
   190    39    40    1
   191   200   199   ar
   192   199   201   ar
   193    40    47   am
   194    40    41    2
   195    47    48    1
   196    54    52   ar
   197    53    52   ar
   198    52    51    1
   199    48    51    1
   200    48    49    1
   201    49    50    2
