@<TRIPOS>MOLECULE
tmp/4uaiA00.pdb
 81 75 0 0 0
SMALL
GASTEIGER

@<TRIPOS>ATOM
      1  N         10.1030  -13.8300    4.3940 N.3    15  GLU15      -0.1245
      2  CA        11.4070  -13.6010    3.7370 C.3    15  GLU15       0.1567
      3  C         12.5600  -13.7460    4.6820 C.2    15  GLU15       0.2260
      4  O         12.4830  -13.2380    5.8210 O.2    15  GLU15      -0.2867
      5  CB        11.4040  -12.2100    3.1730 C.3    15  GLU15       0.0388
      6  CG        10.2820  -12.0950    2.1530 C.3    15  GLU15       0.1160
      7  CD        10.4640  -10.9970    1.1250 C.2    15  GLU15       0.3649
      8  OE1       11.5490  -10.3490    1.0580 O.co2  15  GLU15      -0.2457
      9  OE2        9.4950  -10.8110    0.3680 O.co2  15  GLU15      -0.2457
     10  N         15.8420  -12.9090    3.6750 N.3    17  HIS17      -0.1226
     11  CA        17.0150  -12.1320    3.2000 C.3    17  HIS17       0.1752
     12  C         16.7550  -10.6510    3.1710 C.2    17  HIS17       0.2596
     13  O         17.1710   -9.9420    2.2680 O.2    17  HIS17      -0.2718
     14  CB        17.4330  -12.6400    1.8150 C.3    17  HIS17       0.0759
     15  CG        17.6760  -14.1030    1.7990 C.ar   17  HIS17       0.0818
     16  ND1       18.6820  -14.6850    2.5410 N.ar   17  HIS17      -0.2268
     17  CD2       17.0290  -15.1120    1.1720 C.ar   17  HIS17       0.1154
     18  CE1       18.6580  -15.9910    2.3550 C.ar   17  HIS17       0.1986
     19  NE2       17.6750  -16.2740    1.5180 N.ar   17  HIS17      -0.2212
     20  N         16.1600  -10.1580    4.2250 N.am   18  VAL18      -0.1966
     21  CA        15.9140   -8.7290    4.3240 C.3    18  VAL18       0.1727
     22  C         17.0320   -8.0710    5.1480 C.2    18  VAL18       0.2616
     23  O         17.1880   -8.4150    6.3250 O.2    18  VAL18      -0.2715
     24  CB        14.5860   -8.4890    5.0300 C.3    18  VAL18       0.0290
     25  CG1       14.3420   -6.9920    5.2280 C.3    18  VAL18       0.0023
     26  CG2       13.4840   -9.0790    4.1820 C.3    18  VAL18       0.0023
     27  N         17.7420   -7.1150    4.5570 N.am   19  ALA19      -0.1977
     28  CA        18.8360   -6.4460    5.2480 C.3    19  ALA19       0.1597
     29  C         18.3030   -5.3970    6.1830 C.2    19  ALA19       0.2287
     30  O         17.3860   -4.6360    5.8230 O.2    19  ALA19      -0.2864
     31  CB        19.8020   -5.8280    4.2640 C.3    19  ALA19       0.0319
     32  N         17.7480   -1.9450    4.8570 N.3    22  ASN22      -0.1240
     33  CA        16.5780   -1.7020    4.0140 C.3    22  ASN22       0.1653
     34  C         15.2380   -1.6850    4.7500 C.2    22  ASN22       0.2266
     35  O         14.2040   -1.7700    4.1080 O.2    22  ASN22      -0.2867
     36  CB        16.5200   -2.7260    2.8710 C.3    22  ASN22       0.1155
     37  CG        15.6040   -2.2890    1.7440 C.2    22  ASN22       0.2627
     38  OD1       15.5050   -1.0910    1.4250 O.2    22  ASN22      -0.2716
     39  ND2       14.9220   -3.2430    1.1540 N.am   22  ASN22      -0.0877
     40  N          9.7990   -1.8360    3.8260 N.3    42  LEU42      -0.1245
     41  CA        11.1200   -1.7120    3.2140 C.3    42  LEU42       0.1561
     42  C         11.3490   -0.2980    2.7140 C.2    42  LEU42       0.2260
     43  O         10.4330    0.3510    2.1940 O.2    42  LEU42      -0.2867
     44  CB        11.2480   -2.7030    2.0410 C.3    42  LEU42       0.0270
     45  CG        10.9950   -4.1750    2.3440 C.3    42  LEU42       0.0019
     46  CD1       11.1720   -5.0680    1.1430 C.3    42  LEU42       0.0001
     47  CD2       11.9430   -4.6070    3.4500 C.3    42  LEU42       0.0001
     48  N         13.6320    0.7020    0.1790 N.3    44  ASN44      -0.1225
     49  CA        13.8810    0.8620   -1.2930 C.3    44  ASN44       0.1785
     50  C         12.6400    0.7320   -2.1800 C.2    44  ASN44       0.2597
     51  O         12.5930    1.3480   -3.2120 O.2    44  ASN44      -0.2718
     52  CB        14.9940   -0.0950   -1.7810 C.3    44  ASN44       0.1169
     53  CG        14.5590   -1.5500   -1.8450 C.2    44  ASN44       0.2627
     54  OD1       13.6380   -1.9980   -1.1470 O.2    44  ASN44      -0.2716
     55  ND2       15.2950   -2.3120   -2.6240 N.am   44  ASN44      -0.0877
     56  N         11.6320   -0.0110   -1.7630 N.am   45  ASN45      -0.1974
     57  CA        10.4470   -0.2320   -2.5780 C.3    45  ASN45       0.1688
     58  C          9.1250   -0.0410   -1.8500 C.2    45  ASN45       0.2292
     59  O          8.0450   -0.1760   -2.4420 O.2    45  ASN45      -0.2864
     60  CB        10.5150   -1.6230   -3.2400 C.3    45  ASN45       0.1181
     61  CG        10.5610   -2.7460   -2.2210 C.2    45  ASN45       0.2629
     62  OD1       10.0320   -2.6060   -1.1150 O.2    45  ASN45      -0.2716
     63  ND2       11.1360   -3.8590   -2.5870 N.am   45  ASN45      -0.0877
     64  N          7.3880   -1.8630    0.1310 N.3    47  ARG47      -0.1245
     65  CA         6.5630   -3.0160    0.3370 C.3    47  ARG47       0.1563
     66  C          6.6070   -3.3650    1.7540 C.2    47  ARG47       0.2260
     67  O          7.5540   -3.0330    2.4820 O.2    47  ARG47      -0.2867
     68  CB         7.0940   -4.2230   -0.4290 C.3    47  ARG47       0.0307
     69  CG         6.9330   -4.1450   -1.9150 C.3    47  ARG47       0.0489
     70  CD         7.0640   -5.5960   -2.4250 C.3    47  ARG47       0.2205
     71  NE         6.8050   -5.6910   -3.8610 N.pl3  47  ARG47      -0.0865
     72  CZ         7.7470   -5.5990   -4.7860 C.cat  47  ARG47       0.5346
     73  NH1        9.0180   -5.4550   -4.4060 N.pl3  47  ARG47       0.1354
     74  NH2        7.4170   -5.6720   -6.0920 N.pl3  47  ARG47       0.1354
     75  N          6.6500   -6.7730    3.8990 N.3    49  VAL49      -0.1245
     76  CA         6.8580   -8.1970    3.7720 C.3    49  VAL49       0.1561
     77  C          6.9640   -8.8130    5.1650 C.2    49  VAL49       0.2260
     78  O          7.4790   -8.2020    6.0760 O.2    49  VAL49      -0.2867
     79  CB         8.1400   -8.5500    2.9610 C.3    49  VAL49       0.0252
     80  CG1        8.0170   -7.9780    1.5600 C.3    49  VAL49       0.0019
     81  CG2        9.4030   -8.0400    3.6670 C.3    49  VAL49       0.0019
@<TRIPOS>BOND
     1    74    72    1
     2    72    73    1
     3    72    71    2
     4    71    70    1
     5    60    57    1
     6    60    61    1
     7    51    50    2
     8    55    53   am
     9    63    61   am
    10    57    58    1
    11    57    56    1
    12    59    58    2
    13    70    69    1
    14    61    62    2
    15    50    56   am
    16    50    49    1
    17    69    68    1
    18    53    52    1
    19    53    54    2
    20    52    49    1
    21    49    48    1
    22    68    65    1
    23    64    65    1
    24    65    66    1
    25     9     7   ar
    26     8     7   ar
    27     7     6    1
    28    46    45    1
    29    39    37   am
    30    17    19   ar
    31    17    15   ar
    32    38    37    2
    33    19    18   ar
    34    80    79    1
    35    37    36    1
    36    66    67    2
    37    15    14    1
    38    15    16   ar
    39    14    11    1
    40    44    45    1
    41    44    41    1
    42     6     5    1
    43    43    42    2
    44    13    12    2
    45    45    47    1
    46    18    16   ar
    47    42    41    1
    48    36    33    1
    49    79    81    1
    50    79    76    1
    51    12    11    1
    52    12    20   am
    53     5     2    1
    54    11    10    1
    55    41    40    1
    56     2     1    1
    57     2     3    1
    58    76    75    1
    59    76    77    1
    60    33    34    1
    61    33    32    1
    62    35    34    2
    63    26    24    1
    64    20    21    1
    65    31    28    1
    66    21    24    1
    67    21    22    1
    68    27    22   am
    69    27    28    1
    70     3     4    2
    71    24    25    1
    72    22    23    2
    73    77    78    2
    74    28    29    1
    75    30    29    2
