@<TRIPOS>MOLECULE
tmp/4uapA00.pdb
 122 117 0 0 0
SMALL
GASTEIGER

@<TRIPOS>ATOM
      1  N         -7.3840    6.0930   41.6170 N.3    32  ASP32      -0.1239
      2  CA        -6.5360    6.0880   42.8170 C.3    32  ASP32       0.1674
      3  C         -5.2190    5.3650   42.5650 C.2    32  ASP32       0.2266
      4  O         -4.1700    5.7560   43.0900 O.2    32  ASP32      -0.2867
      5  CB        -7.2370    5.4150   44.0040 C.3    32  ASP32       0.1410
      6  CG        -8.3780    6.2430   44.5740 C.2    32  ASP32       0.3668
      7  OD1       -8.4910    7.4440   44.2400 O.co2  32  ASP32      -0.2456
      8  OD2       -9.1570    5.6870   45.3810 O.co2  32  ASP32      -0.2456
      9  N         -2.2500    7.5990   40.8720 N.3    35  ARG35      -0.1245
     10  CA        -1.8630    8.9230   41.3580 C.3    35  ARG35       0.1563
     11  C         -0.8010    8.9600   42.4490 C.2    35  ARG35       0.2260
     12  O         -0.6510    8.0090   43.2190 O.2    35  ARG35      -0.2867
     13  CB        -3.0990    9.6600   41.8990 C.3    35  ARG35       0.0307
     14  CG        -4.2590    9.8070   40.9290 C.3    35  ARG35       0.0489
     15  CD        -5.2290   10.8690   41.4410 C.3    35  ARG35       0.2205
     16  NE        -5.5150   10.6770   42.8630 N.pl3  35  ARG35      -0.0865
     17  CZ        -6.5320    9.9660   43.3450 C.cat  35  ARG35       0.5346
     18  NH1       -7.4030    9.3750   42.5240 N.pl3  35  ARG35       0.1354
     19  NH2       -6.6800    9.8510   44.6570 N.pl3  35  ARG35       0.1354
     20  N         -0.5240   11.1730   45.7420 N.3    37  ASP37      -0.1225
     21  CA        -1.3850   11.9720   46.6080 C.3    37  ASP37       0.1805
     22  C         -0.6380   12.3710   47.8830 C.2    37  ASP37       0.2598
     23  O          0.0900   11.5630   48.4580 O.2    37  ASP37      -0.2718
     24  CB        -2.6470   11.1920   47.0160 C.3    37  ASP37       0.1424
     25  CG        -3.7660   11.2180   45.9600 C.2    37  ASP37       0.3668
     26  OD1       -3.5200   11.4620   44.7550 O.co2  37  ASP37      -0.2456
     27  OD2       -4.9200   10.9720   46.3640 O.co2  37  ASP37      -0.2456
     28  N         -0.8430   13.6010   48.3360 N.am   38  LEU38      -0.1966
     29  CA        -0.4920   13.9790   49.6980 C.3    38  LEU38       0.1728
     30  C         -1.2730   13.0750   50.6550 C.2    38  LEU38       0.2616
     31  O         -2.3310   12.5610   50.2820 O.2    38  LEU38      -0.2715
     32  CB        -0.8250   15.4500   49.9410 C.3    38  LEU38       0.0311
     33  CG         0.3500   16.3500   50.3120 C.3    38  LEU38       0.0022
     34  CD1        1.4190   16.3090   49.2310 C.3    38  LEU38       0.0001
     35  CD2       -0.1320   17.7800   50.5730 C.3    38  LEU38       0.0001
     36  N         -0.7700   12.8810   51.8730 N.am   39  LYS39      -0.1963
     37  CA        -1.4320   11.9950   52.8370 C.3    39  LYS39       0.1728
     38  C         -2.9340   12.2570   52.9540 C.2    39  LYS39       0.2616
     39  O         -3.3680   13.4000   53.1400 O.2    39  LYS39      -0.2715
     40  CB        -0.7990   12.1310   54.2270 C.3    39  LYS39       0.0311
     41  CG         0.5450   11.4420   54.3980 C.3    39  LYS39       0.0038
     42  CD         1.0220   11.5600   55.8470 C.3    39  LYS39       0.0206
     43  CE         2.4130   10.9620   56.0210 C.3    39  LYS39       0.1093
     44  NZ         2.5520    9.6450   55.3420 N.3    39  LYS39      -0.1314
     45  N         -3.7260   11.1970   52.8440 N.am   40  TRP40      -0.1960
     46  CA        -5.1720   11.3300   53.0260 C.3    40  TRP40       0.1771
     47  C         -5.5190   11.6560   54.4730 C.2    40  TRP40       0.2619
     48  O         -4.8270   11.2300   55.3990 O.2    40  TRP40      -0.2715
     49  CB        -5.8980   10.0530   52.6040 C.3    40  TRP40       0.0590
     50  CG        -5.8680    9.7890   51.1310 C.ar   40  TRP40       0.0006
     51  CD1       -5.0770   10.4050   50.1930 C.ar   40  TRP40       0.0946
     52  CD2       -6.6560    8.8280   50.4260 C.ar   40  TRP40       0.0152
     53  NE1       -5.3380    9.8850   48.9480 N.ar   40  TRP40      -0.2442
     54  CE2       -6.3020    8.9170   49.0620 C.ar   40  TRP40       0.0810
     55  CE3       -7.6470    7.9120   50.8150 C.ar   40  TRP40       0.0012
     56  CZ2       -6.8970    8.1150   48.0820 C.ar   40  TRP40       0.0191
     57  CZ3       -8.2360    7.1140   49.8390 C.ar   40  TRP40       0.0001
     58  CH2       -7.8580    7.2220   48.4880 C.ar   40  TRP40       0.0015
     59  N         -6.5810   12.4300   54.6530 N.am   41  ILE41      -0.1977
     60  CA        -7.0890   12.7570   55.9720 C.3    41  ILE41       0.1596
     61  C         -8.1930   11.7800   56.3640 C.2    41  ILE41       0.2287
     62  O         -9.2380   11.7500   55.7220 O.2    41  ILE41      -0.2864
     63  CB        -7.6570   14.1850   56.0240 C.3    41  ILE41       0.0276
     64  CG1       -6.6490   15.1910   55.4670 C.3    41  ILE41       0.0022
     65  CG2       -8.0640   14.5360   57.4500 C.3    41  ILE41       0.0022
     66  CD1       -5.3250   15.1190   56.1180 C.3    41  ILE41       0.0001
     67  N         -5.8130   15.5250   38.3910 N.3    74  ARG74      -0.1245
     68  CA        -6.8870   14.6210   38.7710 C.3    74  ARG74       0.1563
     69  C         -8.2230   15.2050   38.3350 C.2    74  ARG74       0.2260
     70  O         -8.6170   16.2760   38.7910 O.2    74  ARG74      -0.2867
     71  CB        -6.8880   14.3590   40.2780 C.3    74  ARG74       0.0307
     72  CG        -7.9820   13.3780   40.6980 C.3    74  ARG74       0.0489
     73  CD        -8.0860   13.2720   42.2000 C.3    74  ARG74       0.2205
     74  NE        -9.1390   12.3380   42.5730 N.pl3  74  ARG74      -0.0865
     75  CZ        -9.4170   12.0020   43.8270 C.cat  74  ARG74       0.5346
     76  NH1       -8.7170   12.5340   44.8230 N.pl3  74  ARG74       0.1354
     77  NH2      -10.3910   11.1390   44.0770 N.pl3  74  ARG74       0.1354
     78  N        -10.9850   17.7710   39.7390 N.3    82  ASN82      -0.1225
     79  CA       -11.3610   17.3270   41.0780 C.3    82  ASN82       0.1785
     80  C        -10.8780   18.2970   42.1450 C.2    82  ASN82       0.2597
     81  O         -9.8830   18.9960   41.9650 O.2    82  ASN82      -0.2718
     82  CB       -10.8180   15.9170   41.3550 C.3    82  ASN82       0.1169
     83  CG       -11.2330   15.3870   42.7200 C.2    82  ASN82       0.2627
     84  OD1      -10.4320   15.3580   43.6550 O.2    82  ASN82      -0.2716
     85  ND2      -12.4990   14.9760   42.8410 N.am   82  ASN82      -0.0877
     86  N        -11.5930   18.3420   43.2600 N.am   83  ILE83      -0.1966
     87  CA       -11.2590   19.2480   44.3510 C.3    83  ILE83       0.1727
     88  C         -9.8460   19.0040   44.9440 C.2    83  ILE83       0.2616
     89  O         -9.2230   19.9190   45.4940 O.2    83  ILE83      -0.2715
     90  CB       -12.3340   19.1380   45.4580 C.3    83  ILE83       0.0290
     91  CG1      -12.2470   20.3100   46.4370 C.3    83  ILE83       0.0022
     92  CG2      -12.2530   17.7950   46.1570 C.3    83  ILE83       0.0023
     93  CD1      -13.3440   20.2850   47.5070 C.3    83  ILE83       0.0001
     94  N         -9.3250   17.7840   44.8140 N.am   84  ALA84      -0.1977
     95  CA        -7.9970   17.4800   45.3580 C.3    84  ALA84       0.1597
     96  C         -6.8680   17.8070   44.3720 C.2    84  ALA84       0.2287
     97  O         -5.6940   17.7330   44.7270 O.2    84  ALA84      -0.2864
     98  CB        -7.9230   16.0080   45.7760 C.3    84  ALA84       0.0319
     99  N         -8.5210   22.3730   47.2040 N.3   134  LYS134     -0.1245
    100  CA        -9.1860   22.0450   48.4670 C.3   134  LYS134      0.1561
    101  C         -8.5480   22.7920   49.6160 C.2   134  LYS134      0.2260
    102  O         -9.1550   23.6940   50.1820 O.2   134  LYS134     -0.2867
    103  CB        -9.1500   20.5340   48.7270 C.3   134  LYS134      0.0271
    104  CG       -10.0430   20.0780   49.8750 C.3   134  LYS134      0.0035
    105  CD        -9.9170   18.5820   50.0660 C.3   134  LYS134      0.0206
    106  CE       -10.7410   18.0990   51.2580 C.3   134  LYS134      0.1093
    107  NZ       -10.6400   16.6110   51.3950 N.3   134  LYS134     -0.1314
    108  N         -3.3580   20.8410   52.7240 N.3   137  ASN137     -0.1225
    109  CA        -2.9930   19.4760   53.1080 C.3   137  ASN137      0.1785
    110  C         -3.4600   18.4400   52.0920 C.2   137  ASN137      0.2597
    111  O         -3.4830   17.2440   52.3890 O.2   137  ASN137     -0.2718
    112  CB        -3.5620   19.1190   54.4860 C.3   137  ASN137      0.1169
    113  CG        -3.0750   20.0470   55.5810 C.2   137  ASN137      0.2627
    114  OD1       -3.8740   20.6620   56.2700 O.2   137  ASN137     -0.2716
    115  ND2       -1.7550   20.1480   55.7470 N.am  137  ASN137     -0.0877
    116  N         -3.8080   18.8910   50.8910 N.am  138  THR138     -0.1953
    117  CA        -4.3810   18.0040   49.8900 C.3   138  THR138      0.1897
    118  C         -3.7650   18.2480   48.5110 C.2   138  THR138      0.2313
    119  O         -3.5700   19.3920   48.1010 O.2   138  THR138     -0.2863
    120  CB        -5.9250   18.1870   49.8160 C.3   138  THR138      0.1794
    121  OG1       -6.4890   18.0420   51.1300 O.3   138  THR138     -0.2208
    122  CG2       -6.5600   17.1680   48.8790 C.3   138  THR138      0.0378
@<TRIPOS>BOND
     1    69    68    1
     2    69    70    2
     3    67    68    1
     4    68    71    1
     5    78    79    1
     6    71    72    1
     7    72    73    1
     8     9    10    1
     9    14    15    1
    10    14    13    1
    11    79    82    1
    12    79    80    1
    13    82    83    1
    14    10    13    1
    15    10    11    1
    16    15    16    1
    17     1     2    1
    18    81    80    2
    19    80    86   am
    20    73    74    1
    21    11    12    2
    22    18    17    1
    23     3     2    1
    24     3     4    2
    25    74    75    2
    26    83    85   am
    27    83    84    2
    28     2     5    1
    29    16    17    2
    30    86    87    1
    31    17    19    1
    32    75    77    1
    33    75    76    1
    34     5     6    1
    35     7     6   ar
    36    87    88    1
    37    87    90    1
    38    96    97    2
    39    96    95    1
    40     6     8   ar
    41    26    25   ar
    42    94    88   am
    43    94    95    1
    44    88    89    2
    45    95    98    1
    46    90    92    1
    47    90    91    1
    48    20    21    1
    49    25    27   ar
    50    25    24    1
    51    91    93    1
    52    21    24    1
    53    21    22    1
    54    99   100    1
    55    22    28   am
    56    22    23    2
    57    56    58   ar
    58    56    54   ar
    59   119   118    2
    60    28    29    1
    61   100   103    1
    62   100   101    1
    63    58    57   ar
    64   118   117    1
    65   103   104    1
    66   122   120    1
    67    53    54   ar
    68    53    51   ar
    69    54    52   ar
    70    34    33    1
    71   101   102    2
    72    29    32    1
    73    29    30    1
    74   120   117    1
    75   120   121    1
    76    57    55   ar
    77   104   105    1
    78   117   116    1
    79    32    33    1
    80   105   106    1
    81    51    50   ar
    82    31    30    2
    83    33    35    1
    84    52    55   ar
    85    52    50   ar
    86    30    36   am
    87   116   110   am
    88    50    49    1
    89   106   107    1
    90    36    37    1
    91   110   111    2
    92   110   109    1
    93    49    46    1
    94   108   109    1
    95    37    38    1
    96    37    40    1
    97    45    38   am
    98    45    46    1
    99    38    39    2
   100    46    47    1
   101   109   112    1
   102    40    41    1
   103    41    42    1
   104    47    59   am
   105    47    48    2
   106   112   113    1
   107    59    60    1
   108    44    43    1
   109    64    63    1
   110    64    66    1
   111   113   115   am
   112   113   114    2
   113    62    61    2
   114    42    43    1
   115    60    63    1
   116    60    61    1
   117    63    65    1
