@<TRIPOS>MOLECULE
tmp/4uauA00.pdb
 180 170 0 0 0
SMALL
GASTEIGER

@<TRIPOS>ATOM
      1  N          9.4650   33.0410   42.9770 N.3     8  ASP8       -0.1225
      2  CA         8.1890   32.8480   43.6540 C.3     8  ASP8        0.1805
      3  C          7.6450   34.2100   44.1170 C.2     8  ASP8        0.2598
      4  O          8.3910   35.2040   44.1990 O.2     8  ASP8       -0.2718
      5  CB         8.3930   31.8920   44.8270 C.3     8  ASP8        0.1424
      6  CG         7.1300   31.6600   45.5870 C.2     8  ASP8        0.3668
      7  OD1        6.1430   31.2630   44.9250 O.co2   8  ASP8       -0.2456
      8  OD2        7.1220   31.9100   46.7950 O.co2   8  ASP8       -0.2456
      9  N          6.3500   34.2660   44.4500 N.am    9  VAL9       -0.1966
     10  CA         5.7610   35.5350   44.9330 C.3     9  VAL9        0.1727
     11  C          5.5140   35.4890   46.4350 C.2     9  VAL9        0.2616
     12  O          6.2390   36.1310   47.2050 O.2     9  VAL9       -0.2715
     13  CB         4.4670   35.9130   44.1710 C.3     9  VAL9        0.0290
     14  CG1        3.7580   37.1280   44.7910 C.3     9  VAL9        0.0023
     15  CG2        4.8060   36.2240   42.7300 C.3     9  VAL9        0.0023
     16  N          4.5420   34.6830   46.8870 N.am   10  ASN10      -0.1972
     17  CA         4.1340   34.7520   48.2880 C.3    10  ASN10       0.1688
     18  C          5.1680   34.1780   49.2240 C.2    10  ASN10       0.2292
     19  O          5.5700   33.0140   49.0770 O.2    10  ASN10      -0.2864
     20  CB         2.7550   34.1140   48.4720 C.3    10  ASN10       0.1181
     21  CG         1.6710   34.8860   47.7440 C.2    10  ASN10       0.2629
     22  OD1        1.5090   36.0950   47.9620 O.2    10  ASN10      -0.2716
     23  ND2        0.9740   34.2260   46.8410 N.am   10  ASN10      -0.0877
     24  N          1.3690   36.3210   53.4750 N.3    17  GLU17      -0.1245
     25  CA         0.3220   35.3430   53.8290 C.3    17  GLU17       0.1567
     26  C         -0.6440   35.7960   54.9060 C.2    17  GLU17       0.2260
     27  O         -1.8040   35.4150   54.8920 O.2    17  GLU17      -0.2867
     28  CB         0.8990   33.9530   54.1300 C.3    17  GLU17       0.0388
     29  CG         1.2900   33.1950   52.8490 C.3    17  GLU17       0.1160
     30  CD         0.1150   32.8820   51.9090 C.2    17  GLU17       0.3649
     31  OE1       -1.0720   33.0700   52.2880 O.co2  17  GLU17      -0.2457
     32  OE2        0.4050   32.4190   50.7880 O.co2  17  GLU17      -0.2457
     33  N         -3.1650   37.5980   52.9340 N.3    20  HIS20      -0.1241
     34  CA        -4.0430   36.6010   52.3270 C.3    20  HIS20       0.1621
     35  C         -5.0510   36.0700   53.3380 C.2    20  HIS20       0.2264
     36  O         -6.2420   35.9710   53.0310 O.2    20  HIS20      -0.2867
     37  CB        -3.2730   35.4340   51.6730 C.3    20  HIS20       0.0745
     38  CG        -2.5860   35.7960   50.3940 C.ar   20  HIS20       0.0817
     39  ND1       -3.2740   36.0170   49.2250 N.ar   20  HIS20      -0.2268
     40  CD2       -1.2730   35.9260   50.0940 C.ar   20  HIS20       0.1154
     41  CE1       -2.4200   36.2940   48.2570 C.ar   20  HIS20       0.1986
     42  NE2       -1.1950   36.2520   48.7600 N.ar   20  HIS20      -0.2212
     43  N         -9.1260   36.2310   53.0680 N.3    24  PHE24      -0.1241
     44  CA       -10.0070   35.0540   53.1570 C.3    24  PHE24       0.1605
     45  C        -11.0600   35.2860   54.2430 C.2    24  PHE24       0.2264
     46  O        -12.2680   35.1670   53.9920 O.2    24  PHE24      -0.2867
     47  CB        -9.2310   33.7610   53.4800 C.3    24  PHE24       0.0534
     48  CG        -8.5360   33.1240   52.2780 C.ar   24  PHE24      -0.0203
     49  CD1       -9.2750   32.5010   51.2750 C.ar   24  PHE24      -0.0042
     50  CD2       -7.1300   33.1090   52.1900 C.ar   24  PHE24      -0.0042
     51  CE1       -8.6390   31.8980   50.1860 C.ar   24  PHE24      -0.0003
     52  CE2       -6.5020   32.4950   51.1040 C.ar   24  PHE24      -0.0003
     53  CZ        -7.2700   31.8970   50.1050 C.ar   24  PHE24      -0.0000
     54  N         -1.9920   25.9470   54.1760 N.3    46  LEU46      -0.1245
     55  CA        -0.9940   26.4660   53.2380 C.3    46  LEU46       0.1561
     56  C         -0.1940   25.3910   52.5060 C.2    46  LEU46       0.2260
     57  O          0.4400   25.6880   51.4880 O.2    46  LEU46      -0.2867
     58  CB        -0.0360   27.4270   53.9470 C.3    46  LEU46       0.0270
     59  CG        -0.5920   28.8410   54.0920 C.3    46  LEU46       0.0019
     60  CD1        0.2980   29.6300   55.0720 C.3    46  LEU46       0.0001
     61  CD2       -0.6640   29.5590   52.7450 C.3    46  LEU46       0.0001
     62  N         -1.5220   24.4840   47.6660 N.3    49  THR49      -0.1203
     63  CA        -1.3720   25.7730   46.9960 C.3    49  THR49       0.1994
     64  C         -2.5990   26.0860   46.1230 C.2    49  THR49       0.2618
     65  O         -3.3010   25.1850   45.6140 O.2    49  THR49      -0.2717
     66  CB        -0.0980   25.8460   46.1170 C.3    49  THR49       0.1784
     67  OG1       -0.2250   24.9700   44.9890 O.3    49  THR49      -0.2211
     68  CG2        1.1250   25.4420   46.9270 C.3    49  THR49       0.0376
     69  N         -2.8310   27.3910   45.9370 N.am   50  GLY50      -0.1942
     70  CA        -4.0040   27.9020   45.2100 C.3    50  GLY50       0.2014
     71  C         -5.1700   28.0980   46.1550 C.2    50  GLY50       0.2639
     72  O         -5.5800   27.1990   46.8830 O.2    50  GLY50      -0.2714
     73  N         -5.7500   29.2810   46.1240 N.am   51  GLY51      -0.1954
     74  CA        -6.8330   29.5780   47.0520 C.3    51  GLY51       0.1869
     75  C         -8.0980   28.7870   46.8150 C.2    51  GLY51       0.2309
     76  O         -8.8120   28.4380   47.7750 O.2    51  GLY51      -0.2863
     77  N         -7.4290   25.4430   48.2310 N.3    54  ARG54      -0.1245
     78  CA        -7.3790   25.4950   49.6880 C.3    54  ARG54       0.1563
     79  C         -8.7850   25.5430   50.2680 C.2    54  ARG54       0.2260
     80  O         -9.0750   24.8310   51.2370 O.2    54  ARG54      -0.2867
     81  CB        -6.6150   26.7430   50.1200 C.3    54  ARG54       0.0307
     82  CG        -6.3090   26.7840   51.6180 C.3    54  ARG54       0.0489
     83  CD        -5.3140   27.9240   51.9990 C.3    54  ARG54       0.2205
     84  NE        -4.0900   27.7270   51.2420 N.pl3  54  ARG54      -0.0865
     85  CZ        -3.4310   28.6470   50.5640 C.cat  54  ARG54       0.5346
     86  NH1       -3.7130   29.9420   50.6770 N.pl3  54  ARG54       0.1354
     87  NH2       -2.4340   28.2340   49.7820 N.pl3  54  ARG54       0.1354
     88  N        -13.5810   32.7070   45.7890 N.3    75  HIS75      -0.1241
     89  CA       -12.1870   33.0540   45.5980 C.3    75  HIS75       0.1621
     90  C        -11.9940   34.3280   44.7950 C.2    75  HIS75       0.2264
     91  O        -11.0900   35.1140   45.0540 O.2    75  HIS75      -0.2867
     92  CB       -11.4090   31.9280   44.9500 C.3    75  HIS75       0.0745
     93  CG        -9.9350   32.1590   45.0010 C.ar   75  HIS75       0.0817
     94  ND1       -9.1660   32.3450   43.8730 N.ar   75  HIS75      -0.2268
     95  CD2       -9.1030   32.3240   46.0560 C.ar   75  HIS75       0.1154
     96  CE1       -7.9160   32.5700   44.2320 C.ar   75  HIS75       0.1986
     97  NE2       -7.8530   32.5730   45.5500 N.ar   75  HIS75      -0.2212
     98  N        -12.4050   37.0520   47.2460 N.3    78  LYS78      -0.1231
     99  CA       -11.2140   37.1040   48.0930 C.3    78  LYS78       0.1693
    100  C        -10.0560   37.7930   47.3510 C.2    78  LYS78       0.2592
    101  O         -9.3080   38.6100   47.9320 O.2    78  LYS78      -0.2718
    102  CB       -10.8350   35.7020   48.5580 C.3    78  LYS78       0.0285
    103  CG        -9.4900   35.6480   49.3250 C.3    78  LYS78       0.0035
    104  CD        -8.2990   35.3570   48.3950 C.3    78  LYS78       0.0206
    105  CE        -7.0070   35.5800   49.1280 C.3    78  LYS78       0.1093
    106  NZ        -5.8690   35.2660   48.2140 N.3    78  LYS78      -0.1314
    107  N         -9.9090   37.4840   46.0600 N.am   79  THR79      -0.1953
    108  CA        -8.8960   38.1640   45.2470 C.3    79  THR79       0.1897
    109  C         -9.1280   39.6740   45.1790 C.2    79  THR79       0.2313
    110  O         -8.2000   40.4560   45.3920 O.2    79  THR79      -0.2863
    111  CB        -8.8150   37.5520   43.8380 C.3    79  THR79       0.1794
    112  OG1       -8.4870   36.1690   43.9720 O.3    79  THR79      -0.2208
    113  CG2       -7.7870   38.2640   42.9820 C.3    79  THR79       0.0378
    114  N          4.4010   31.4830   40.1120 N.3   115  THR115     -0.1203
    115  CA         3.6100   31.5420   41.3470 C.3   115  THR115      0.1994
    116  C          2.3060   30.8060   41.1950 C.2   115  THR115      0.2619
    117  O          1.7710   30.6860   40.0890 O.2   115  THR115     -0.2717
    118  CB         3.3610   33.0180   41.7580 C.3   115  THR115      0.1784
    119  OG1        2.6180   33.0630   42.9810 O.3   115  THR115     -0.2211
    120  CG2        2.5930   33.7780   40.6860 C.3   115  THR115      0.0376
    121  N          1.8060   30.3140   42.3240 N.am  116  THR116     -0.1938
    122  CA         0.4830   29.6940   42.3960 C.3   116  THR116      0.2028
    123  C         -0.6210   30.7180   42.5740 C.2   116  THR116      0.2643
    124  O         -1.7990   30.3890   42.4130 O.2   116  THR116     -0.2714
    125  CB         0.3740   28.6740   43.5740 C.3   116  THR116      0.1808
    126  OG1        0.5160   29.3600   44.8230 O.3   116  THR116     -0.2208
    127  CG2        1.4580   27.5810   43.4510 C.3   116  THR116      0.0379
    128  N         -0.2390   31.9610   42.8870 N.am  117  THR117     -0.1936
    129  CA        -1.2150   33.0070   43.2420 C.3   117  THR117      0.2028
    130  C         -1.9330   33.5760   42.0200 C.2   117  THR117      0.2642
    131  O         -1.4120   33.4980   40.8800 O.2   117  THR117     -0.2714
    132  CB        -0.4820   34.1340   44.0550 C.3   117  THR117      0.1808
    133  OG1       -1.3830   34.7560   44.9760 O.3   117  THR117     -0.2208
    134  CG2        0.1280   35.2310   43.1860 C.3   117  THR117      0.0379
    135  N         -3.0940   34.1790   42.2670 N.am  118  SER118     -0.1949
    136  CA        -3.8750   34.8340   41.2100 C.3   118  SER118      0.1924
    137  C         -3.1240   35.9850   40.5720 C.2   118  SER118      0.2314
    138  O         -2.4780   36.7710   41.2610 O.2   118  SER118     -0.2863
    139  CB        -5.1800   35.3480   41.8050 C.3   118  SER118      0.2116
    140  OG        -5.8460   34.2860   42.4330 O.3   118  SER118     -0.2180
    141  N         -3.0350   39.5650   41.9430 N.3   121  ASN121     -0.1240
    142  CA        -2.2370   39.7440   43.1400 C.3   121  ASN121      0.1653
    143  C         -0.8140   40.1500   42.8240 C.2   121  ASN121      0.2266
    144  O         -0.1890   40.8840   43.5800 O.2   121  ASN121     -0.2867
    145  CB        -2.1830   38.4430   43.9510 C.3   121  ASN121      0.1155
    146  CG        -3.5410   38.0000   44.4460 C.2   121  ASN121      0.2627
    147  OD1       -4.5020   38.7760   44.4900 O.2   121  ASN121     -0.2716
    148  ND2       -3.6110   36.7490   44.8750 N.am  121  ASN121     -0.0877
    149  N          2.0120   24.0630   42.1090 N.3   151  LYS151     -0.1245
    150  CA         3.1460   23.5610   42.8980 C.3   151  LYS151      0.1561
    151  C          2.5890   22.6160   43.9700 C.2   151  LYS151      0.2260
    152  O          1.5930   22.9340   44.6180 O.2   151  LYS151     -0.2867
    153  CB         3.9520   24.7130   43.5340 C.3   151  LYS151      0.0271
    154  CG         4.3540   25.8410   42.5580 C.3   151  LYS151      0.0035
    155  CD         5.2420   26.8550   43.2360 C.3   151  LYS151      0.0206
    156  CE         5.3810   28.0910   42.4000 C.3   151  LYS151      0.1093
    157  NZ         6.0120   29.1840   43.2450 N.3   151  LYS151     -0.1314
    158  N         12.6870   30.6710   46.2740 N.3   175  GLU175     -0.1231
    159  CA        11.4650   30.1030   46.8660 C.3   175  GLU175      0.1699
    160  C         11.4830   30.2510   48.3660 C.2   175  GLU175      0.2592
    161  O         12.5460   30.4890   48.9760 O.2   175  GLU175     -0.2718
    162  CB        11.3480   28.6140   46.5170 C.3   175  GLU175      0.0402
    163  CG        10.7080   28.3890   45.1730 C.3   175  GLU175      0.1161
    164  CD         9.2060   28.5580   45.2120 C.2   175  GLU175      0.3649
    165  OE1        8.6640   28.8840   46.2890 O.co2 175  GLU175     -0.2457
    166  OE2        8.5720   28.4340   44.1320 O.co2 175  GLU175     -0.2457
    167  N         10.3130   30.0790   48.9690 N.am  176  ASP176     -0.1960
    168  CA        10.1580   30.1240   50.4180 C.3   176  ASP176      0.1840
    169  C          9.5800   28.8770   51.0370 C.2   176  ASP176      0.2622
    170  O          9.5890   28.7400   52.2500 O.2   176  ASP176     -0.2715
    171  CB         9.2570   31.3020   50.8420 C.3   176  ASP176      0.1450
    172  CG         7.7870   31.0590   50.4540 C.2   176  ASP176      0.3671
    173  OD1        7.5150   30.8530   49.2440 O.co2 176  ASP176     -0.2456
    174  OD2        6.9080   31.0210   51.3480 O.co2 176  ASP176     -0.2456
    175  N          9.0170   27.9980   50.2120 N.am  177  SER177     -0.1950
    176  CA         8.2510   26.8690   50.7080 C.3   177  SER177      0.1924
    177  C          8.6950   25.5310   50.1150 C.2   177  SER177      0.2314
    178  O          9.3260   25.4840   49.0730 O.2   177  SER177     -0.2863
    179  CB         6.7440   27.0690   50.4450 C.3   177  SER177      0.2116
    180  OG         6.4510   26.9200   49.0590 O.3   177  SER177     -0.2180
@<TRIPOS>BOND
     1   117   116    2
     2   114   115    1
     3   137   136    1
     4   137   138    2
     5   120   118    1
     6   131   130    2
     7   116   115    1
     8   116   121   am
     9   136   139    1
    10   136   135    1
    11   115   118    1
    12   118   119    1
    13   139   140    1
    14   141   142    1
    15   130   135   am
    16   130   129    1
    17   149   150    1
    18   121   122    1
    19   122   123    1
    20   122   125    1
    21   156   155    1
    22   156   157    1
    23   124   123    2
    24   154   155    1
    25   154   153    1
    26   123   128   am
    27    15    13    1
    28   143   142    1
    29   143   144    2
    30   128   129    1
    31   150   153    1
    32   150   151    1
    33     1     2    1
    34   113   111    1
    35   142   145    1
    36   134   132    1
    37   129   132    1
    38   127   125    1
    39   125   126    1
    40     2     3    1
    41     2     5    1
    42   111   112    1
    43   111   108    1
    44    94    96   ar
    45    94    93   ar
    46   145   146    1
    47   151   152    2
    48   132   133    1
    49     3     4    2
    50     3     9   am
    51   166   164   ar
    52    13    14    1
    53    13    10    1
    54    96    97   ar
    55   146   147    2
    56   146   148   am
    57     9    10    1
    58    90    91    2
    59    90    89    1
    60     5     6    1
    61     7     6   ar
    62    10    11    1
    63    92    93    1
    64    92    89    1
    65    67    66    1
    66    93    95   ar
    67   163   164    1
    68   163   162    1
    69   109   108    1
    70   109   110    2
    71    70    69    1
    72    70    71    1
    73   164   165   ar
    74   108   107    1
    75    97    95   ar
    76     6     8   ar
    77    89    88    1
    78    65    64    2
    79    69    64   am
    80   107   100   am
    81    66    68    1
    82    66    63    1
    83    64    63    1
    84    73    71   am
    85    73    74    1
    86    71    72    2
    87   158   159    1
    88    11    16   am
    89    11    12    2
    90   162   159    1
    91    75    74    1
    92    75    76    2
    93    23    21   am
    94   159   160    1
    95    16    17    1
    96    63    62    1
    97    98    99    1
    98   100   101    2
    99   100    99    1
   100    21    22    2
   101    21    20    1
   102    99   102    1
   103   106   105    1
   104    77    78    1
   105    41    42   ar
   106    41    39   ar
   107    17    20    1
   108    17    18    1
   109   160   167   am
   110   160   161    2
   111   104   105    1
   112   104   103    1
   113   102   103    1
   114    42    40   ar
   115   167   168    1
   116   180   179    1
   117   178   177    2
   118    19    18    2
   119    39    38   ar
   120   173   172   ar
   121    78    81    1
   122    78    79    1
   123    87    85    1
   124    40    38   ar
   125    53    51   ar
   126    53    52   ar
   127   177   176    1
   128    81    82    1
   129    51    49   ar
   130   175   176    1
   131   175   169   am
   132    79    80    2
   133    38    37    1
   134   168   171    1
   135   168   169    1
   136   179   176    1
   137   172   171    1
   138   172   174   ar
   139    85    86    1
   140    85    84    2
   141    32    30   ar
   142   169   170    2
   143    52    50   ar
   144    84    83    1
   145    49    48   ar
   146    57    56    2
   147    82    83    1
   148    37    34    1
   149    30    31   ar
   150    30    29    1
   151    50    48   ar
   152    48    47    1
   153    34    33    1
   154    34    35    1
   155    56    55    1
   156    61    59    1
   157    29    28    1
   158    36    35    2
   159    43    44    1
   160    44    47    1
   161    44    45    1
   162    55    58    1
   163    55    54    1
   164    24    25    1
   165    25    28    1
   166    25    26    1
   167    58    59    1
   168    46    45    2
   169    59    60    1
   170    27    26    2
