@<TRIPOS>MOLECULE
tmp/4ub8A01.pdb
 166 163 0 0 0
SMALL
GASTEIGER

@<TRIPOS>ATOM
      1  N        -16.8560   53.3780  -33.2040 N.3   200  LEU200     -0.1231
      2  CA       -15.9750   54.4290  -32.6970 C.3   200  LEU200      0.1693
      3  C        -16.6590   55.2160  -31.5910 C.2   200  LEU200      0.2592
      4  O        -16.0830   55.3670  -30.5160 O.2   200  LEU200     -0.2718
      5  CB       -15.5170   55.3870  -33.8220 C.3   200  LEU200      0.0284
      6  CG       -14.3420   56.3760  -33.6370 C.3   200  LEU200      0.0019
      7  CD1      -14.0570   57.1520  -34.9290 C.3   200  LEU200      0.0001
      8  CD2      -14.5020   57.3940  -32.4690 C.3   200  LEU200      0.0001
      9  N        -17.8540   55.7450  -31.8750 N.am  201  PHE201     -0.1976
     10  CA       -18.5640   56.6430  -30.9510 C.3   201  PHE201      0.1639
     11  C        -19.0770   55.8740  -29.7330 C.2   201  PHE201      0.2290
     12  O        -19.2020   56.4280  -28.6470 O.2   201  PHE201     -0.2864
     13  CB       -19.7040   57.3880  -31.6690 C.3   201  PHE201      0.0560
     14  CG       -19.2350   58.2590  -32.8390 C.ar  201  PHE201     -0.0200
     15  CD1      -19.9230   58.2660  -34.0450 C.ar  201  PHE201     -0.0042
     16  CD2      -18.1200   59.0710  -32.7180 C.ar  201  PHE201     -0.0042
     17  CE1      -19.4940   59.0490  -35.1320 C.ar  201  PHE201     -0.0003
     18  CE2      -17.6910   59.8620  -33.7890 C.ar  201  PHE201     -0.0003
     19  CZ       -18.3830   59.8450  -34.9990 C.ar  201  PHE201     -0.0000
     20  N        -15.9990   55.6260  -27.6750 N.3   204  MET204     -0.1230
     21  CA       -15.6570   56.9600  -27.2270 C.3   204  MET204      0.1702
     22  C        -16.5400   57.3880  -26.0460 C.2   204  MET204      0.2592
     23  O        -16.0490   57.8640  -25.0210 O.2   204  MET204     -0.2718
     24  CB       -15.8450   57.9390  -28.3800 C.3   204  MET204      0.0401
     25  CG       -15.1490   59.2490  -28.1310 C.3   204  MET204      0.0596
     26  SD       -13.4350   59.2090  -28.6720 S.3   204  MET204     -0.1393
     27  CE       -12.7770   60.5150  -27.6300 C.3   204  MET204      0.0692
     28  N        -17.8470   57.2010  -26.1990 N.am  205  HIS205     -0.1976
     29  CA       -18.8090   57.5880  -25.1710 C.3   205  HIS205      0.1656
     30  C        -18.6660   56.7070  -23.9200 C.2   205  HIS205      0.2291
     31  O        -18.5950   57.2070  -22.7770 O.2   205  HIS205     -0.2864
     32  CB       -20.2080   57.4600  -25.7500 C.3   205  HIS205      0.0771
     33  CG       -21.2910   57.8360  -24.7980 C.ar  205  HIS205      0.0820
     34  ND1      -21.3920   59.0950  -24.2420 N.ar  205  HIS205     -0.2267
     35  CD2      -22.3290   57.1200  -24.3090 C.ar  205  HIS205      0.1154
     36  CE1      -22.4500   59.1410  -23.4550 C.ar  205  HIS205      0.1986
     37  NE2      -23.0350   57.9590  -23.4800 N.ar  205  HIS205     -0.2212
     38  N        -15.5080   57.9700  -22.1690 N.3   208  LEU208     -0.1231
     39  CA       -15.5780   59.2850  -21.5470 C.3   208  LEU208      0.1693
     40  C        -16.4080   59.2430  -20.2700 C.2   208  LEU208      0.2591
     41  O        -15.9870   59.7670  -19.2090 O.2   208  LEU208     -0.2718
     42  CB       -16.1050   60.3310  -22.5420 C.3   208  LEU208      0.0284
     43  CG       -15.1700   60.5840  -23.7270 C.3   208  LEU208      0.0019
     44  CD1      -15.8500   61.4510  -24.7820 C.3   208  LEU208      0.0001
     45  CD2      -13.8740   61.2220  -23.2530 C.3   208  LEU208      0.0001
     46  N        -17.5640   58.5760  -20.3550 N.am  209  VAL209     -0.1980
     47  CA       -18.4060   58.4400  -19.1680 C.3   209  VAL209      0.1595
     48  C        -17.6740   57.6330  -18.0940 C.2   209  VAL209      0.2287
     49  O        -17.6380   58.0320  -16.9250 O.2   209  VAL209     -0.2864
     50  CB       -19.7960   57.8140  -19.4740 C.3   209  VAL209      0.0276
     51  CG1      -20.5530   57.5550  -18.1770 C.3   209  VAL209      0.0022
     52  CG2      -20.6220   58.7410  -20.3930 C.3   209  VAL209      0.0022
     53  N        -21.8870   60.4590  -13.3780 N.3   236  TYR236     -0.1241
     54  CA       -20.5980   60.9640  -13.8360 C.3   236  TYR236      0.1605
     55  C        -20.6560   62.4710  -14.0270 C.2   236  TYR236      0.2264
     56  O        -21.7300   63.0720  -14.0790 O.2   236  TYR236     -0.2867
     57  CB       -20.1750   60.3020  -15.1440 C.3   236  TYR236      0.0534
     58  CG       -20.9910   60.7420  -16.3360 C.ar  236  TYR236     -0.0201
     59  CD1      -22.3290   60.3760  -16.4520 C.ar  236  TYR236     -0.0009
     60  CD2      -20.4200   61.5040  -17.3620 C.ar  236  TYR236     -0.0009
     61  CE1      -23.0870   60.7660  -17.5370 C.ar  236  TYR236      0.0417
     62  CE2      -21.1760   61.9020  -18.4590 C.ar  236  TYR236      0.0417
     63  CZ       -22.5110   61.5230  -18.5360 C.ar  236  TYR236      0.1957
     64  OH       -23.2850   61.8930  -19.6050 O.3   236  TYR236     -0.2866
     65  N        -20.2980   65.3200  -16.3820 N.3   238  ILE238     -0.1245
     66  CA       -20.2140   65.6850  -17.8060 C.3   238  ILE238      0.1561
     67  C        -19.3320   66.9110  -18.0630 C.2   238  ILE238      0.2260
     68  O        -18.6980   67.0160  -19.1120 O.2   238  ILE238     -0.2867
     69  CB       -21.6040   65.8830  -18.4710 C.3   238  ILE238      0.0252
     70  CG1      -21.4860   65.7420  -20.0010 C.3   238  ILE238      0.0019
     71  CG2      -22.2200   67.2200  -18.0750 C.3   238  ILE238      0.0019
     72  CD1      -22.8120   65.7900  -20.7640 C.3   238  ILE238      0.0001
     73  N        -15.8450   65.4440  -18.2430 N.3   241  ALA241     -0.1231
     74  CA       -15.7170   64.6900  -19.4940 C.3   241  ALA241      0.1694
     75  C        -15.5310   65.6440  -20.6970 C.2   241  ALA241      0.2592
     76  O        -14.6940   65.4230  -21.5800 O.2   241  ALA241     -0.2718
     77  CB       -16.9260   63.8100  -19.6920 C.3   241  ALA241      0.0304
     78  N        -16.3090   66.7160  -20.7010 N.am  242  HIS242     -0.1976
     79  CA       -16.2120   67.7510  -21.7270 C.3   242  HIS242      0.1656
     80  C        -14.8950   68.5370  -21.6510 C.2   242  HIS242      0.2291
     81  O        -14.3270   68.8580  -22.6820 O.2   242  HIS242     -0.2864
     82  CB       -17.4080   68.7030  -21.6280 C.3   242  HIS242      0.0771
     83  CG       -17.3790   69.8140  -22.6300 C.ar  242  HIS242      0.0820
     84  ND1      -17.3020   69.5890  -23.9870 N.ar  242  HIS242     -0.2267
     85  CD2      -17.4100   71.1620  -22.4710 C.ar  242  HIS242      0.1154
     86  CE1      -17.2900   70.7490  -24.6230 C.ar  242  HIS242      0.1986
     87  NE2      -17.3620   71.7180  -23.7270 N.ar  242  HIS242     -0.2212
     88  N        -12.4330   66.0070  -23.3130 N.3   245  PHE245     -0.1241
     89  CA       -12.5380   65.7680  -24.7600 C.3   245  PHE245      0.1605
     90  C        -12.3490   67.0520  -25.5630 C.2   245  PHE245      0.2264
     91  O        -11.7930   67.0490  -26.6640 O.2   245  PHE245     -0.2867
     92  CB       -13.8490   65.0910  -25.1500 C.3   245  PHE245      0.0534
     93  CG       -13.9300   64.7550  -26.6250 C.ar  245  PHE245     -0.0203
     94  CD1      -12.9410   63.9910  -27.2280 C.ar  245  PHE245     -0.0042
     95  CD2      -14.9690   65.2320  -27.4110 C.ar  245  PHE245     -0.0042
     96  CE1      -13.0010   63.6950  -28.6020 C.ar  245  PHE245     -0.0003
     97  CE2      -15.0340   64.9380  -28.7630 C.ar  245  PHE245     -0.0003
     98  CZ       -14.0500   64.1610  -29.3580 C.ar  245  PHE245     -0.0000
     99  N         -9.3270   67.4990  -28.6530 N.3   249  ILE249     -0.1231
    100  CA        -9.4310   68.0500  -30.0130 C.3   249  ILE249      0.1692
    101  C         -9.3520   69.5750  -29.9000 C.2   249  ILE249      0.2592
    102  O         -8.2570   70.1480  -29.8490 O.2   249  ILE249     -0.2718
    103  CB       -10.7420   67.5990  -30.7200 C.3   249  ILE249      0.0266
    104  CG1      -10.9730   66.0910  -30.5340 C.3   249  ILE249      0.0019
    105  CG2      -10.7310   67.9520  -32.2200 C.3   249  ILE249      0.0020
    106  CD1       -9.8790   65.2000  -31.1360 C.3   249  ILE249      0.0001
    107  N        -10.5070   70.2300  -29.8570 N.am  250  PHE250     -0.1976
    108  CA       -10.5990   71.6260  -29.4090 C.3   250  PHE250      0.1639
    109  C        -12.0040   71.8380  -28.8570 C.2   250  PHE250      0.2290
    110  O        -12.8870   71.0130  -29.1000 O.2   250  PHE250     -0.2864
    111  CB       -10.2500   72.6380  -30.5110 C.3   250  PHE250      0.0560
    112  CG       -10.9580   72.3970  -31.8050 C.ar  250  PHE250     -0.0200
    113  CD1      -10.3810   71.5950  -32.7860 C.ar  250  PHE250     -0.0042
    114  CD2      -12.1950   72.9800  -32.0530 C.ar  250  PHE250     -0.0042
    115  CE1      -11.0290   71.3730  -34.0030 C.ar  250  PHE250     -0.0003
    116  CE2      -12.8570   72.7580  -33.2650 C.ar  250  PHE250     -0.0003
    117  CZ       -12.2720   71.9520  -34.2410 C.ar  250  PHE250     -0.0000
    118  N        -15.3760   71.2000  -30.7270 N.3   253  ALA253     -0.1231
    119  CA       -15.5510   69.9200  -31.4010 C.3   253  ALA253      0.1694
    120  C        -16.1520   68.9130  -30.4300 C.2   253  ALA253      0.2593
    121  O        -16.3990   67.7620  -30.7830 O.2   253  ALA253     -0.2718
    122  CB       -14.2300   69.4240  -31.9380 C.3   253  ALA253      0.0304
    123  N        -16.3980   69.3620  -29.2040 N.am  254  SER254     -0.1938
    124  CA       -16.9230   68.4980  -28.1470 C.3   254  SER254      0.2055
    125  C        -18.3420   68.9260  -27.7610 C.2   254  SER254      0.2643
    126  O        -18.6650   70.1160  -27.7910 O.2   254  SER254     -0.2714
    127  CB       -16.0030   68.5660  -26.9210 C.3   254  SER254      0.2130
    128  OG       -16.4370   67.6950  -25.8880 O.3   254  SER254     -0.2179
    129  N        -19.1820   67.9600  -27.4090 N.am  255  PHE255     -0.1973
    130  CA       -20.5400   68.2370  -26.9490 C.3   255  PHE255      0.1639
    131  C        -20.5430   68.6210  -25.4810 C.2   255  PHE255      0.2290
    132  O        -19.9280   67.9440  -24.6580 O.2   255  PHE255     -0.2864
    133  CB       -21.4240   66.9990  -27.0960 C.3   255  PHE255      0.0560
    134  CG       -21.8130   66.6740  -28.5100 C.ar  255  PHE255     -0.0200
    135  CD1      -22.8630   67.3350  -29.1220 C.ar  255  PHE255     -0.0042
    136  CD2      -21.1520   65.6780  -29.2100 C.ar  255  PHE255     -0.0042
    137  CE1      -23.2350   67.0260  -30.4150 C.ar  255  PHE255     -0.0003
    138  CE2      -21.5200   65.3590  -30.5000 C.ar  255  PHE255     -0.0003
    139  CZ       -22.5630   66.0370  -31.1060 C.ar  255  PHE255     -0.0000
    140  N        -25.6140   65.2060  -27.6420 N.3   261  LEU261     -0.1245
    141  CA       -24.6610   64.1160  -27.6970 C.3   261  LEU261      0.1561
    142  C        -25.3640   62.7820  -27.9410 C.2   261  LEU261      0.2260
    143  O        -24.9870   61.9950  -28.8230 O.2   261  LEU261     -0.2867
    144  CB       -23.8910   64.0520  -26.3820 C.3   261  LEU261      0.0270
    145  CG       -23.0670   62.7790  -26.2030 C.3   261  LEU261      0.0019
    146  CD1      -21.9840   62.7570  -27.2620 C.3   261  LEU261      0.0001
    147  CD2      -22.4920   62.7160  -24.8020 C.3   261  LEU261      0.0001
    148  N        -26.8670   62.5480  -31.3340 N.3   264  PHE264     -0.1227
    149  CA       -25.8130   62.2500  -32.3010 C.3   264  PHE264      0.1736
    150  C        -25.5030   60.7470  -32.3120 C.2   264  PHE264      0.2595
    151  O        -25.4150   60.1210  -33.3800 O.2   264  PHE264     -0.2718
    152  CB       -24.5400   63.0520  -31.9990 C.3   264  PHE264      0.0547
    153  CG       -23.4300   62.8120  -32.9900 C.ar  264  PHE264     -0.0202
    154  CD1      -23.4380   63.4550  -34.2260 C.ar  264  PHE264     -0.0042
    155  CD2      -22.3970   61.9320  -32.7010 C.ar  264  PHE264     -0.0042
    156  CE1      -22.4330   63.2280  -35.1580 C.ar  264  PHE264     -0.0003
    157  CE2      -21.3870   61.6930  -33.6300 C.ar  264  PHE264     -0.0003
    158  CZ       -21.4050   62.3430  -34.8610 C.ar  264  PHE264     -0.0000
    159  N        -25.3250   60.1840  -31.1200 N.am  265  LEU265     -0.1980
    160  CA       -25.1270   58.7450  -30.9740 C.3   265  LEU265      0.1596
    161  C        -26.2520   57.9580  -31.6590 C.2   265  LEU265      0.2287
    162  O        -26.0050   56.9110  -32.2530 O.2   265  LEU265     -0.2864
    163  CB       -25.0260   58.3540  -29.4820 C.3   265  LEU265      0.0297
    164  CG       -23.8210   58.9380  -28.7410 C.3   265  LEU265      0.0022
    165  CD1      -23.7690   58.4570  -27.2990 C.3   265  LEU265      0.0001
    166  CD2      -22.5260   58.5820  -29.4560 C.3   265  LEU265      0.0001
@<TRIPOS>BOND
     1   156   158   ar
     2   156   154   ar
     3    17    19   ar
     4    17    15   ar
     5    19    18   ar
     6     7     6    1
     7   158   157   ar
     8   117   115   ar
     9   117   116   ar
    10   154   153   ar
    11    15    14   ar
    12   115   113   ar
    13     5     6    1
    14     5     2    1
    15    18    16   ar
    16     6     8    1
    17   157   155   ar
    18   151   150    2
    19   116   114   ar
    20     1     2    1
    21   153   155   ar
    22   153   152    1
    23    14    16   ar
    24    14    13    1
    25   113   112   ar
    26     2     3    1
    27   150   149    1
    28   150   159   am
    29   149   152    1
    30   149   148    1
    31   162   161    2
    32   105   103    1
    33   114   112   ar
    34   122   119    1
    35     9     3   am
    36     9    10    1
    37   112   111    1
    38    13    10    1
    39   161   160    1
    40     3     4    2
    41   119   118    1
    42   119   120    1
    43   106   104    1
    44   159   160    1
    45   139   138   ar
    46   139   137   ar
    47   160   163    1
    48    10    11    1
    49   121   120    2
    50   103   104    1
    51   103   100    1
    52   111   108    1
    53   138   136   ar
    54   120   123   am
    55   137   135   ar
    56   100   101    1
    57   100    99    1
    58   101   107   am
    59   101   102    2
    60   107   108    1
    61    11    12    2
    62   163   164    1
    63   166   164    1
    64   108   109    1
    65    98    97   ar
    66    98    96   ar
    67   136   134   ar
    68   123   124    1
    69   135   134   ar
    70   110   109    2
    71   143   142    2
    72    97    95   ar
    73   164   165    1
    74    26    25    1
    75    26    27    1
    76    96    94   ar
    77   134   133    1
    78    24    25    1
    79    24    21    1
    80   124   125    1
    81   124   127    1
    82   142   141    1
    83   126   125    2
    84   125   129   am
    85   141   140    1
    86   141   144    1
    87    20    21    1
    88    95    93   ar
    89   129   130    1
    90   146   145    1
    91    94    93   ar
    92    21    22    1
    93   133   130    1
    94   130   131    1
    95   127   128    1
    96    91    90    2
    97    93    92    1
    98   144   145    1
    99   145   147    1
   100    28    22   am
   101    28    29    1
   102    22    23    2
   103    32    29    1
   104    32    33    1
   105    90    89    1
   106   131   132    2
   107    29    30    1
   108    92    89    1
   109    33    35   ar
   110    33    34   ar
   111    44    43    1
   112    89    88    1
   113    86    84   ar
   114    86    87   ar
   115    35    37   ar
   116    34    36   ar
   117    84    83   ar
   118    30    31    2
   119    43    45    1
   120    43    42    1
   121    87    85   ar
   122    37    36   ar
   123    81    80    2
   124    83    85   ar
   125    83    82    1
   126    42    39    1
   127    38    39    1
   128    79    80    1
   129    79    82    1
   130    79    78    1
   131    76    75    2
   132    39    40    1
   133    72    70    1
   134    78    75   am
   135    75    74    1
   136    52    50    1
   137    46    40   am
   138    46    47    1
   139    40    41    2
   140    70    69    1
   141    77    74    1
   142    64    63    1
   143    74    73    1
   144    50    47    1
   145    50    51    1
   146    47    48    1
   147    68    67    2
   148    63    62   ar
   149    63    61   ar
   150    69    71    1
   151    69    66    1
   152    62    60   ar
   153    48    49    2
   154    67    66    1
   155    66    65    1
   156    61    59   ar
   157    60    58   ar
   158    59    58   ar
   159    58    57    1
   160    57    54    1
   161    56    55    2
   162    55    54    1
   163    54    53    1
